MODEL        1
REMARK 921   NORMALIZED FREE ENERGY PREDICTED BY IDOCK:   -6.38 KCAL/MOL
REMARK 922        TOTAL FREE ENERGY PREDICTED BY IDOCK:   -9.20 KCAL/MOL
REMARK 923 INTER-LIGAND FREE ENERGY PREDICTED BY IDOCK:   -8.61 KCAL/MOL
REMARK 924 INTRA-LIGAND FREE ENERGY PREDICTED BY IDOCK:   -0.59 KCAL/MOL
REMARK 927      BINDING AFFINITY PREDICTED BY RF-SCORE:    0.00 PKD
ROOT
HETATM    1  C   UNL     1     -12.952   7.387  71.614  1.00  0.00    -0.366 C  
HETATM    2  N   UNL     1     -12.461   8.560  72.346  1.00  0.00    -0.380 NA 
HETATM    3  C   UNL     1     -11.012   8.673  72.167  1.00  0.00    -0.364 C  
ENDROOT
BRANCH   2   4
HETATM    4  C   UNL     1     -13.174   9.765  71.874  1.00  0.00    -0.449 C  
BRANCH   4   5
HETATM    5  C   UNL     1     -12.414  10.605  70.829  1.00  0.00    -0.480 C  
BRANCH   5   6
HETATM    6  C   UNL     1     -12.613  12.077  71.046  1.00  0.00    -0.370 A  
HETATM    7  C   UNL     1     -13.319  12.659  72.083  1.00  0.00    -0.466 A  
HETATM    8  N   UNL     1     -13.313  14.014  71.900  1.00  0.00    -0.375 NA 
HETATM    9  C   UNL     1     -12.596  14.338  70.772  1.00  0.00    -0.356 A  
HETATM   10  H   UNL     1     -13.774  14.688  72.512  1.00  0.00     0.000 HD 
HETATM   11  C   UNL     1     -12.132  13.146  70.220  1.00  0.00    -0.399 A  
HETATM   12  C   UNL     1     -11.357  13.212  69.039  1.00  0.00    -0.332 A  
HETATM   13  C   UNL     1     -11.076  14.454  68.436  1.00  0.00    -0.272 A  
HETATM   14  C   UNL     1     -11.558  15.625  69.039  1.00  0.00    -0.396 A  
HETATM   15  C   UNL     1     -12.330  15.589  70.205  1.00  0.00    -0.431 A  
BRANCH  13  16
HETATM   16  C   UNL     1     -10.248  14.505  67.169  1.00  0.00    -0.260 C  
BRANCH  16  17
HETATM   17  S   UNL     1     -11.342  14.664  65.737  1.00  0.00    -0.333 S  
HETATM   18  O   UNL     1     -11.027  15.889  65.028  1.00  0.00    -0.425 OA 
HETATM   19  O   UNL     1     -12.700  14.343  66.115  1.00  0.00    -0.334 OA 
BRANCH  17  20
HETATM   20  N   UNL     1     -10.833  13.396  64.715  1.00  0.00    -0.352 N  
HETATM   21  C   UNL     1     -10.466  12.159  65.458  1.00  0.00    -0.265 C  
HETATM   22  C   UNL     1     -10.475  11.072  64.402  1.00  0.00    -0.422 C  
HETATM   23  C   UNL     1     -11.621  11.468  63.492  1.00  0.00    -0.294 C  
HETATM   24  C   UNL     1     -11.713  12.990  63.588  1.00  0.00    -0.490 C  
ENDBRANCH  17  20
ENDBRANCH  16  17
ENDBRANCH  13  16
ENDBRANCH   5   6
ENDBRANCH   4   5
ENDBRANCH   2   4
TORSDOF 6
ENDMDL
MODEL        2
REMARK 921   NORMALIZED FREE ENERGY PREDICTED BY IDOCK:   -6.16 KCAL/MOL
REMARK 922        TOTAL FREE ENERGY PREDICTED BY IDOCK:   -8.92 KCAL/MOL
REMARK 923 INTER-LIGAND FREE ENERGY PREDICTED BY IDOCK:   -8.34 KCAL/MOL
REMARK 924 INTRA-LIGAND FREE ENERGY PREDICTED BY IDOCK:   -0.57 KCAL/MOL
REMARK 927      BINDING AFFINITY PREDICTED BY RF-SCORE:    0.00 PKD
ROOT
HETATM    1  C   UNL     1     -12.383   7.090  71.469  1.00  0.00    -0.379 C  
HETATM    2  N   UNL     1     -11.887   8.044  72.468  1.00  0.00    -0.375 NA 
HETATM    3  C   UNL     1     -10.662   7.520  73.075  1.00  0.00    -0.384 C  
ENDROOT
BRANCH   2   4
HETATM    4  C   UNL     1     -11.669   9.356  71.824  1.00  0.00    -0.374 C  
BRANCH   4   5
HETATM    5  C   UNL     1     -12.938  10.024  71.259  1.00  0.00    -0.495 C  
BRANCH   5   6
HETATM    6  C   UNL     1     -12.782  11.513  71.149  1.00  0.00    -0.458 A  
HETATM    7  C   UNL     1     -13.319  12.454  72.010  1.00  0.00    -0.407 A  
HETATM    8  N   UNL     1     -12.996  13.698  71.543  1.00  0.00    -0.354 NA 
HETATM    9  C   UNL     1     -12.237  13.594  70.401  1.00  0.00    -0.363 A  
HETATM   10  H   UNL     1     -13.278  14.576  71.979  1.00  0.00     0.000 HD 
HETATM   11  C   UNL     1     -12.074  12.237  70.134  1.00  0.00    -0.364 A  
HETATM   12  C   UNL     1     -11.319  11.864  68.998  1.00  0.00    -0.337 A  
HETATM   13  C   UNL     1     -10.762  12.847  68.155  1.00  0.00    -0.258 A  
HETATM   14  C   UNL     1     -10.947  14.199  68.476  1.00  0.00    -0.271 A  
HETATM   15  C   UNL     1     -11.692  14.596  69.592  1.00  0.00    -0.358 A  
BRANCH  13  16
HETATM   16  C   UNL     1      -9.960  12.428  66.940  1.00  0.00    -0.215 C  
BRANCH  16  17
HETATM   17  S   UNL     1     -10.967  12.634  65.451  1.00  0.00    -0.296 S  
HETATM   18  O   UNL     1     -10.487  13.779  64.703  1.00  0.00    -0.416 OA 
HETATM   19  O   UNL     1     -12.368  12.484  65.778  1.00  0.00    -0.627 OA 
BRANCH  17  20
HETATM   20  N   UNL     1     -10.560  11.268  64.513  1.00  0.00    -0.331 N  
HETATM   21  C   UNL     1      -9.877  11.619  63.238  1.00  0.00    -0.405 C  
HETATM   22  C   UNL     1      -9.232  10.323  62.790  1.00  0.00    -0.316 C  
HETATM   23  C   UNL     1      -8.796   9.674  64.089  1.00  0.00    -0.257 C  
HETATM   24  C   UNL     1      -9.779  10.173  65.147  1.00  0.00    -0.304 C  
ENDBRANCH  17  20
ENDBRANCH  16  17
ENDBRANCH  13  16
ENDBRANCH   5   6
ENDBRANCH   4   5
ENDBRANCH   2   4
TORSDOF 6
ENDMDL
MODEL        3
REMARK 921   NORMALIZED FREE ENERGY PREDICTED BY IDOCK:   -6.12 KCAL/MOL
REMARK 922        TOTAL FREE ENERGY PREDICTED BY IDOCK:   -8.85 KCAL/MOL
REMARK 923 INTER-LIGAND FREE ENERGY PREDICTED BY IDOCK:   -8.27 KCAL/MOL
REMARK 924 INTRA-LIGAND FREE ENERGY PREDICTED BY IDOCK:   -0.58 KCAL/MOL
REMARK 927      BINDING AFFINITY PREDICTED BY RF-SCORE:    0.00 PKD
ROOT
HETATM    1  C   UNL     1     -12.511   7.539  71.371  1.00  0.00    -0.352 C  
HETATM    2  N   UNL     1     -11.892   8.555  72.230  1.00  0.00    -0.379 NA 
HETATM    3  C   UNL     1     -10.875   7.925  73.074  1.00  0.00    -0.342 C  
ENDROOT
BRANCH   2   4
HETATM    4  C   UNL     1     -11.325   9.627  71.386  1.00  0.00    -0.374 C  
BRANCH   4   5
HETATM    5  C   UNL     1     -12.342  10.356  70.485  1.00  0.00    -0.410 C  
BRANCH   5   6
HETATM    6  C   UNL     1     -12.644  11.737  70.990  1.00  0.00    -0.409 A  
HETATM    7  C   UNL     1     -13.288  12.049  72.173  1.00  0.00    -0.290 A  
HETATM    8  N   UNL     1     -13.417  13.408  72.247  1.00  0.00    -0.551 NA 
HETATM    9  C   UNL     1     -12.849  14.000  71.143  1.00  0.00    -0.357 A  
HETATM   10  H   UNL     1     -13.870  13.911  73.011  1.00  0.00     0.000 HD 
HETATM   11  C   UNL     1     -12.343  12.980  70.341  1.00  0.00    -0.351 A  
HETATM   12  C   UNL     1     -11.701  13.335  69.132  1.00  0.00    -0.379 A  
HETATM   13  C   UNL     1     -11.591  14.687  68.751  1.00  0.00    -0.346 A  
HETATM   14  C   UNL     1     -12.108  15.676  69.600  1.00  0.00    -0.329 A  
HETATM   15  C   UNL     1     -12.752  15.352  70.800  1.00  0.00    -0.516 A  
BRANCH  13  16
HETATM   16  C   UNL     1     -10.903  15.048  67.450  1.00  0.00    -0.305 C  
BRANCH  16  17
HETATM   17  S   UNL     1      -9.213  15.594  67.791  1.00  0.00    -0.193 S  
HETATM   18  O   UNL     1      -8.318  15.030  66.799  1.00  0.00    -0.225 OA 
HETATM   19  O   UNL     1      -8.933  15.481  69.205  1.00  0.00    -0.219 OA 
BRANCH  17  20
HETATM   20  N   UNL     1      -9.270  17.267  67.461  1.00  0.00    -0.226 N  
HETATM   21  C   UNL     1     -10.108  17.599  66.276  1.00  0.00    -0.341 C  
HETATM   22  C   UNL     1     -10.380  19.084  66.415  1.00  0.00    -0.520 C  
HETATM   23  C   UNL     1     -10.525  19.282  67.911  1.00  0.00    -0.514 C  
HETATM   24  C   UNL     1      -9.660  18.198  68.553  1.00  0.00    -0.339 C  
ENDBRANCH  17  20
ENDBRANCH  16  17
ENDBRANCH  13  16
ENDBRANCH   5   6
ENDBRANCH   4   5
ENDBRANCH   2   4
TORSDOF 6
ENDMDL
MODEL        4
REMARK 921   NORMALIZED FREE ENERGY PREDICTED BY IDOCK:   -6.09 KCAL/MOL
REMARK 922        TOTAL FREE ENERGY PREDICTED BY IDOCK:   -8.81 KCAL/MOL
REMARK 923 INTER-LIGAND FREE ENERGY PREDICTED BY IDOCK:   -8.28 KCAL/MOL
REMARK 924 INTRA-LIGAND FREE ENERGY PREDICTED BY IDOCK:   -0.53 KCAL/MOL
REMARK 927      BINDING AFFINITY PREDICTED BY RF-SCORE:    0.00 PKD
ROOT
HETATM    1  C   UNL     1     -13.757  13.574  72.175  1.00  0.00    -0.559 C  
HETATM    2  N   UNL     1     -13.744  15.040  72.105  1.00  0.00    -0.407 NA 
HETATM    3  C   UNL     1     -13.057  15.577  73.281  1.00  0.00    -0.543 C  
ENDROOT
BRANCH   2   4
HETATM    4  C   UNL     1     -13.098  15.463  70.844  1.00  0.00    -0.468 C  
BRANCH   4   5
HETATM    5  C   UNL     1     -11.802  14.707  70.490  1.00  0.00    -0.367 C  
BRANCH   5   6
HETATM    6  C   UNL     1     -11.697  14.442  69.016  1.00  0.00    -0.345 A  
HETATM    7  C   UNL     1     -12.012  13.256  68.377  1.00  0.00    -0.301 A  
HETATM    8  N   UNL     1     -11.733  13.397  67.046  1.00  0.00    -0.359 NA 
HETATM    9  C   UNL     1     -11.261  14.663  66.792  1.00  0.00    -0.344 A  
HETATM   10  H   UNL     1     -11.858  12.668  66.344  1.00  0.00     0.000 HD 
HETATM   11  C   UNL     1     -11.238  15.349  68.004  1.00  0.00    -0.326 A  
HETATM   12  C   UNL     1     -10.787  16.689  68.008  1.00  0.00    -0.337 A  
HETATM   13  C   UNL     1     -10.360  17.303  66.814  1.00  0.00    -0.308 A  
HETATM   14  C   UNL     1     -10.414  16.572  65.618  1.00  0.00    -0.341 A  
HETATM   15  C   UNL     1     -10.852  15.244  65.586  1.00  0.00    -0.371 A  
BRANCH  13  16
HETATM   16  C   UNL     1      -9.876  18.738  66.838  1.00  0.00    -0.334 C  
BRANCH  16  17
HETATM   17  S   UNL     1      -8.082  18.775  66.610  1.00  0.00    -0.284 S  
HETATM   18  O   UNL     1      -7.770  19.464  65.372  1.00  0.00    -0.370 OA 
HETATM   19  O   UNL     1      -7.519  17.477  66.908  1.00  0.00    -0.178 OA 
BRANCH  17  20
HETATM   20  N   UNL     1      -7.551  19.809  67.858  1.00  0.00    -0.290 N  
HETATM   21  C   UNL     1      -7.058  19.072  69.055  1.00  0.00    -0.326 C  
HETATM   22  C   UNL     1      -6.258  20.104  69.826  1.00  0.00    -0.381 C  
HETATM   23  C   UNL     1      -5.600  20.930  68.738  1.00  0.00    -0.388 C  
HETATM   24  C   UNL     1      -6.545  20.857  67.540  1.00  0.00    -0.356 C  
ENDBRANCH  17  20
ENDBRANCH  16  17
ENDBRANCH  13  16
ENDBRANCH   5   6
ENDBRANCH   4   5
ENDBRANCH   2   4
TORSDOF 6
ENDMDL
MODEL        5
REMARK 921   NORMALIZED FREE ENERGY PREDICTED BY IDOCK:   -6.07 KCAL/MOL
REMARK 922        TOTAL FREE ENERGY PREDICTED BY IDOCK:   -8.79 KCAL/MOL
REMARK 923 INTER-LIGAND FREE ENERGY PREDICTED BY IDOCK:   -8.43 KCAL/MOL
REMARK 924 INTRA-LIGAND FREE ENERGY PREDICTED BY IDOCK:   -0.35 KCAL/MOL
REMARK 927      BINDING AFFINITY PREDICTED BY RF-SCORE:    0.00 PKD
ROOT
HETATM    1  C   UNL     1     -11.618   7.867  72.603  1.00  0.00    -0.377 C  
HETATM    2  N   UNL     1     -12.380   8.640  71.615  1.00  0.00    -0.317 NA 
HETATM    3  C   UNL     1     -13.766   8.776  72.069  1.00  0.00    -0.443 C  
ENDROOT
BRANCH   2   4
HETATM    4  C   UNL     1     -11.731   9.952  71.414  1.00  0.00    -0.371 C  
BRANCH   4   5
HETATM    5  C   UNL     1     -12.508  10.934  70.517  1.00  0.00    -0.438 C  
BRANCH   5   6
HETATM    6  C   UNL     1     -12.822  12.215  71.234  1.00  0.00    -0.349 A  
HETATM    7  C   UNL     1     -13.770  12.381  72.227  1.00  0.00    -0.172 A  
HETATM    8  N   UNL     1     -13.789  13.700  72.588  1.00  0.00    -0.754 NA 
HETATM    9  C   UNL     1     -12.854  14.403  71.866  1.00  0.00    -0.349 A  
HETATM   10  H   UNL     1     -14.408  14.103  73.292  1.00  0.00     0.000 HD 
HETATM   11  C   UNL     1     -12.221  13.499  71.016  1.00  0.00    -0.348 A  
HETATM   12  C   UNL     1     -11.205  13.983  70.160  1.00  0.00    -0.008 A  
HETATM   13  C   UNL     1     -10.857  15.348  70.163  1.00  0.00    -0.328 A  
HETATM   14  C   UNL     1     -11.518  16.214  71.046  1.00  0.00    -0.424 A  
HETATM   15  C   UNL     1     -12.529  15.763  71.901  1.00  0.00    -0.527 A  
BRANCH  13  16
HETATM   16  C   UNL     1      -9.769  15.848  69.235  1.00  0.00    -0.263 C  
BRANCH  16  17
HETATM   17  S   UNL     1     -10.435  16.028  67.563  1.00  0.00    -0.300 S  
HETATM   18  O   UNL     1     -11.717  15.355  67.483  1.00  0.00    -0.241 OA 
HETATM   19  O   UNL     1      -9.395  15.780  66.589  1.00  0.00    -0.224 OA 
BRANCH  17  20
HETATM   20  N   UNL     1     -10.781  17.695  67.458  1.00  0.00    -0.335 N  
HETATM   21  C   UNL     1     -10.050  18.507  68.469  1.00  0.00    -0.378 C  
HETATM   22  C   UNL     1     -10.142  19.927  67.945  1.00  0.00    -0.571 C  
HETATM   23  C   UNL     1     -10.046  19.759  66.441  1.00  0.00    -0.600 C  
HETATM   24  C   UNL     1     -10.625  18.376  66.146  1.00  0.00    -0.315 C  
ENDBRANCH  17  20
ENDBRANCH  16  17
ENDBRANCH  13  16
ENDBRANCH   5   6
ENDBRANCH   4   5
ENDBRANCH   2   4
TORSDOF 6
ENDMDL
MODEL        6
REMARK 921   NORMALIZED FREE ENERGY PREDICTED BY IDOCK:   -6.05 KCAL/MOL
REMARK 922        TOTAL FREE ENERGY PREDICTED BY IDOCK:   -8.76 KCAL/MOL
REMARK 923 INTER-LIGAND FREE ENERGY PREDICTED BY IDOCK:   -7.96 KCAL/MOL
REMARK 924 INTRA-LIGAND FREE ENERGY PREDICTED BY IDOCK:   -0.80 KCAL/MOL
REMARK 927      BINDING AFFINITY PREDICTED BY RF-SCORE:    0.00 PKD
ROOT
HETATM    1  C   UNL     1     -14.107  15.217  72.632  1.00  0.00    -0.383 C  
HETATM    2  N   UNL     1     -12.977  16.093  72.963  1.00  0.00    -0.452 NA 
HETATM    3  C   UNL     1     -12.453  15.734  74.282  1.00  0.00    -0.654 C  
ENDROOT
BRANCH   2   4
HETATM    4  C   UNL     1     -11.948  15.980  71.908  1.00  0.00    -0.525 C  
BRANCH   4   5
HETATM    5  C   UNL     1     -12.495  15.786  70.480  1.00  0.00    -0.371 C  
BRANCH   5   6
HETATM    6  C   UNL     1     -11.909  14.572  69.819  1.00  0.00    -0.367 A  
HETATM    7  C   UNL     1     -12.044  13.265  70.251  1.00  0.00    -0.335 A  
HETATM    8  N   UNL     1     -11.325  12.459  69.413  1.00  0.00    -0.401 NA 
HETATM    9  C   UNL     1     -10.735  13.209  68.423  1.00  0.00    -0.253 A  
HETATM   10  H   UNL     1     -11.238  11.447  69.509  1.00  0.00     0.000 HD 
HETATM   11  C   UNL     1     -11.092  14.537  68.641  1.00  0.00    -0.272 A  
HETATM   12  C   UNL     1     -10.606  15.517  67.746  1.00  0.00    -0.281 A  
HETATM   13  C   UNL     1      -9.772  15.153  66.670  1.00  0.00    -0.274 A  
HETATM   14  C   UNL     1      -9.451  13.800  66.489  1.00  0.00    -0.282 A  
HETATM   15  C   UNL     1      -9.915  12.810  67.362  1.00  0.00    -0.212 A  
BRANCH  13  16
HETATM   16  C   UNL     1      -9.257  16.218  65.724  1.00  0.00    -0.116 C  
BRANCH  16  17
HETATM   17  S   UNL     1      -7.912  17.132  66.515  1.00  0.00    -0.314 S  
HETATM   18  O   UNL     1      -6.919  17.482  65.518  1.00  0.00    -0.271 OA 
HETATM   19  O   UNL     1      -7.538  16.486  67.753  1.00  0.00    -0.142 OA 
BRANCH  17  20
HETATM   20  N   UNL     1      -8.652  18.602  66.964  1.00  0.00    -0.269 N  
HETATM   21  C   UNL     1      -9.931  18.855  66.246  1.00  0.00    -0.388 C  
HETATM   22  C   UNL     1     -10.617  19.927  67.069  1.00  0.00    -0.533 C  
HETATM   23  C   UNL     1     -10.249  19.571  68.496  1.00  0.00    -0.517 C  
HETATM   24  C   UNL     1      -8.895  18.869  68.407  1.00  0.00    -0.344 C  
ENDBRANCH  17  20
ENDBRANCH  16  17
ENDBRANCH  13  16
ENDBRANCH   5   6
ENDBRANCH   4   5
ENDBRANCH   2   4
TORSDOF 6
ENDMDL
MODEL        7
REMARK 921   NORMALIZED FREE ENERGY PREDICTED BY IDOCK:   -6.02 KCAL/MOL
REMARK 922        TOTAL FREE ENERGY PREDICTED BY IDOCK:   -8.72 KCAL/MOL
REMARK 923 INTER-LIGAND FREE ENERGY PREDICTED BY IDOCK:   -8.32 KCAL/MOL
REMARK 924 INTRA-LIGAND FREE ENERGY PREDICTED BY IDOCK:   -0.40 KCAL/MOL
REMARK 927      BINDING AFFINITY PREDICTED BY RF-SCORE:    0.00 PKD
ROOT
HETATM    1  C   UNL     1     -12.240  14.422  64.264  1.00  0.00    -0.423 C  
HETATM    2  N   UNL     1     -12.275  13.036  64.743  1.00  0.00    -0.410 NA 
HETATM    3  C   UNL     1     -12.386  12.128  63.599  1.00  0.00    -0.568 C  
ENDROOT
BRANCH   2   4
HETATM    4  C   UNL     1     -11.066  12.766  65.549  1.00  0.00    -0.285 C  
BRANCH   4   5
HETATM    5  C   UNL     1     -11.292  11.881  66.790  1.00  0.00    -0.393 C  
BRANCH   5   6
HETATM    6  C   UNL     1     -11.732  12.688  67.977  1.00  0.00    -0.402 A  
HETATM    7  C   UNL     1     -11.809  14.068  68.041  1.00  0.00    -0.368 A  
HETATM    8  N   UNL     1     -12.201  14.419  69.303  1.00  0.00    -0.504 NA 
HETATM    9  C   UNL     1     -12.407  13.294  70.066  1.00  0.00    -0.200 A  
HETATM   10  H   UNL     1     -12.324  15.377  69.630  1.00  0.00     0.000 HD 
HETATM   11  C   UNL     1     -12.134  12.191  69.261  1.00  0.00    -0.234 A  
HETATM   12  C   UNL     1     -12.275  10.900  69.821  1.00  0.00    -0.381 A  
HETATM   13  C   UNL     1     -12.670  10.743  71.165  1.00  0.00    -0.532 A  
HETATM   14  C   UNL     1     -12.943  11.887  71.929  1.00  0.00    -0.434 A  
HETATM   15  C   UNL     1     -12.808  13.175  71.401  1.00  0.00    -0.401 A  
BRANCH  13  16
HETATM   16  C   UNL     1     -12.811   9.353  71.749  1.00  0.00    -0.399 C  
BRANCH  16  17
HETATM   17  S   UNL     1     -11.290   8.418  71.462  1.00  0.00    -0.295 S  
HETATM   18  O   UNL     1     -10.147   9.254  71.777  1.00  0.00    -0.293 OA 
HETATM   19  O   UNL     1     -11.376   7.707  70.206  1.00  0.00    -0.262 OA 
BRANCH  17  20
HETATM   20  N   UNL     1     -11.332   7.221  72.677  1.00  0.00    -0.298 N  
HETATM   21  C   UNL     1     -11.650   5.866  72.149  1.00  0.00    -0.256 C  
HETATM   22  C   UNL     1     -11.219   4.923  73.255  1.00  0.00    -0.423 C  
HETATM   23  C   UNL     1      -9.976   5.582  73.821  1.00  0.00    -0.197 C  
HETATM   24  C   UNL     1     -10.162   7.080  73.583  1.00  0.00    -0.358 C  
ENDBRANCH  17  20
ENDBRANCH  16  17
ENDBRANCH  13  16
ENDBRANCH   5   6
ENDBRANCH   4   5
ENDBRANCH   2   4
TORSDOF 6
ENDMDL
MODEL        8
REMARK 921   NORMALIZED FREE ENERGY PREDICTED BY IDOCK:   -6.02 KCAL/MOL
REMARK 922        TOTAL FREE ENERGY PREDICTED BY IDOCK:   -8.72 KCAL/MOL
REMARK 923 INTER-LIGAND FREE ENERGY PREDICTED BY IDOCK:   -8.00 KCAL/MOL
REMARK 924 INTRA-LIGAND FREE ENERGY PREDICTED BY IDOCK:   -0.72 KCAL/MOL
REMARK 927      BINDING AFFINITY PREDICTED BY RF-SCORE:    0.00 PKD
ROOT
HETATM    1  C   UNL     1     -13.015  15.768  73.479  1.00  0.00    -0.575 C  
HETATM    2  N   UNL     1     -13.107  15.711  72.015  1.00  0.00    -0.444 NA 
HETATM    3  C   UNL     1     -11.806  16.046  71.432  1.00  0.00    -0.470 C  
ENDROOT
BRANCH   2   4
HETATM    4  C   UNL     1     -13.567  14.367  71.607  1.00  0.00    -0.384 C  
BRANCH   4   5
HETATM    5  C   UNL     1     -12.841  13.193  72.293  1.00  0.00    -0.234 C  
BRANCH   5   6
HETATM    6  C   UNL     1     -12.665  12.028  71.362  1.00  0.00    -0.380 A  
HETATM    7  C   UNL     1     -13.076  10.728  71.597  1.00  0.00    -0.446 A  
HETATM    8  N   UNL     1     -12.688   9.956  70.538  1.00  0.00    -0.532 NA 
HETATM    9  C   UNL     1     -12.047  10.728  69.597  1.00  0.00    -0.289 A  
HETATM   10  H   UNL     1     -12.851   8.952  70.457  1.00  0.00     0.000 HD 
HETATM   11  C   UNL     1     -12.027  12.035  70.078  1.00  0.00    -0.400 A  
HETATM   12  C   UNL     1     -11.416  13.032  69.282  1.00  0.00    -0.348 A  
HETATM   13  C   UNL     1     -10.834  12.701  68.043  1.00  0.00    -0.249 A  
HETATM   14  C   UNL     1     -10.891  11.371  67.600  1.00  0.00    -0.286 A  
HETATM   15  C   UNL     1     -11.485  10.364  68.369  1.00  0.00    -0.227 A  
BRANCH  13  16
HETATM   16  C   UNL     1     -10.180  13.781  67.207  1.00  0.00    -0.253 C  
BRANCH  16  17
HETATM   17  S   UNL     1     -11.408  14.518  66.102  1.00  0.00    -0.350 S  
HETATM   18  O   UNL     1     -11.031  15.888  65.812  1.00  0.00    -0.278 OA 
HETATM   19  O   UNL     1     -12.741  14.186  66.554  1.00  0.00    -0.299 OA 
BRANCH  17  20
HETATM   20  N   UNL     1     -11.186  13.660  64.644  1.00  0.00    -0.358 N  
HETATM   21  C   UNL     1      -9.858  12.993  64.557  1.00  0.00     0.009 C  
HETATM   22  C   UNL     1     -10.025  11.971  63.450  1.00  0.00    -0.384 C  
HETATM   23  C   UNL     1     -11.451  11.487  63.623  1.00  0.00    -0.374 C  
HETATM   24  C   UNL     1     -12.210  12.662  64.239  1.00  0.00    -0.445 C  
ENDBRANCH  17  20
ENDBRANCH  16  17
ENDBRANCH  13  16
ENDBRANCH   5   6
ENDBRANCH   4   5
ENDBRANCH   2   4
TORSDOF 6
ENDMDL
MODEL        9
REMARK 921   NORMALIZED FREE ENERGY PREDICTED BY IDOCK:   -6.01 KCAL/MOL
REMARK 922        TOTAL FREE ENERGY PREDICTED BY IDOCK:   -8.71 KCAL/MOL
REMARK 923 INTER-LIGAND FREE ENERGY PREDICTED BY IDOCK:   -8.36 KCAL/MOL
REMARK 924 INTRA-LIGAND FREE ENERGY PREDICTED BY IDOCK:   -0.35 KCAL/MOL
REMARK 927      BINDING AFFINITY PREDICTED BY RF-SCORE:    0.00 PKD
ROOT
HETATM    1  C   UNL     1     -14.390  15.453  72.086  1.00  0.00    -0.544 C  
HETATM    2  N   UNL     1     -12.939  15.603  72.246  1.00  0.00    -0.418 NA 
HETATM    3  C   UNL     1     -12.611  15.674  73.671  1.00  0.00    -0.586 C  
ENDROOT
BRANCH   2   4
HETATM    4  C   UNL     1     -12.255  14.479  71.574  1.00  0.00    -0.347 C  
BRANCH   4   5
HETATM    5  C   UNL     1     -12.993  13.128  71.649  1.00  0.00    -0.429 C  
BRANCH   5   6
HETATM    6  C   UNL     1     -12.453  12.141  70.655  1.00  0.00    -0.330 A  
HETATM    7  C   UNL     1     -12.198  10.802  70.891  1.00  0.00    -0.384 A  
HETATM    8  N   UNL     1     -11.667  10.259  69.755  1.00  0.00    -0.401 NA 
HETATM    9  C   UNL     1     -11.587  11.210  68.765  1.00  0.00    -0.322 A  
HETATM   10  H   UNL     1     -11.372   9.287  69.656  1.00  0.00     0.000 HD 
HETATM   11  C   UNL     1     -12.084  12.399  69.293  1.00  0.00    -0.218 A  
HETATM   12  C   UNL     1     -12.110  13.542  68.461  1.00  0.00    -0.303 A  
HETATM   13  C   UNL     1     -11.631  13.474  67.137  1.00  0.00    -0.393 A  
HETATM   14  C   UNL     1     -11.151  12.249  66.652  1.00  0.00    -0.344 A  
HETATM   15  C   UNL     1     -11.110  11.104  67.455  1.00  0.00    -0.370 A  
BRANCH  13  16
HETATM   16  C   UNL     1     -11.663  14.710  66.262  1.00  0.00    -0.320 C  
BRANCH  16  17
HETATM   17  S   UNL     1     -10.102  15.609  66.428  1.00  0.00    -0.307 S  
HETATM   18  O   UNL     1      -9.553  15.862  65.110  1.00  0.00    -0.284 OA 
HETATM   19  O   UNL     1      -9.299  15.016  67.474  1.00  0.00    -0.191 OA 
BRANCH  17  20
HETATM   20  N   UNL     1     -10.590  17.131  67.024  1.00  0.00    -0.274 N  
HETATM   21  C   UNL     1      -9.823  17.559  68.226  1.00  0.00    -0.319 C  
HETATM   22  C   UNL     1     -10.083  19.050  68.324  1.00  0.00    -0.466 C  
HETATM   23  C   UNL     1     -10.132  19.499  66.877  1.00  0.00    -0.511 C  
HETATM   24  C   UNL     1     -10.626  18.287  66.089  1.00  0.00    -0.303 C  
ENDBRANCH  17  20
ENDBRANCH  16  17
ENDBRANCH  13  16
ENDBRANCH   5   6
ENDBRANCH   4   5
ENDBRANCH   2   4
TORSDOF 6
ENDMDL
MODEL       10
REMARK 921   NORMALIZED FREE ENERGY PREDICTED BY IDOCK:   -5.98 KCAL/MOL
REMARK 922        TOTAL FREE ENERGY PREDICTED BY IDOCK:   -8.66 KCAL/MOL
REMARK 923 INTER-LIGAND FREE ENERGY PREDICTED BY IDOCK:   -8.06 KCAL/MOL
REMARK 924 INTRA-LIGAND FREE ENERGY PREDICTED BY IDOCK:   -0.60 KCAL/MOL
REMARK 927      BINDING AFFINITY PREDICTED BY RF-SCORE:    0.00 PKD
ROOT
HETATM    1  C   UNL     1     -10.017  18.327  68.874  1.00  0.00    -0.339 C  
HETATM    2  N   UNL     1     -10.718  18.022  67.621  1.00  0.00    -0.398 NA 
HETATM    3  C   UNL     1     -10.181  18.861  66.547  1.00  0.00    -0.414 C  
ENDROOT
BRANCH   2   4
HETATM    4  C   UNL     1     -10.580  16.582  67.322  1.00  0.00    -0.285 C  
BRANCH   4   5
HETATM    5  C   UNL     1      -9.908  16.257  65.974  1.00  0.00    -0.371 C  
BRANCH   5   6
HETATM    6  C   UNL     1     -10.803  15.440  65.088  1.00  0.00    -0.447 A  
HETATM    7  C   UNL     1     -11.748  15.933  64.206  1.00  0.00    -0.132 A  
HETATM    8  N   UNL     1     -12.389  14.875  63.625  1.00  0.00    -1.053 NA 
HETATM    9  C   UNL     1     -11.868  13.690  64.091  1.00  0.00    -0.422 A  
HETATM   10  H   UNL     1     -13.145  14.952  62.944  1.00  0.00     0.000 HD 
HETATM   11  C   UNL     1     -10.862  14.009  65.001  1.00  0.00    -0.401 A  
HETATM   12  C   UNL     1     -10.164  12.951  65.625  1.00  0.00    -0.295 A  
HETATM   13  C   UNL     1     -10.491  11.610  65.340  1.00  0.00    -0.324 A  
HETATM   14  C   UNL     1     -11.505  11.344  64.408  1.00  0.00    -0.148 A  
HETATM   15  C   UNL     1     -12.215  12.372  63.778  1.00  0.00    -0.626 A  
BRANCH  13  16
HETATM   16  C   UNL     1      -9.735  10.490  66.023  1.00  0.00    -0.205 C  
BRANCH  16  17
HETATM   17  S   UNL     1     -10.303  10.330  67.732  1.00  0.00    -0.221 S  
HETATM   18  O   UNL     1     -11.740  10.515  67.779  1.00  0.00    -0.438 OA 
HETATM   19  O   UNL     1      -9.423  11.062  68.616  1.00  0.00    -0.184 OA 
BRANCH  17  20
HETATM   20  N   UNL     1     -10.040   8.680  68.078  1.00  0.00    -0.187 N  
HETATM   21  C   UNL     1     -10.453   8.300  69.457  1.00  0.00    -0.227 C  
HETATM   22  C   UNL     1     -10.552   6.788  69.415  1.00  0.00    -0.265 C  
HETATM   23  C   UNL     1     -11.090   6.505  68.026  1.00  0.00    -0.332 C  
HETATM   24  C   UNL     1     -10.597   7.658  67.153  1.00  0.00    -0.340 C  
ENDBRANCH  17  20
ENDBRANCH  16  17
ENDBRANCH  13  16
ENDBRANCH   5   6
ENDBRANCH   4   5
ENDBRANCH   2   4
TORSDOF 6
ENDMDL
MODEL       11
REMARK 921   NORMALIZED FREE ENERGY PREDICTED BY IDOCK:   -5.96 KCAL/MOL
REMARK 922        TOTAL FREE ENERGY PREDICTED BY IDOCK:   -8.63 KCAL/MOL
REMARK 923 INTER-LIGAND FREE ENERGY PREDICTED BY IDOCK:   -8.02 KCAL/MOL
REMARK 924 INTRA-LIGAND FREE ENERGY PREDICTED BY IDOCK:   -0.61 KCAL/MOL
REMARK 927      BINDING AFFINITY PREDICTED BY RF-SCORE:    0.00 PKD
ROOT
HETATM    1  C   UNL     1     -12.288  11.086  70.825  1.00  0.00    -0.398 C  
HETATM    2  N   UNL     1     -11.063  10.330  70.541  1.00  0.00    -0.315 NA 
HETATM    3  C   UNL     1     -11.014   9.142  71.396  1.00  0.00    -0.344 C  
ENDROOT
BRANCH   2   4
HETATM    4  C   UNL     1     -11.026   9.982  69.105  1.00  0.00    -0.220 C  
BRANCH   4   5
HETATM    5  C   UNL     1      -9.679  10.246  68.404  1.00  0.00    -0.165 C  
BRANCH   5   6
HETATM    6  C   UNL     1      -9.800  10.146  66.911  1.00  0.00    -0.244 A  
HETATM    7  C   UNL     1      -9.349   9.100  66.125  1.00  0.00    -0.228 A  
HETATM    8  N   UNL     1      -9.599   9.407  64.816  1.00  0.00    -0.425 NA 
HETATM    9  C   UNL     1     -10.227  10.626  64.726  1.00  0.00    -0.331 A  
HETATM   10  H   UNL     1      -9.354   8.815  64.022  1.00  0.00     0.000 HD 
HETATM   11  C   UNL     1     -10.380  11.111  66.022  1.00  0.00    -0.308 A  
HETATM   12  C   UNL     1     -11.008  12.366  66.199  1.00  0.00    -0.321 A  
HETATM   13  C   UNL     1     -11.453  13.106  65.086  1.00  0.00    -0.327 A  
HETATM   14  C   UNL     1     -11.285  12.567  63.802  1.00  0.00    -0.524 A  
HETATM   15  C   UNL     1     -10.663  11.331  63.599  1.00  0.00    -0.438 A  
BRANCH  13  16
HETATM   16  C   UNL     1     -12.120  14.450  65.295  1.00  0.00    -0.380 C  
BRANCH  16  17
HETATM   17  S   UNL     1     -10.873  15.759  65.237  1.00  0.00    -0.374 S  
HETATM   18  O   UNL     1     -11.237  16.723  64.218  1.00  0.00    -1.163 OA 
HETATM   19  O   UNL     1      -9.548  15.182  65.285  1.00  0.00    -0.215 OA 
BRANCH  17  20
HETATM   20  N   UNL     1     -11.082  16.563  66.727  1.00  0.00     0.064 N  
HETATM   21  C   UNL     1     -10.940  15.660  67.902  1.00  0.00    -0.319 C  
HETATM   22  C   UNL     1     -10.724  16.599  69.073  1.00  0.00    -0.343 C  
HETATM   23  C   UNL     1      -9.889  17.718  68.482  1.00  0.00    -0.355 C  
HETATM   24  C   UNL     1     -10.271  17.779  67.004  1.00  0.00    -0.346 C  
ENDBRANCH  17  20
ENDBRANCH  16  17
ENDBRANCH  13  16
ENDBRANCH   5   6
ENDBRANCH   4   5
ENDBRANCH   2   4
TORSDOF 6
ENDMDL
MODEL       12
REMARK 921   NORMALIZED FREE ENERGY PREDICTED BY IDOCK:   -5.94 KCAL/MOL
REMARK 922        TOTAL FREE ENERGY PREDICTED BY IDOCK:   -8.62 KCAL/MOL
REMARK 923 INTER-LIGAND FREE ENERGY PREDICTED BY IDOCK:   -7.97 KCAL/MOL
REMARK 924 INTRA-LIGAND FREE ENERGY PREDICTED BY IDOCK:   -0.65 KCAL/MOL
REMARK 927      BINDING AFFINITY PREDICTED BY RF-SCORE:    0.00 PKD
ROOT
HETATM    1  C   UNL     1     -13.608  13.506  72.484  1.00  0.00    -0.569 C  
HETATM    2  N   UNL     1     -13.522  14.951  72.725  1.00  0.00    -0.456 NA 
HETATM    3  C   UNL     1     -12.467  15.218  73.706  1.00  0.00    -0.615 C  
ENDROOT
BRANCH   2   4
HETATM    4  C   UNL     1     -13.276  15.646  71.444  1.00  0.00    -0.465 C  
BRANCH   4   5
HETATM    5  C   UNL     1     -11.802  15.691  70.998  1.00  0.00    -0.442 C  
BRANCH   5   6
HETATM    6  C   UNL     1     -11.636  15.244  69.575  1.00  0.00    -0.339 A  
HETATM    7  C   UNL     1     -11.474  16.068  68.476  1.00  0.00    -0.357 A  
HETATM    8  N   UNL     1     -11.409  15.285  67.357  1.00  0.00    -0.318 NA 
HETATM    9  C   UNL     1     -11.502  13.957  67.700  1.00  0.00    -0.324 A  
HETATM   10  H   UNL     1     -11.306  15.636  66.404  1.00  0.00     0.000 HD 
HETATM   11  C   UNL     1     -11.632  13.896  69.086  1.00  0.00    -0.359 A  
HETATM   12  C   UNL     1     -11.746  12.624  69.692  1.00  0.00    -0.373 A  
HETATM   13  C   UNL     1     -11.739  11.454  68.907  1.00  0.00    -0.409 A  
HETATM   14  C   UNL     1     -11.595  11.570  67.517  1.00  0.00    -0.322 A  
HETATM   15  C   UNL     1     -11.485  12.817  66.891  1.00  0.00    -0.396 A  
BRANCH  13  16
HETATM   16  C   UNL     1     -11.866  10.100  69.575  1.00  0.00     0.003 C  
BRANCH  16  17
HETATM   17  S   UNL     1     -10.363   9.138  69.283  1.00  0.00    -0.219 S  
HETATM   18  O   UNL     1      -9.206   9.998  69.438  1.00  0.00    -0.191 OA 
HETATM   19  O   UNL     1     -10.528   8.306  68.112  1.00  0.00    -0.211 OA 
BRANCH  17  20
HETATM   20  N   UNL     1     -10.321   8.068  70.611  1.00  0.00    -0.200 N  
HETATM   21  C   UNL     1     -10.797   8.690  71.877  1.00  0.00    -0.348 C  
HETATM   22  C   UNL     1     -11.092   7.513  72.785  1.00  0.00    -0.416 C  
HETATM   23  C   UNL     1     -11.644   6.463  71.840  1.00  0.00    -0.367 C  
HETATM   24  C   UNL     1     -10.994   6.748  70.487  1.00  0.00    -0.280 C  
ENDBRANCH  17  20
ENDBRANCH  16  17
ENDBRANCH  13  16
ENDBRANCH   5   6
ENDBRANCH   4   5
ENDBRANCH   2   4
TORSDOF 6
ENDMDL
MODEL       13
REMARK 921   NORMALIZED FREE ENERGY PREDICTED BY IDOCK:   -5.93 KCAL/MOL
REMARK 922        TOTAL FREE ENERGY PREDICTED BY IDOCK:   -8.60 KCAL/MOL
REMARK 923 INTER-LIGAND FREE ENERGY PREDICTED BY IDOCK:   -7.82 KCAL/MOL
REMARK 924 INTRA-LIGAND FREE ENERGY PREDICTED BY IDOCK:   -0.78 KCAL/MOL
REMARK 927      BINDING AFFINITY PREDICTED BY RF-SCORE:    0.00 PKD
ROOT
HETATM    1  C   UNL     1     -13.700  13.658  72.221  1.00  0.00    -0.589 C  
HETATM    2  N   UNL     1     -13.773  15.119  72.101  1.00  0.00    -0.429 NA 
HETATM    3  C   UNL     1     -13.212  15.735  73.305  1.00  0.00    -0.581 C  
ENDROOT
BRANCH   2   4
HETATM    4  C   UNL     1     -13.061  15.544  70.878  1.00  0.00    -0.448 C  
BRANCH   4   5
HETATM    5  C   UNL     1     -11.955  14.583  70.399  1.00  0.00    -0.386 C  
BRANCH   5   6
HETATM    6  C   UNL     1     -11.636  14.781  68.945  1.00  0.00    -0.340 A  
HETATM    7  C   UNL     1     -11.951  13.912  67.916  1.00  0.00    -0.358 A  
HETATM    8  N   UNL     1     -11.447  14.423  66.752  1.00  0.00    -0.357 NA 
HETATM    9  C   UNL     1     -10.823  15.624  66.992  1.00  0.00    -0.294 A  
HETATM   10  H   UNL     1     -11.522  13.976  65.838  1.00  0.00     0.000 HD 
HETATM   11  C   UNL     1     -10.934  15.884  68.356  1.00  0.00    -0.331 A  
HETATM   12  C   UNL     1     -10.367  17.078  68.859  1.00  0.00    -0.337 A  
HETATM   13  C   UNL     1      -9.695  17.969  67.998  1.00  0.00    -0.309 A  
HETATM   14  C   UNL     1      -9.621  17.665  66.631  1.00  0.00    -0.301 A  
HETATM   15  C   UNL     1     -10.170  16.489  66.108  1.00  0.00    -0.360 A  
BRANCH  13  16
HETATM   16  C   UNL     1      -9.089  19.240  68.556  1.00  0.00    -0.377 C  
BRANCH  16  17
HETATM   17  S   UNL     1      -7.340  18.966  68.923  1.00  0.00    -0.284 S  
HETATM   18  O   UNL     1      -7.082  17.541  68.991  1.00  0.00    -0.249 OA 
HETATM   19  O   UNL     1      -6.910  19.858  69.977  1.00  0.00    -0.295 OA 
BRANCH  17  20
HETATM   20  N   UNL     1      -6.555  19.508  67.508  1.00  0.00    -0.210 N  
HETATM   21  C   UNL     1      -6.165  18.398  66.596  1.00  0.00    -0.173 C  
HETATM   22  C   UNL     1      -5.905  19.080  65.267  1.00  0.00    -0.265 C  
HETATM   23  C   UNL     1      -6.946  20.182  65.222  1.00  0.00    -0.300 C  
HETATM   24  C   UNL     1      -7.216  20.551  66.679  1.00  0.00    -0.249 C  
ENDBRANCH  17  20
ENDBRANCH  16  17
ENDBRANCH  13  16
ENDBRANCH   5   6
ENDBRANCH   4   5
ENDBRANCH   2   4
TORSDOF 6
ENDMDL
MODEL       14
REMARK 921   NORMALIZED FREE ENERGY PREDICTED BY IDOCK:   -5.90 KCAL/MOL
REMARK 922        TOTAL FREE ENERGY PREDICTED BY IDOCK:   -8.56 KCAL/MOL
REMARK 923 INTER-LIGAND FREE ENERGY PREDICTED BY IDOCK:   -7.94 KCAL/MOL
REMARK 924 INTRA-LIGAND FREE ENERGY PREDICTED BY IDOCK:   -0.62 KCAL/MOL
REMARK 927      BINDING AFFINITY PREDICTED BY RF-SCORE:    0.00 PKD
ROOT
HETATM    1  C   UNL     1     -12.566  15.518  70.475  1.00  0.00    -0.416 C  
HETATM    2  N   UNL     1     -12.943  15.301  71.876  1.00  0.00    -0.354 NA 
HETATM    3  C   UNL     1     -14.380  15.537  72.036  1.00  0.00    -0.496 C  
ENDROOT
BRANCH   2   4
HETATM    4  C   UNL     1     -12.559  13.931  72.278  1.00  0.00    -0.126 C  
BRANCH   4   5
HETATM    5  C   UNL     1     -13.606  12.843  71.970  1.00  0.00    -0.499 C  
BRANCH   5   6
HETATM    6  C   UNL     1     -12.962  11.562  71.522  1.00  0.00    -0.485 A  
HETATM    7  C   UNL     1     -13.102  10.326  72.127  1.00  0.00    -0.343 A  
HETATM    8  N   UNL     1     -12.321   9.428  71.454  1.00  0.00    -0.337 NA 
HETATM    9  C   UNL     1     -11.686  10.045  70.402  1.00  0.00    -0.286 A  
HETATM   10  H   UNL     1     -12.224   8.442  71.697  1.00  0.00     0.000 HD 
HETATM   11  C   UNL     1     -12.077  11.382  70.409  1.00  0.00    -0.473 A  
HETATM   12  C   UNL     1     -11.555  12.237  69.411  1.00  0.00    -0.378 A  
HETATM   13  C   UNL     1     -10.654  11.746  68.447  1.00  0.00    -0.239 A  
HETATM   14  C   UNL     1     -10.301  10.388  68.478  1.00  0.00    -0.197 A  
HETATM   15  C   UNL     1     -10.799   9.521  69.456  1.00  0.00    -0.243 A  
BRANCH  13  16
HETATM   16  C   UNL     1     -10.102  12.678  67.389  1.00  0.00    -0.218 C  
BRANCH  16  17
HETATM   17  S   UNL     1     -10.967  12.400  65.825  1.00  0.00    -0.311 S  
HETATM   18  O   UNL     1     -12.389  12.283  66.079  1.00  0.00    -0.609 OA 
HETATM   19  O   UNL     1     -10.261  11.412  65.040  1.00  0.00    -0.251 OA 
BRANCH  17  20
HETATM   20  N   UNL     1     -10.766  13.879  64.999  1.00  0.00    -0.362 N  
HETATM   21  C   UNL     1     -12.050  14.452  64.509  1.00  0.00    -0.481 C  
HETATM   22  C   UNL     1     -11.724  15.903  64.217  1.00  0.00    -0.132 C  
HETATM   23  C   UNL     1     -10.739  16.274  65.308  1.00  0.00    -0.349 C  
HETATM   24  C   UNL     1     -10.019  14.976  65.670  1.00  0.00    -0.355 C  
ENDBRANCH  17  20
ENDBRANCH  16  17
ENDBRANCH  13  16
ENDBRANCH   5   6
ENDBRANCH   4   5
ENDBRANCH   2   4
TORSDOF 6
ENDMDL
MODEL       15
REMARK 921   NORMALIZED FREE ENERGY PREDICTED BY IDOCK:   -5.89 KCAL/MOL
REMARK 922        TOTAL FREE ENERGY PREDICTED BY IDOCK:   -8.54 KCAL/MOL
REMARK 923 INTER-LIGAND FREE ENERGY PREDICTED BY IDOCK:   -8.61 KCAL/MOL
REMARK 924 INTRA-LIGAND FREE ENERGY PREDICTED BY IDOCK:    0.07 KCAL/MOL
REMARK 927      BINDING AFFINITY PREDICTED BY RF-SCORE:    0.00 PKD
ROOT
HETATM    1  C   UNL     1      -6.242  18.971  67.620  1.00  0.00    -0.203 C  
HETATM    2  N   UNL     1      -7.065  20.161  67.376  1.00  0.00    -0.255 NA 
HETATM    3  C   UNL     1      -6.196  21.328  67.209  1.00  0.00    -0.351 C  
ENDROOT
BRANCH   2   4
HETATM    4  C   UNL     1      -7.917  19.930  66.190  1.00  0.00    -0.328 C  
BRANCH   4   5
HETATM    5  C   UNL     1      -9.432  20.050  66.443  1.00  0.00    -0.512 C  
BRANCH   5   6
HETATM    6  C   UNL     1      -9.924  18.995  67.392  1.00  0.00    -0.410 A  
HETATM    7  C   UNL     1     -10.137  19.155  68.749  1.00  0.00    -0.375 A  
HETATM    8  N   UNL     1     -10.534  17.954  69.267  1.00  0.00    -0.368 NA 
HETATM    9  C   UNL     1     -10.609  17.009  68.271  1.00  0.00    -0.372 A  
HETATM   10  H   UNL     1     -10.744  17.784  70.251  1.00  0.00     0.000 HD 
HETATM   11  C   UNL     1     -10.245  17.632  67.080  1.00  0.00    -0.342 A  
HETATM   12  C   UNL     1     -10.244  16.862  65.894  1.00  0.00    -0.330 A  
HETATM   13  C   UNL     1     -10.590  15.497  65.927  1.00  0.00    -0.350 A  
HETATM   14  C   UNL     1     -10.959  14.920  67.151  1.00  0.00    -0.323 A  
HETATM   15  C   UNL     1     -10.965  15.658  68.340  1.00  0.00    -0.308 A  
BRANCH  13  16
HETATM   16  C   UNL     1     -10.578  14.687  64.647  1.00  0.00    -0.240 C  
BRANCH  16  17
HETATM   17  S   UNL     1     -12.139  13.788  64.485  1.00  0.00    -0.426 S  
HETATM   18  O   UNL     1     -12.630  13.921  63.128  1.00  0.00    -0.775 OA 
HETATM   19  O   UNL     1     -12.990  14.067  65.621  1.00  0.00    -0.608 OA 
BRANCH  17  20
HETATM   20  N   UNL     1     -11.669  12.157  64.648  1.00  0.00    -0.347 N  
HETATM   21  C   UNL     1     -10.597  11.761  63.693  1.00  0.00    -0.439 C  
HETATM   22  C   UNL     1     -10.036  10.477  64.270  1.00  0.00    -0.380 C  
HETATM   23  C   UNL     1     -10.098  10.703  65.768  1.00  0.00    -0.327 C  
HETATM   24  C   UNL     1     -11.270  11.658  65.991  1.00  0.00    -0.240 C  
ENDBRANCH  17  20
ENDBRANCH  16  17
ENDBRANCH  13  16
ENDBRANCH   5   6
ENDBRANCH   4   5
ENDBRANCH   2   4
TORSDOF 6
ENDMDL
MODEL       16
REMARK 921   NORMALIZED FREE ENERGY PREDICTED BY IDOCK:   -5.86 KCAL/MOL
REMARK 922        TOTAL FREE ENERGY PREDICTED BY IDOCK:   -8.51 KCAL/MOL
REMARK 923 INTER-LIGAND FREE ENERGY PREDICTED BY IDOCK:   -8.41 KCAL/MOL
REMARK 924 INTRA-LIGAND FREE ENERGY PREDICTED BY IDOCK:   -0.09 KCAL/MOL
REMARK 927      BINDING AFFINITY PREDICTED BY RF-SCORE:    0.00 PKD
ROOT
HETATM    1  C   UNL     1      -9.260  15.659  69.207  1.00  0.00    -0.269 C  
HETATM    2  N   UNL     1     -10.462  16.429  69.548  1.00  0.00    -0.299 NA 
HETATM    3  C   UNL     1     -11.382  16.424  68.409  1.00  0.00    -0.268 C  
ENDROOT
BRANCH   2   4
HETATM    4  C   UNL     1     -11.080  15.857  70.763  1.00  0.00    -0.322 C  
BRANCH   4   5
HETATM    5  C   UNL     1     -12.579  15.523  70.636  1.00  0.00    -0.493 C  
BRANCH   5   6
HETATM    6  C   UNL     1     -12.918  14.220  71.301  1.00  0.00    -0.422 A  
HETATM    7  C   UNL     1     -13.625  14.067  72.480  1.00  0.00    -0.566 A  
HETATM    8  N   UNL     1     -13.679  12.734  72.779  1.00  0.00    -0.698 NA 
HETATM    9  C   UNL     1     -13.040  12.002  71.806  1.00  0.00    -0.355 A  
HETATM   10  H   UNL     1     -14.130  12.339  73.605  1.00  0.00     0.000 HD 
HETATM   11  C   UNL     1     -12.561  12.904  70.858  1.00  0.00    -0.355 A  
HETATM   12  C   UNL     1     -11.859  12.392  69.742  1.00  0.00    -0.387 A  
HETATM   13  C   UNL     1     -11.641  11.007  69.608  1.00  0.00    -0.390 A  
HETATM   14  C   UNL     1     -12.153  10.142  70.586  1.00  0.00    -0.411 A  
HETATM   15  C   UNL     1     -12.848  10.621  71.701  1.00  0.00    -0.570 A  
BRANCH  13  16
HETATM   16  C   UNL     1     -10.882  10.478  68.408  1.00  0.00    -0.240 C  
BRANCH  16  17
HETATM   17  S   UNL     1     -10.895  11.717  67.090  1.00  0.00    -0.276 S  
HETATM   18  O   UNL     1      -9.714  12.549  67.203  1.00  0.00    -0.199 OA 
HETATM   19  O   UNL     1     -12.214  12.298  66.971  1.00  0.00    -0.522 OA 
BRANCH  17  20
HETATM   20  N   UNL     1     -10.670  10.786  65.678  1.00  0.00    -0.133 N  
HETATM   21  C   UNL     1     -10.501  11.616  64.453  1.00  0.00    -0.322 C  
HETATM   22  C   UNL     1      -9.897  10.666  63.438  1.00  0.00    -0.376 C  
HETATM   23  C   UNL     1      -8.976   9.795  64.269  1.00  0.00    -0.276 C  
HETATM   24  C   UNL     1      -9.597   9.756  65.665  1.00  0.00    -0.263 C  
ENDBRANCH  17  20
ENDBRANCH  16  17
ENDBRANCH  13  16
ENDBRANCH   5   6
ENDBRANCH   4   5
ENDBRANCH   2   4
TORSDOF 6
ENDMDL
MODEL       17
REMARK 921   NORMALIZED FREE ENERGY PREDICTED BY IDOCK:   -5.85 KCAL/MOL
REMARK 922        TOTAL FREE ENERGY PREDICTED BY IDOCK:   -8.49 KCAL/MOL
REMARK 923 INTER-LIGAND FREE ENERGY PREDICTED BY IDOCK:   -7.99 KCAL/MOL
REMARK 924 INTRA-LIGAND FREE ENERGY PREDICTED BY IDOCK:   -0.50 KCAL/MOL
REMARK 927      BINDING AFFINITY PREDICTED BY RF-SCORE:    0.00 PKD
ROOT
HETATM    1  C   UNL     1     -13.996  15.065  72.057  1.00  0.00    -0.503 C  
HETATM    2  N   UNL     1     -12.954  15.944  72.599  1.00  0.00    -0.462 NA 
HETATM    3  C   UNL     1     -12.530  15.445  73.909  1.00  0.00    -0.629 C  
ENDROOT
BRANCH   2   4
HETATM    4  C   UNL     1     -11.829  16.015  71.642  1.00  0.00    -0.507 C  
BRANCH   4   5
HETATM    5  C   UNL     1     -11.992  15.149  70.378  1.00  0.00    -0.364 C  
BRANCH   5   6
HETATM    6  C   UNL     1     -11.338  15.780  69.183  1.00  0.00    -0.349 A  
HETATM    7  C   UNL     1     -10.758  17.035  69.139  1.00  0.00    -0.253 A  
HETATM    8  N   UNL     1     -10.321  17.263  67.864  1.00  0.00    -0.344 NA 
HETATM    9  C   UNL     1     -10.583  16.171  67.070  1.00  0.00    -0.292 A  
HETATM   10  H   UNL     1      -9.867  18.119  67.547  1.00  0.00     0.000 HD 
HETATM   11  C   UNL     1     -11.209  15.218  67.870  1.00  0.00    -0.333 A  
HETATM   12  C   UNL     1     -11.583  13.988  67.279  1.00  0.00    -0.396 A  
HETATM   13  C   UNL     1     -11.337  13.747  65.913  1.00  0.00    -0.311 A  
HETATM   14  C   UNL     1     -10.694  14.736  65.155  1.00  0.00    -0.433 A  
HETATM   15  C   UNL     1     -10.317  15.963  65.713  1.00  0.00    -0.396 A  
BRANCH  13  16
HETATM   16  C   UNL     1     -11.748  12.426  65.297  1.00  0.00    -0.390 C  
BRANCH  16  17
HETATM   17  S   UNL     1     -10.328  11.306  65.261  1.00  0.00    -0.286 S  
HETATM   18  O   UNL     1      -9.190  11.956  65.880  1.00  0.00    -0.217 OA 
HETATM   19  O   UNL     1     -10.222  10.686  63.959  1.00  0.00    -0.341 OA 
BRANCH  17  20
HETATM   20  N   UNL     1     -10.786  10.061  66.333  1.00  0.00    -0.063 N  
HETATM   21  C   UNL     1      -9.849   8.904  66.316  1.00  0.00    -0.285 C  
HETATM   22  C   UNL     1     -10.166   8.148  67.592  1.00  0.00    -0.296 C  
HETATM   23  C   UNL     1     -10.486   9.246  68.587  1.00  0.00    -0.236 C  
HETATM   24  C   UNL     1     -11.043  10.402  67.757  1.00  0.00    -0.299 C  
ENDBRANCH  17  20
ENDBRANCH  16  17
ENDBRANCH  13  16
ENDBRANCH   5   6
ENDBRANCH   4   5
ENDBRANCH   2   4
TORSDOF 6
ENDMDL
MODEL       18
REMARK 921   NORMALIZED FREE ENERGY PREDICTED BY IDOCK:   -5.81 KCAL/MOL
REMARK 922        TOTAL FREE ENERGY PREDICTED BY IDOCK:   -8.44 KCAL/MOL
REMARK 923 INTER-LIGAND FREE ENERGY PREDICTED BY IDOCK:   -7.96 KCAL/MOL
REMARK 924 INTRA-LIGAND FREE ENERGY PREDICTED BY IDOCK:   -0.48 KCAL/MOL
REMARK 927      BINDING AFFINITY PREDICTED BY RF-SCORE:    0.00 PKD
ROOT
HETATM    1  C   UNL     1     -14.282  13.979  72.091  1.00  0.00    -0.535 C  
HETATM    2  N   UNL     1     -13.815  15.362  71.937  1.00  0.00    -0.490 NA 
HETATM    3  C   UNL     1     -13.127  15.782  73.160  1.00  0.00    -0.564 C  
ENDROOT
BRANCH   2   4
HETATM    4  C   UNL     1     -12.939  15.452  70.750  1.00  0.00    -0.453 C  
BRANCH   4   5
HETATM    5  C   UNL     1     -11.527  16.008  71.021  1.00  0.00    -0.460 C  
BRANCH   5   6
HETATM    6  C   UNL     1     -10.772  16.257  69.748  1.00  0.00    -0.345 A  
HETATM    7  C   UNL     1     -10.522  17.492  69.177  1.00  0.00    -0.190 A  
HETATM    8  N   UNL     1      -9.853  17.295  68.001  1.00  0.00    -0.272 NA 
HETATM    9  C   UNL     1      -9.637  15.952  67.797  1.00  0.00    -0.218 A  
HETATM   10  H   UNL     1      -9.556  18.037  67.367  1.00  0.00     0.000 HD 
HETATM   11  C   UNL     1     -10.190  15.274  68.880  1.00  0.00    -0.232 A  
HETATM   12  C   UNL     1     -10.097  13.864  68.907  1.00  0.00    -0.106 A  
HETATM   13  C   UNL     1      -9.470  13.168  67.853  1.00  0.00    -0.218 A  
HETATM   14  C   UNL     1      -8.920  13.900  66.791  1.00  0.00    -0.206 A  
HETATM   15  C   UNL     1      -9.002  15.296  66.738  1.00  0.00    -0.291 A  
BRANCH  13  16
HETATM   16  C   UNL     1      -9.383  11.657  67.897  1.00  0.00    -0.174 C  
BRANCH  16  17
HETATM   17  S   UNL     1     -10.814  10.944  67.051  1.00  0.00    -0.243 S  
HETATM   18  O   UNL     1     -12.020  11.286  67.780  1.00  0.00    -0.637 OA 
HETATM   19  O   UNL     1     -10.531   9.579  66.666  1.00  0.00    -0.231 OA 
BRANCH  17  20
HETATM   20  N   UNL     1     -10.889  11.831  65.596  1.00  0.00    -0.286 N  
HETATM   21  C   UNL     1     -10.471  11.037  64.407  1.00  0.00    -0.354 C  
HETATM   22  C   UNL     1     -11.009  11.820  63.226  1.00  0.00    -0.387 C  
HETATM   23  C   UNL     1     -12.330  12.365  63.732  1.00  0.00    -0.625 C  
HETATM   24  C   UNL     1     -12.159  12.519  65.243  1.00  0.00    -0.444 C  
ENDBRANCH  17  20
ENDBRANCH  16  17
ENDBRANCH  13  16
ENDBRANCH   5   6
ENDBRANCH   4   5
ENDBRANCH   2   4
TORSDOF 6
ENDMDL
MODEL       19
REMARK 921   NORMALIZED FREE ENERGY PREDICTED BY IDOCK:   -5.81 KCAL/MOL
REMARK 922        TOTAL FREE ENERGY PREDICTED BY IDOCK:   -8.43 KCAL/MOL
REMARK 923 INTER-LIGAND FREE ENERGY PREDICTED BY IDOCK:   -8.09 KCAL/MOL
REMARK 924 INTRA-LIGAND FREE ENERGY PREDICTED BY IDOCK:   -0.34 KCAL/MOL
REMARK 927      BINDING AFFINITY PREDICTED BY RF-SCORE:    0.00 PKD
ROOT
HETATM    1  C   UNL     1      -9.976  19.608  68.786  1.00  0.00    -0.451 C  
HETATM    2  N   UNL     1     -10.709  19.037  67.650  1.00  0.00    -0.438 NA 
HETATM    3  C   UNL     1     -10.331  19.742  66.423  1.00  0.00    -0.508 C  
ENDROOT
BRANCH   2   4
HETATM    4  C   UNL     1     -10.428  17.589  67.566  1.00  0.00    -0.355 C  
BRANCH   4   5
HETATM    5  C   UNL     1      -9.716  17.135  66.277  1.00  0.00    -0.296 C  
BRANCH   5   6
HETATM    6  C   UNL     1     -10.547  16.159  65.495  1.00  0.00    -0.394 A  
HETATM    7  C   UNL     1     -11.385  16.465  64.439  1.00  0.00    -0.027 A  
HETATM    8  N   UNL     1     -12.001  15.315  64.030  1.00  0.00    -0.934 NA 
HETATM    9  C   UNL     1     -11.567  14.251  64.785  1.00  0.00    -0.401 A  
HETATM   10  H   UNL     1     -12.684  15.256  63.275  1.00  0.00     0.000 HD 
HETATM   11  C   UNL     1     -10.645  14.744  65.705  1.00  0.00    -0.353 A  
HETATM   12  C   UNL     1     -10.045  13.833  66.606  1.00  0.00    -0.277 A  
HETATM   13  C   UNL     1     -10.388  12.467  66.576  1.00  0.00    -0.248 A  
HETATM   14  C   UNL     1     -11.314  12.021  65.622  1.00  0.00    -0.381 A  
HETATM   15  C   UNL     1     -11.925  12.900  64.722  1.00  0.00    -0.445 A  
BRANCH  13  16
HETATM   16  C   UNL     1      -9.738  11.508  67.552  1.00  0.00    -0.179 C  
BRANCH  16  17
HETATM   17  S   UNL     1     -10.990  10.389  68.224  1.00  0.00    -0.271 S  
HETATM   18  O   UNL     1     -10.985   9.153  67.467  1.00  0.00    -0.176 OA 
HETATM   19  O   UNL     1     -12.217  11.113  68.472  1.00  0.00    -0.600 OA 
BRANCH  17  20
HETATM   20  N   UNL     1     -10.370   9.989  69.762  1.00  0.00    -0.240 N  
HETATM   21  C   UNL     1     -11.431   9.825  70.794  1.00  0.00    -0.342 C  
HETATM   22  C   UNL     1     -10.746   9.071  71.918  1.00  0.00    -0.401 C  
HETATM   23  C   UNL     1      -9.810   8.125  71.193  1.00  0.00    -0.207 C  
HETATM   24  C   UNL     1      -9.453   8.825  69.882  1.00  0.00    -0.169 C  
ENDBRANCH  17  20
ENDBRANCH  16  17
ENDBRANCH  13  16
ENDBRANCH   5   6
ENDBRANCH   4   5
ENDBRANCH   2   4
TORSDOF 6
ENDMDL
MODEL       20
REMARK 921   NORMALIZED FREE ENERGY PREDICTED BY IDOCK:   -5.80 KCAL/MOL
REMARK 922        TOTAL FREE ENERGY PREDICTED BY IDOCK:   -8.43 KCAL/MOL
REMARK 923 INTER-LIGAND FREE ENERGY PREDICTED BY IDOCK:   -7.83 KCAL/MOL
REMARK 924 INTRA-LIGAND FREE ENERGY PREDICTED BY IDOCK:   -0.60 KCAL/MOL
REMARK 927      BINDING AFFINITY PREDICTED BY RF-SCORE:    0.00 PKD
ROOT
HETATM    1  C   UNL     1     -10.529  11.993  63.357  1.00  0.00    -0.433 C  
HETATM    2  N   UNL     1     -10.447  12.999  64.423  1.00  0.00    -0.399 NA 
HETATM    3  C   UNL     1     -11.524  13.977  64.253  1.00  0.00    -0.297 C  
ENDROOT
BRANCH   2   4
HETATM    4  C   UNL     1     -10.514  12.325  65.736  1.00  0.00    -0.255 C  
BRANCH   4   5
HETATM    5  C   UNL     1     -11.899  12.345  66.411  1.00  0.00    -0.421 C  
BRANCH   5   6
HETATM    6  C   UNL     1     -11.805  12.700  67.867  1.00  0.00    -0.388 A  
HETATM    7  C   UNL     1     -12.017  11.841  68.930  1.00  0.00    -0.271 A  
HETATM    8  N   UNL     1     -11.889  12.553  70.090  1.00  0.00    -0.510 NA 
HETATM    9  C   UNL     1     -11.573  13.862  69.812  1.00  0.00    -0.270 A  
HETATM   10  H   UNL     1     -12.009  12.168  71.027  1.00  0.00     0.000 HD 
HETATM   11  C   UNL     1     -11.500  13.985  68.426  1.00  0.00    -0.340 A  
HETATM   12  C   UNL     1     -11.185  15.251  67.882  1.00  0.00    -0.333 A  
HETATM   13  C   UNL     1     -10.964  16.358  68.725  1.00  0.00    -0.344 A  
HETATM   14  C   UNL     1     -11.038  16.177  70.114  1.00  0.00    -0.373 A  
HETATM   15  C   UNL     1     -11.353  14.937  70.679  1.00  0.00    -0.275 A  
BRANCH  13  16
HETATM   16  C   UNL     1     -10.631  17.707  68.123  1.00  0.00    -0.356 C  
BRANCH  16  17
HETATM   17  S   UNL     1      -8.960  17.666  67.432  1.00  0.00    -0.234 S  
HETATM   18  O   UNL     1      -9.039  17.732  65.986  1.00  0.00    -0.502 OA 
HETATM   19  O   UNL     1      -8.176  16.649  68.096  1.00  0.00    -0.181 OA 
BRANCH  17  20
HETATM   20  N   UNL     1      -8.298  19.159  67.925  1.00  0.00    -0.290 N  
HETATM   21  C   UNL     1      -6.919  19.032  68.474  1.00  0.00    -0.274 C  
HETATM   22  C   UNL     1      -6.370  20.445  68.436  1.00  0.00    -0.350 C  
HETATM   23  C   UNL     1      -6.962  21.024  67.166  1.00  0.00    -0.411 C  
HETATM   24  C   UNL     1      -8.287  20.290  66.960  1.00  0.00    -0.315 C  
ENDBRANCH  17  20
ENDBRANCH  16  17
ENDBRANCH  13  16
ENDBRANCH   5   6
ENDBRANCH   4   5
ENDBRANCH   2   4
TORSDOF 6
ENDMDL
MODEL       21
REMARK 921   NORMALIZED FREE ENERGY PREDICTED BY IDOCK:   -5.80 KCAL/MOL
REMARK 922        TOTAL FREE ENERGY PREDICTED BY IDOCK:   -8.43 KCAL/MOL
REMARK 923 INTER-LIGAND FREE ENERGY PREDICTED BY IDOCK:   -7.74 KCAL/MOL
REMARK 924 INTRA-LIGAND FREE ENERGY PREDICTED BY IDOCK:   -0.68 KCAL/MOL
REMARK 927      BINDING AFFINITY PREDICTED BY RF-SCORE:    0.00 PKD
ROOT
HETATM    1  C   UNL     1     -10.481  11.196  64.547  1.00  0.00    -0.350 C  
HETATM    2  N   UNL     1     -11.306  12.390  64.326  1.00  0.00    -0.336 NA 
HETATM    3  C   UNL     1     -12.366  12.079  63.365  1.00  0.00    -0.523 C  
ENDROOT
BRANCH   2   4
HETATM    4  C   UNL     1     -11.849  12.854  65.620  1.00  0.00    -0.417 C  
BRANCH   4   5
HETATM    5  C   UNL     1     -11.076  12.373  66.863  1.00  0.00    -0.335 C  
BRANCH   5   6
HETATM    6  C   UNL     1     -11.662  12.922  68.131  1.00  0.00    -0.395 A  
HETATM    7  C   UNL     1     -11.904  14.255  68.407  1.00  0.00    -0.338 A  
HETATM    8  N   UNL     1     -12.393  14.350  69.680  1.00  0.00    -0.484 NA 
HETATM    9  C   UNL     1     -12.499  13.100  70.242  1.00  0.00    -0.163 A  
HETATM   10  H   UNL     1     -12.643  15.223  70.145  1.00  0.00     0.000 HD 
HETATM   11  C   UNL     1     -12.061  12.180  69.292  1.00  0.00    -0.234 A  
HETATM   12  C   UNL     1     -12.075  10.808  69.632  1.00  0.00    -0.361 A  
HETATM   13  C   UNL     1     -12.509  10.390  70.906  1.00  0.00    -0.478 A  
HETATM   14  C   UNL     1     -12.951  11.357  71.822  1.00  0.00    -0.519 A  
HETATM   15  C   UNL     1     -12.944  12.721  71.513  1.00  0.00    -0.388 A  
BRANCH  13  16
HETATM   16  C   UNL     1     -12.512   8.916  71.254  1.00  0.00    -0.272 C  
BRANCH  16  17
HETATM   17  S   UNL     1     -10.841   8.399  71.712  1.00  0.00    -0.309 S  
HETATM   18  O   UNL     1     -10.908   7.540  72.878  1.00  0.00    -0.307 OA 
HETATM   19  O   UNL     1      -9.943   9.532  71.666  1.00  0.00    -0.142 OA 
BRANCH  17  20
HETATM   20  N   UNL     1     -10.377   7.387  70.420  1.00  0.00    -0.206 N  
HETATM   21  C   UNL     1     -11.473   6.491  69.959  1.00  0.00    -0.412 C  
HETATM   22  C   UNL     1     -11.022   6.021  68.590  1.00  0.00    -0.361 C  
HETATM   23  C   UNL     1     -10.323   7.235  68.010  1.00  0.00    -0.243 C  
HETATM   24  C   UNL     1      -9.772   8.004  69.210  1.00  0.00    -0.167 C  
ENDBRANCH  17  20
ENDBRANCH  16  17
ENDBRANCH  13  16
ENDBRANCH   5   6
ENDBRANCH   4   5
ENDBRANCH   2   4
TORSDOF 6
ENDMDL
MODEL       22
REMARK 921   NORMALIZED FREE ENERGY PREDICTED BY IDOCK:   -5.80 KCAL/MOL
REMARK 922        TOTAL FREE ENERGY PREDICTED BY IDOCK:   -8.43 KCAL/MOL
REMARK 923 INTER-LIGAND FREE ENERGY PREDICTED BY IDOCK:   -7.90 KCAL/MOL
REMARK 924 INTRA-LIGAND FREE ENERGY PREDICTED BY IDOCK:   -0.53 KCAL/MOL
REMARK 927      BINDING AFFINITY PREDICTED BY RF-SCORE:    0.00 PKD
ROOT
HETATM    1  C   UNL     1      -9.856   8.339  67.625  1.00  0.00    -0.169 C  
HETATM    2  N   UNL     1     -10.816   7.321  68.068  1.00  0.00    -0.142 NA 
HETATM    3  C   UNL     1     -11.034   6.355  66.989  1.00  0.00    -0.389 C  
ENDROOT
BRANCH   2   4
HETATM    4  C   UNL     1     -10.309   6.674  69.296  1.00  0.00    -0.200 C  
BRANCH   4   5
HETATM    5  C   UNL     1      -9.816   7.643  70.388  1.00  0.00    -0.183 C  
BRANCH   5   6
HETATM    6  C   UNL     1     -10.958   8.275  71.130  1.00  0.00    -0.286 A  
HETATM    7  C   UNL     1     -11.744   7.662  72.090  1.00  0.00    -0.311 A  
HETATM    8  N   UNL     1     -12.705   8.549  72.488  1.00  0.00    -0.566 NA 
HETATM    9  C   UNL     1     -12.554   9.744  71.825  1.00  0.00    -0.416 A  
HETATM   10  H   UNL     1     -13.430   8.352  73.179  1.00  0.00     0.000 HD 
HETATM   11  C   UNL     1     -11.459   9.609  70.974  1.00  0.00    -0.444 A  
HETATM   12  C   UNL     1     -11.093  10.716  70.174  1.00  0.00    -0.341 A  
HETATM   13  C   UNL     1     -11.831  11.915  70.231  1.00  0.00    -0.368 A  
HETATM   14  C   UNL     1     -12.918  12.001  71.112  1.00  0.00    -0.252 A  
HETATM   15  C   UNL     1     -13.304  10.921  71.912  1.00  0.00    -0.429 A  
BRANCH  13  16
HETATM   16  C   UNL     1     -11.426  13.088  69.362  1.00  0.00    -0.261 C  
BRANCH  16  17
HETATM   17  S   UNL     1     -11.120  12.514  67.674  1.00  0.00    -0.274 S  
HETATM   18  O   UNL     1     -12.073  11.473  67.342  1.00  0.00    -0.593 OA 
HETATM   19  O   UNL     1      -9.702  12.328  67.466  1.00  0.00    -0.185 OA 
BRANCH  17  20
HETATM   20  N   UNL     1     -11.557  13.859  66.720  1.00  0.00    -0.358 N  
HETATM   21  C   UNL     1     -10.382  14.574  66.147  1.00  0.00    -0.297 C  
HETATM   22  C   UNL     1     -10.965  15.416  65.029  1.00  0.00    -0.450 C  
HETATM   23  C   UNL     1     -12.061  14.539  64.457  1.00  0.00    -0.501 C  
HETATM   24  C   UNL     1     -12.536  13.667  65.618  1.00  0.00    -0.484 C  
ENDBRANCH  17  20
ENDBRANCH  16  17
ENDBRANCH  13  16
ENDBRANCH   5   6
ENDBRANCH   4   5
ENDBRANCH   2   4
TORSDOF 6
ENDMDL
MODEL       23
REMARK 921   NORMALIZED FREE ENERGY PREDICTED BY IDOCK:   -5.80 KCAL/MOL
REMARK 922        TOTAL FREE ENERGY PREDICTED BY IDOCK:   -8.42 KCAL/MOL
REMARK 923 INTER-LIGAND FREE ENERGY PREDICTED BY IDOCK:   -7.97 KCAL/MOL
REMARK 924 INTRA-LIGAND FREE ENERGY PREDICTED BY IDOCK:   -0.46 KCAL/MOL
REMARK 927      BINDING AFFINITY PREDICTED BY RF-SCORE:    0.00 PKD
ROOT
HETATM    1  C   UNL     1     -14.144   8.276  71.725  1.00  0.00    -0.437 C  
HETATM    2  N   UNL     1     -13.119   9.243  72.136  1.00  0.00    -0.418 NA 
HETATM    3  C   UNL     1     -11.851   8.544  72.355  1.00  0.00    -0.367 C  
ENDROOT
BRANCH   2   4
HETATM    4  C   UNL     1     -13.001  10.296  71.106  1.00  0.00    -0.409 C  
BRANCH   4   5
HETATM    5  C   UNL     1     -11.560  10.748  70.797  1.00  0.00    -0.322 C  
BRANCH   5   6
HETATM    6  C   UNL     1     -11.197  10.507  69.360  1.00  0.00    -0.327 A  
HETATM    7  C   UNL     1     -10.737   9.317  68.825  1.00  0.00    -0.154 A  
HETATM    8  N   UNL     1     -10.470   9.517  67.499  1.00  0.00    -0.259 NA 
HETATM    9  C   UNL     1     -10.767  10.812  67.145  1.00  0.00    -0.272 A  
HETATM   10  H   UNL     1     -10.104   8.807  66.865  1.00  0.00     0.000 HD 
HETATM   11  C   UNL     1     -11.237  11.456  68.286  1.00  0.00    -0.326 A  
HETATM   12  C   UNL     1     -11.615  12.815  68.181  1.00  0.00    -0.380 A  
HETATM   13  C   UNL     1     -11.503  13.495  66.952  1.00  0.00    -0.374 A  
HETATM   14  C   UNL     1     -11.034  12.796  65.830  1.00  0.00    -0.303 A  
HETATM   15  C   UNL     1     -10.649  11.453  65.907  1.00  0.00    -0.317 A  
BRANCH  13  16
HETATM   16  C   UNL     1     -11.908  14.952  66.859  1.00  0.00    -0.187 C  
BRANCH  16  17
HETATM   17  S   UNL     1     -10.492  15.941  66.324  1.00  0.00    -0.314 S  
HETATM   18  O   UNL     1     -10.674  16.327  64.938  1.00  0.00    -0.646 OA 
HETATM   19  O   UNL     1      -9.263  15.330  66.777  1.00  0.00    -0.217 OA 
BRANCH  17  20
HETATM   20  N   UNL     1     -10.656  17.379  67.227  1.00  0.00    -0.320 N  
HETATM   21  C   UNL     1      -9.692  17.470  68.358  1.00  0.00    -0.316 C  
HETATM   22  C   UNL     1      -9.698  18.937  68.737  1.00  0.00    -0.454 C  
HETATM   23  C   UNL     1      -9.850  19.649  67.407  1.00  0.00    -0.489 C  
HETATM   24  C   UNL     1     -10.622  18.681  66.511  1.00  0.00    -0.358 C  
ENDBRANCH  17  20
ENDBRANCH  16  17
ENDBRANCH  13  16
ENDBRANCH   5   6
ENDBRANCH   4   5
ENDBRANCH   2   4
TORSDOF 6
ENDMDL
MODEL       24
REMARK 921   NORMALIZED FREE ENERGY PREDICTED BY IDOCK:   -5.79 KCAL/MOL
REMARK 922        TOTAL FREE ENERGY PREDICTED BY IDOCK:   -8.40 KCAL/MOL
REMARK 923 INTER-LIGAND FREE ENERGY PREDICTED BY IDOCK:   -7.97 KCAL/MOL
REMARK 924 INTRA-LIGAND FREE ENERGY PREDICTED BY IDOCK:   -0.44 KCAL/MOL
REMARK 927      BINDING AFFINITY PREDICTED BY RF-SCORE:    0.00 PKD
ROOT
HETATM    1  C   UNL     1     -10.370  17.153  68.775  1.00  0.00    -0.353 C  
HETATM    2  N   UNL     1     -10.320  15.765  69.249  1.00  0.00    -0.227 NA 
HETATM    3  C   UNL     1      -8.929  15.306  69.262  1.00  0.00    -0.241 C  
ENDROOT
BRANCH   2   4
HETATM    4  C   UNL     1     -10.944  15.683  70.586  1.00  0.00    -0.340 C  
BRANCH   4   5
HETATM    5  C   UNL     1     -12.473  15.493  70.582  1.00  0.00    -0.483 C  
BRANCH   5   6
HETATM    6  C   UNL     1     -12.881  14.234  71.291  1.00  0.00    -0.422 A  
HETATM    7  C   UNL     1     -13.578  14.160  72.483  1.00  0.00    -0.541 A  
HETATM    8  N   UNL     1     -13.709  12.842  72.823  1.00  0.00    -0.719 NA 
HETATM    9  C   UNL     1     -13.128  12.044  71.866  1.00  0.00    -0.370 A  
HETATM   10  H   UNL     1     -14.170  12.501  73.667  1.00  0.00     0.000 HD 
HETATM   11  C   UNL     1     -12.611  12.886  70.884  1.00  0.00    -0.355 A  
HETATM   12  C   UNL     1     -11.957  12.299  69.776  1.00  0.00    -0.365 A  
HETATM   13  C   UNL     1     -11.825  10.899  69.682  1.00  0.00    -0.416 A  
HETATM   14  C   UNL     1     -12.373  10.097  70.693  1.00  0.00    -0.382 A  
HETATM   15  C   UNL     1     -13.022  10.651  71.802  1.00  0.00    -0.577 A  
BRANCH  13  16
HETATM   16  C   UNL     1     -11.117  10.290  68.490  1.00  0.00    -0.242 C  
BRANCH  16  17
HETATM   17  S   UNL     1      -9.514   9.633  69.009  1.00  0.00    -0.176 S  
HETATM   18  O   UNL     1      -9.396   9.740  70.450  1.00  0.00    -0.242 OA 
HETATM   19  O   UNL     1      -8.472  10.121  68.132  1.00  0.00    -0.116 OA 
BRANCH  17  20
HETATM   20  N   UNL     1      -9.651   7.964  68.682  1.00  0.00    -0.153 N  
HETATM   21  C   UNL     1     -10.290   7.203  69.790  1.00  0.00    -0.214 C  
HETATM   22  C   UNL     1     -10.706   5.892  69.153  1.00  0.00    -0.394 C  
HETATM   23  C   UNL     1     -11.130   6.294  67.754  1.00  0.00    -0.361 C  
HETATM   24  C   UNL     1     -10.305   7.535  67.417  1.00  0.00    -0.276 C  
ENDBRANCH  17  20
ENDBRANCH  16  17
ENDBRANCH  13  16
ENDBRANCH   5   6
ENDBRANCH   4   5
ENDBRANCH   2   4
TORSDOF 6
ENDMDL
MODEL       25
REMARK 921   NORMALIZED FREE ENERGY PREDICTED BY IDOCK:   -5.78 KCAL/MOL
REMARK 922        TOTAL FREE ENERGY PREDICTED BY IDOCK:   -8.39 KCAL/MOL
REMARK 923 INTER-LIGAND FREE ENERGY PREDICTED BY IDOCK:   -7.82 KCAL/MOL
REMARK 924 INTRA-LIGAND FREE ENERGY PREDICTED BY IDOCK:   -0.57 KCAL/MOL
REMARK 927      BINDING AFFINITY PREDICTED BY RF-SCORE:    0.00 PKD
ROOT
HETATM    1  C   UNL     1     -11.074   5.553  72.217  1.00  0.00    -0.237 C  
HETATM    2  N   UNL     1     -10.890   6.894  72.783  1.00  0.00    -0.255 NA 
HETATM    3  C   UNL     1      -9.941   6.827  73.896  1.00  0.00    -0.311 C  
ENDROOT
BRANCH   2   4
HETATM    4  C   UNL     1     -10.435   7.815  71.721  1.00  0.00    -0.216 C  
BRANCH   4   5
HETATM    5  C   UNL     1     -11.528   8.257  70.728  1.00  0.00    -0.268 C  
BRANCH   5   6
HETATM    6  C   UNL     1     -12.107   9.593  71.095  1.00  0.00    -0.448 A  
HETATM    7  C   UNL     1     -13.031   9.832  72.096  1.00  0.00    -0.394 A  
HETATM    8  N   UNL     1     -13.345  11.163  72.081  1.00  0.00    -0.577 NA 
HETATM    9  C   UNL     1     -12.628  11.810  71.103  1.00  0.00    -0.309 A  
HETATM   10  H   UNL     1     -14.016  11.611  72.707  1.00  0.00     0.000 HD 
HETATM   11  C   UNL     1     -11.832  10.856  70.473  1.00  0.00    -0.457 A  
HETATM   12  C   UNL     1     -10.989  11.276  69.419  1.00  0.00    -0.282 A  
HETATM   13  C   UNL     1     -10.971  12.625  69.012  1.00  0.00    -0.240 A  
HETATM   14  C   UNL     1     -11.784  13.548  69.686  1.00  0.00    -0.378 A  
HETATM   15  C   UNL     1     -12.630  13.158  70.730  1.00  0.00    -0.338 A  
BRANCH  13  16
HETATM   16  C   UNL     1     -10.065  13.056  67.877  1.00  0.00    -0.235 C  
BRANCH  16  17
HETATM   17  S   UNL     1     -11.020  13.154  66.344  1.00  0.00    -0.292 S  
HETATM   18  O   UNL     1     -11.051  14.529  65.886  1.00  0.00    -0.315 OA 
HETATM   19  O   UNL     1     -12.233  12.376  66.468  1.00  0.00    -0.586 OA 
BRANCH  17  20
HETATM   20  N   UNL     1     -10.044  12.317  65.223  1.00  0.00    -0.276 N  
HETATM   21  C   UNL     1      -9.945  10.859  65.510  1.00  0.00    -0.260 C  
HETATM   22  C   UNL     1      -9.434  10.257  64.216  1.00  0.00    -0.365 C  
HETATM   23  C   UNL     1     -10.112  11.087  63.145  1.00  0.00    -0.350 C  
HETATM   24  C   UNL     1     -10.337  12.462  63.772  1.00  0.00    -0.425 C  
ENDBRANCH  17  20
ENDBRANCH  16  17
ENDBRANCH  13  16
ENDBRANCH   5   6
ENDBRANCH   4   5
ENDBRANCH   2   4
TORSDOF 6
ENDMDL
MODEL       26
REMARK 921   NORMALIZED FREE ENERGY PREDICTED BY IDOCK:   -5.77 KCAL/MOL
REMARK 922        TOTAL FREE ENERGY PREDICTED BY IDOCK:   -8.39 KCAL/MOL
REMARK 923 INTER-LIGAND FREE ENERGY PREDICTED BY IDOCK:   -7.98 KCAL/MOL
REMARK 924 INTRA-LIGAND FREE ENERGY PREDICTED BY IDOCK:   -0.40 KCAL/MOL
REMARK 927      BINDING AFFINITY PREDICTED BY RF-SCORE:    0.00 PKD
ROOT
HETATM    1  C   UNL     1      -9.423   8.610  66.193  1.00  0.00    -0.240 C  
HETATM    2  N   UNL     1     -10.496   9.422  66.781  1.00  0.00    -0.226 NA 
HETATM    3  C   UNL     1     -10.440   9.319  68.240  1.00  0.00    -0.215 C  
ENDROOT
BRANCH   2   4
HETATM    4  C   UNL     1     -10.360  10.819  66.317  1.00  0.00    -0.244 C  
BRANCH   4   5
HETATM    5  C   UNL     1     -10.366  11.002  64.787  1.00  0.00    -0.389 C  
BRANCH   5   6
HETATM    6  C   UNL     1     -11.102  12.245  64.378  1.00  0.00    -0.381 A  
HETATM    7  C   UNL     1     -12.193  12.304  63.529  1.00  0.00    -0.568 A  
HETATM    8  N   UNL     1     -12.542  13.616  63.367  1.00  0.00    -0.930 NA 
HETATM    9  C   UNL     1     -11.714  14.423  64.112  1.00  0.00    -0.227 A  
HETATM   10  H   UNL     1     -13.306  13.948  62.778  1.00  0.00     0.000 HD 
HETATM   11  C   UNL     1     -10.808  13.594  64.768  1.00  0.00    -0.402 A  
HETATM   12  C   UNL     1      -9.840  14.191  65.609  1.00  0.00    -0.278 A  
HETATM   13  C   UNL     1      -9.792  15.591  65.762  1.00  0.00    -0.392 A  
HETATM   14  C   UNL     1     -10.735  16.380  65.087  1.00  0.00    -0.309 A  
HETATM   15  C   UNL     1     -11.700  15.815  64.246  1.00  0.00    -0.162 A  
BRANCH  13  16
HETATM   16  C   UNL     1      -8.746  16.213  66.663  1.00  0.00    -0.265 C  
BRANCH  16  17
HETATM   17  S   UNL     1      -9.492  16.635  68.256  1.00  0.00    -0.236 S  
HETATM   18  O   UNL     1      -8.694  16.067  69.325  1.00  0.00    -0.248 OA 
HETATM   19  O   UNL     1     -10.923  16.434  68.199  1.00  0.00    -0.337 OA 
BRANCH  17  20
HETATM   20  N   UNL     1      -9.264  18.323  68.358  1.00  0.00    -0.310 N  
HETATM   21  C   UNL     1      -8.015  18.784  67.690  1.00  0.00    -0.250 C  
HETATM   22  C   UNL     1      -8.216  20.276  67.511  1.00  0.00    -0.358 C  
HETATM   23  C   UNL     1      -9.696  20.402  67.207  1.00  0.00    -0.602 C  
HETATM   24  C   UNL     1     -10.362  19.220  67.911  1.00  0.00    -0.417 C  
ENDBRANCH  17  20
ENDBRANCH  16  17
ENDBRANCH  13  16
ENDBRANCH   5   6
ENDBRANCH   4   5
ENDBRANCH   2   4
TORSDOF 6
ENDMDL
MODEL       27
REMARK 921   NORMALIZED FREE ENERGY PREDICTED BY IDOCK:   -5.77 KCAL/MOL
REMARK 922        TOTAL FREE ENERGY PREDICTED BY IDOCK:   -8.38 KCAL/MOL
REMARK 923 INTER-LIGAND FREE ENERGY PREDICTED BY IDOCK:   -7.70 KCAL/MOL
REMARK 924 INTRA-LIGAND FREE ENERGY PREDICTED BY IDOCK:   -0.68 KCAL/MOL
REMARK 927      BINDING AFFINITY PREDICTED BY RF-SCORE:    0.00 PKD
ROOT
HETATM    1  C   UNL     1     -12.529  13.055  64.932  1.00  0.00    -0.455 C  
HETATM    2  N   UNL     1     -12.012  12.872  66.293  1.00  0.00    -0.413 NA 
HETATM    3  C   UNL     1     -10.848  11.983  66.256  1.00  0.00    -0.279 C  
ENDROOT
BRANCH   2   4
HETATM    4  C   UNL     1     -11.683  14.191  66.873  1.00  0.00    -0.414 C  
BRANCH   4   5
HETATM    5  C   UNL     1     -10.715  14.154  68.071  1.00  0.00    -0.248 C  
BRANCH   5   6
HETATM    6  C   UNL     1     -11.439  14.309  69.377  1.00  0.00    -0.337 A  
HETATM    7  C   UNL     1     -11.645  15.495  70.059  1.00  0.00    -0.341 A  
HETATM    8  N   UNL     1     -12.296  15.211  71.227  1.00  0.00    -0.307 NA 
HETATM    9  C   UNL     1     -12.544  13.862  71.318  1.00  0.00    -0.371 A  
HETATM   10  H   UNL     1     -12.561  15.902  71.930  1.00  0.00     0.000 HD 
HETATM   11  C   UNL     1     -12.029  13.268  70.168  1.00  0.00    -0.388 A  
HETATM   12  C   UNL     1     -12.161  11.868  70.021  1.00  0.00    -0.366 A  
HETATM   13  C   UNL     1     -12.785  11.099  71.022  1.00  0.00    -0.476 A  
HETATM   14  C   UNL     1     -13.295  11.748  72.156  1.00  0.00    -0.334 A  
HETATM   15  C   UNL     1     -13.175  13.131  72.329  1.00  0.00    -0.555 A  
BRANCH  13  16
HETATM   16  C   UNL     1     -12.913   9.600  70.849  1.00  0.00    -0.176 C  
BRANCH  16  17
HETATM   17  S   UNL     1     -11.586   8.770  71.757  1.00  0.00    -0.372 S  
HETATM   18  O   UNL     1     -11.999   8.569  73.132  1.00  0.00    -0.064 OA 
HETATM   19  O   UNL     1     -10.314   9.379  71.437  1.00  0.00    -0.324 OA 
BRANCH  17  20
HETATM   20  N   UNL     1     -11.546   7.216  71.056  1.00  0.00    -0.294 N  
HETATM   21  C   UNL     1     -10.804   7.176  69.766  1.00  0.00    -0.240 C  
HETATM   22  C   UNL     1     -10.513   5.705  69.546  1.00  0.00    -0.372 C  
HETATM   23  C   UNL     1     -10.249   5.181  70.944  1.00  0.00    -0.299 C  
HETATM   24  C   UNL     1     -11.066   6.073  71.877  1.00  0.00    -0.277 C  
ENDBRANCH  17  20
ENDBRANCH  16  17
ENDBRANCH  13  16
ENDBRANCH   5   6
ENDBRANCH   4   5
ENDBRANCH   2   4
TORSDOF 6
ENDMDL
MODEL       28
REMARK 921   NORMALIZED FREE ENERGY PREDICTED BY IDOCK:   -5.75 KCAL/MOL
REMARK 922        TOTAL FREE ENERGY PREDICTED BY IDOCK:   -8.35 KCAL/MOL
REMARK 923 INTER-LIGAND FREE ENERGY PREDICTED BY IDOCK:   -7.82 KCAL/MOL
REMARK 924 INTRA-LIGAND FREE ENERGY PREDICTED BY IDOCK:   -0.53 KCAL/MOL
REMARK 927      BINDING AFFINITY PREDICTED BY RF-SCORE:    0.00 PKD
ROOT
HETATM    1  C   UNL     1     -10.833   7.245  71.154  1.00  0.00    -0.242 C  
HETATM    2  N   UNL     1     -10.096   8.068  70.188  1.00  0.00    -0.192 NA 
HETATM    3  C   UNL     1     -10.532   7.735  68.831  1.00  0.00    -0.194 C  
ENDROOT
BRANCH   2   4
HETATM    4  C   UNL     1     -10.306   9.497  70.503  1.00  0.00    -0.288 C  
BRANCH   4   5
HETATM    5  C   UNL     1     -11.509  10.151  69.796  1.00  0.00    -0.288 C  
BRANCH   5   6
HETATM    6  C   UNL     1     -12.220  11.124  70.692  1.00  0.00    -0.492 A  
HETATM    7  C   UNL     1     -12.889  10.815  71.862  1.00  0.00    -0.354 A  
HETATM    8  N   UNL     1     -13.444  11.962  72.356  1.00  0.00    -0.510 NA 
HETATM    9  C   UNL     1     -13.135  13.027  71.544  1.00  0.00    -0.310 A  
HETATM   10  H   UNL     1     -14.007  12.019  73.206  1.00  0.00     0.000 HD 
HETATM   11  C   UNL     1     -12.357  12.538  70.497  1.00  0.00    -0.345 A  
HETATM   12  C   UNL     1     -11.905  13.449  69.515  1.00  0.00    -0.391 A  
HETATM   13  C   UNL     1     -12.248  14.814  69.594  1.00  0.00    -0.310 A  
HETATM   14  C   UNL     1     -13.025  15.257  70.675  1.00  0.00    -0.442 A  
HETATM   15  C   UNL     1     -13.489  14.376  71.658  1.00  0.00    -0.451 A  
BRANCH  13  16
HETATM   16  C   UNL     1     -11.759  15.774  68.530  1.00  0.00    -0.319 C  
BRANCH  16  17
HETATM   17  S   UNL     1      -9.950  15.757  68.485  1.00  0.00    -0.213 S  
HETATM   18  O   UNL     1      -9.505  14.841  67.454  1.00  0.00    -0.201 OA 
HETATM   19  O   UNL     1      -9.424  15.687  69.830  1.00  0.00    -0.241 OA 
BRANCH  17  20
HETATM   20  N   UNL     1      -9.560  17.317  67.916  1.00  0.00    -0.263 N  
HETATM   21  C   UNL     1     -10.168  17.624  66.591  1.00  0.00    -0.341 C  
HETATM   22  C   UNL     1     -10.077  19.133  66.478  1.00  0.00    -0.476 C  
HETATM   23  C   UNL     1     -10.316  19.611  67.897  1.00  0.00    -0.583 C  
HETATM   24  C   UNL     1      -9.814  18.485  68.800  1.00  0.00    -0.376 C  
ENDBRANCH  17  20
ENDBRANCH  16  17
ENDBRANCH  13  16
ENDBRANCH   5   6
ENDBRANCH   4   5
ENDBRANCH   2   4
TORSDOF 6
ENDMDL
MODEL       29
REMARK 921   NORMALIZED FREE ENERGY PREDICTED BY IDOCK:   -5.75 KCAL/MOL
REMARK 922        TOTAL FREE ENERGY PREDICTED BY IDOCK:   -8.35 KCAL/MOL
REMARK 923 INTER-LIGAND FREE ENERGY PREDICTED BY IDOCK:   -7.76 KCAL/MOL
REMARK 924 INTRA-LIGAND FREE ENERGY PREDICTED BY IDOCK:   -0.59 KCAL/MOL
REMARK 927      BINDING AFFINITY PREDICTED BY RF-SCORE:    0.00 PKD
ROOT
HETATM    1  C   UNL     1      -9.226  18.707  68.300  1.00  0.00    -0.322 C  
HETATM    2  N   UNL     1     -10.466  18.401  67.576  1.00  0.00    -0.403 NA 
HETATM    3  C   UNL     1     -10.504  19.169  66.330  1.00  0.00    -0.467 C  
ENDROOT
BRANCH   2   4
HETATM    4  C   UNL     1     -10.542  16.945  67.332  1.00  0.00    -0.294 C  
BRANCH   4   5
HETATM    5  C   UNL     1      -9.821  16.458  66.060  1.00  0.00    -0.362 C  
BRANCH   5   6
HETATM    6  C   UNL     1     -10.717  15.612  65.202  1.00  0.00    -0.463 A  
HETATM    7  C   UNL     1     -11.656  16.076  64.299  1.00  0.00    -0.138 A  
HETATM    8  N   UNL     1     -12.300  15.000  63.756  1.00  0.00    -1.058 NA 
HETATM    9  C   UNL     1     -11.786  13.831  64.268  1.00  0.00    -0.395 A  
HETATM   10  H   UNL     1     -13.052  15.055  63.069  1.00  0.00     0.000 HD 
HETATM   11  C   UNL     1     -10.782  14.180  65.168  1.00  0.00    -0.400 A  
HETATM   12  C   UNL     1     -10.091  13.142  65.835  1.00  0.00    -0.292 A  
HETATM   13  C   UNL     1     -10.424  11.794  65.599  1.00  0.00    -0.308 A  
HETATM   14  C   UNL     1     -11.435  11.497  64.674  1.00  0.00    -0.168 A  
HETATM   15  C   UNL     1     -12.138  12.504  64.003  1.00  0.00    -0.557 A  
BRANCH  13  16
HETATM   16  C   UNL     1      -9.675  10.696  66.326  1.00  0.00    -0.199 C  
BRANCH  16  17
HETATM   17  S   UNL     1     -10.711  10.033  67.652  1.00  0.00    -0.274 S  
HETATM   18  O   UNL     1     -10.909   8.612  67.441  1.00  0.00    -0.211 OA 
HETATM   19  O   UNL     1     -11.829  10.918  67.896  1.00  0.00    -0.590 OA 
BRANCH  17  20
HETATM   20  N   UNL     1      -9.711  10.159  69.029  1.00  0.00    -0.195 N  
HETATM   21  C   UNL     1      -9.374   8.838  69.627  1.00  0.00    -0.158 C  
HETATM   22  C   UNL     1      -8.179   9.125  70.516  1.00  0.00    -0.203 C  
HETATM   23  C   UNL     1      -7.404  10.174  69.744  1.00  0.00    -0.159 C  
HETATM   24  C   UNL     1      -8.446  10.934  68.925  1.00  0.00    -0.141 C  
ENDBRANCH  17  20
ENDBRANCH  16  17
ENDBRANCH  13  16
ENDBRANCH   5   6
ENDBRANCH   4   5
ENDBRANCH   2   4
TORSDOF 6
ENDMDL
MODEL       30
REMARK 921   NORMALIZED FREE ENERGY PREDICTED BY IDOCK:   -5.74 KCAL/MOL
REMARK 922        TOTAL FREE ENERGY PREDICTED BY IDOCK:   -8.35 KCAL/MOL
REMARK 923 INTER-LIGAND FREE ENERGY PREDICTED BY IDOCK:   -7.81 KCAL/MOL
REMARK 924 INTRA-LIGAND FREE ENERGY PREDICTED BY IDOCK:   -0.54 KCAL/MOL
REMARK 927      BINDING AFFINITY PREDICTED BY RF-SCORE:    0.00 PKD
ROOT
HETATM    1  C   UNL     1      -9.822  20.445  67.089  1.00  0.00    -0.461 C  
HETATM    2  N   UNL     1      -9.258  19.248  66.454  1.00  0.00    -0.344 NA 
HETATM    3  C   UNL     1      -7.797  19.289  66.550  1.00  0.00    -0.278 C  
ENDROOT
BRANCH   2   4
HETATM    4  C   UNL     1      -9.822  18.043  67.098  1.00  0.00    -0.316 C  
BRANCH   4   5
HETATM    5  C   UNL     1      -9.302  16.703  66.543  1.00  0.00    -0.290 C  
BRANCH   5   6
HETATM    6  C   UNL     1     -10.248  16.111  65.539  1.00  0.00    -0.360 A  
HETATM    7  C   UNL     1     -11.040  16.817  64.651  1.00  0.00     0.076 A  
HETATM    8  N   UNL     1     -11.795  15.923  63.944  1.00  0.00    -1.258 NA 
HETATM    9  C   UNL     1     -11.499  14.638  64.333  1.00  0.00    -0.263 A  
HETATM   10  H   UNL     1     -12.480  16.174  63.230  1.00  0.00     0.000 HD 
HETATM   11  C   UNL     1     -10.523  14.720  65.323  1.00  0.00    -0.427 A  
HETATM   12  C   UNL     1     -10.043  13.518  65.892  1.00  0.00    -0.311 A  
HETATM   13  C   UNL     1     -10.555  12.274  65.471  1.00  0.00    -0.304 A  
HETATM   14  C   UNL     1     -11.529  12.247  64.463  1.00  0.00    -0.401 A  
HETATM   15  C   UNL     1     -12.024  13.421  63.886  1.00  0.00    -0.520 A  
BRANCH  13  16
HETATM   16  C   UNL     1     -10.032  10.996  66.096  1.00  0.00    -0.231 C  
BRANCH  16  17
HETATM   17  S   UNL     1     -10.680  10.835  67.776  1.00  0.00    -0.273 S  
HETATM   18  O   UNL     1     -12.030  11.362  67.822  1.00  0.00    -0.637 OA 
HETATM   19  O   UNL     1      -9.679  11.250  68.734  1.00  0.00    -0.205 OA 
BRANCH  17  20
HETATM   20  N   UNL     1     -10.838   9.147  67.973  1.00  0.00    -0.138 N  
HETATM   21  C   UNL     1     -10.489   8.382  66.744  1.00  0.00    -0.245 C  
HETATM   22  C   UNL     1     -10.271   6.964  67.235  1.00  0.00    -0.284 C  
HETATM   23  C   UNL     1      -9.624   7.154  68.593  1.00  0.00    -0.140 C  
HETATM   24  C   UNL     1     -10.145   8.492  69.113  1.00  0.00    -0.203 C  
ENDBRANCH  17  20
ENDBRANCH  16  17
ENDBRANCH  13  16
ENDBRANCH   5   6
ENDBRANCH   4   5
ENDBRANCH   2   4
TORSDOF 6
ENDMDL
MODEL       31
REMARK 921   NORMALIZED FREE ENERGY PREDICTED BY IDOCK:   -5.73 KCAL/MOL
REMARK 922        TOTAL FREE ENERGY PREDICTED BY IDOCK:   -8.32 KCAL/MOL
REMARK 923 INTER-LIGAND FREE ENERGY PREDICTED BY IDOCK:   -7.71 KCAL/MOL
REMARK 924 INTRA-LIGAND FREE ENERGY PREDICTED BY IDOCK:   -0.61 KCAL/MOL
REMARK 927      BINDING AFFINITY PREDICTED BY RF-SCORE:    0.00 PKD
ROOT
HETATM    1  C   UNL     1     -10.872   8.030  70.774  1.00  0.00    -0.232 C  
HETATM    2  N   UNL     1     -11.378   7.942  72.148  1.00  0.00    -0.290 NA 
HETATM    3  C   UNL     1     -10.251   7.820  73.075  1.00  0.00    -0.330 C  
ENDROOT
BRANCH   2   4
HETATM    4  C   UNL     1     -12.210   9.128  72.440  1.00  0.00    -0.193 C  
BRANCH   4   5
HETATM    5  C   UNL     1     -12.909   9.752  71.216  1.00  0.00    -0.472 C  
BRANCH   5   6
HETATM    6  C   UNL     1     -12.812  11.250  71.223  1.00  0.00    -0.491 A  
HETATM    7  C   UNL     1     -13.443  12.103  72.110  1.00  0.00    -0.278 A  
HETATM    8  N   UNL     1     -13.146  13.389  71.754  1.00  0.00    -0.389 NA 
HETATM    9  C   UNL     1     -12.312  13.400  70.661  1.00  0.00    -0.348 A  
HETATM   10  H   UNL     1     -13.493  14.222  72.232  1.00  0.00     0.000 HD 
HETATM   11  C   UNL     1     -12.073  12.073  70.310  1.00  0.00    -0.395 A  
HETATM   12  C   UNL     1     -11.232  11.814  69.203  1.00  0.00    -0.324 A  
HETATM   13  C   UNL     1     -10.666  12.876  68.471  1.00  0.00    -0.275 A  
HETATM   14  C   UNL     1     -10.930  14.194  68.873  1.00  0.00    -0.280 A  
HETATM   15  C   UNL     1     -11.761  14.478  69.962  1.00  0.00    -0.359 A  
BRANCH  13  16
HETATM   16  C   UNL     1      -9.772  12.579  67.285  1.00  0.00    -0.202 C  
BRANCH  16  17
HETATM   17  S   UNL     1     -10.790  12.275  65.821  1.00  0.00    -0.289 S  
HETATM   18  O   UNL     1     -12.177  12.145  66.220  1.00  0.00    -0.604 OA 
HETATM   19  O   UNL     1     -10.156  11.288  64.975  1.00  0.00    -0.247 OA 
BRANCH  17  20
HETATM   20  N   UNL     1     -10.693  13.748  64.966  1.00  0.00    -0.358 N  
HETATM   21  C   UNL     1     -12.025  14.358  64.701  1.00  0.00    -0.464 C  
HETATM   22  C   UNL     1     -11.714  15.800  64.351  1.00  0.00    -0.201 C  
HETATM   23  C   UNL     1     -10.546  16.142  65.255  1.00  0.00    -0.390 C  
HETATM   24  C   UNL     1      -9.811  14.824  65.493  1.00  0.00    -0.301 C  
ENDBRANCH  17  20
ENDBRANCH  16  17
ENDBRANCH  13  16
ENDBRANCH   5   6
ENDBRANCH   4   5
ENDBRANCH   2   4
TORSDOF 6
ENDMDL
MODEL       32
REMARK 921   NORMALIZED FREE ENERGY PREDICTED BY IDOCK:   -5.71 KCAL/MOL
REMARK 922        TOTAL FREE ENERGY PREDICTED BY IDOCK:   -8.30 KCAL/MOL
REMARK 923 INTER-LIGAND FREE ENERGY PREDICTED BY IDOCK:   -7.72 KCAL/MOL
REMARK 924 INTRA-LIGAND FREE ENERGY PREDICTED BY IDOCK:   -0.58 KCAL/MOL
REMARK 927      BINDING AFFINITY PREDICTED BY RF-SCORE:    0.00 PKD
ROOT
HETATM    1  C   UNL     1     -12.508  12.601  64.723  1.00  0.00    -0.484 C  
HETATM    2  N   UNL     1     -11.066  12.336  64.778  1.00  0.00    -0.302 NA 
HETATM    3  C   UNL     1     -10.674  11.532  63.618  1.00  0.00    -0.424 C  
ENDROOT
BRANCH   2   4
HETATM    4  C   UNL     1     -10.335  13.619  64.835  1.00  0.00    -0.388 C  
BRANCH   4   5
HETATM    5  C   UNL     1     -11.224  14.872  64.960  1.00  0.00    -0.408 C  
BRANCH   5   6
HETATM    6  C   UNL     1     -10.877  15.683  66.175  1.00  0.00    -0.264 A  
HETATM    7  C   UNL     1     -10.224  16.902  66.181  1.00  0.00    -0.341 A  
HETATM    8  N   UNL     1     -10.049  17.290  67.480  1.00  0.00    -0.304 NA 
HETATM    9  C   UNL     1     -10.595  16.359  68.332  1.00  0.00    -0.311 A  
HETATM   10  H   UNL     1      -9.580  18.148  67.775  1.00  0.00     0.000 HD 
HETATM   11  C   UNL     1     -11.134  15.344  67.545  1.00  0.00    -0.315 A  
HETATM   12  C   UNL     1     -11.762  14.256  68.193  1.00  0.00    -0.385 A  
HETATM   13  C   UNL     1     -11.826  14.201  69.600  1.00  0.00    -0.379 A  
HETATM   14  C   UNL     1     -11.277  15.255  70.345  1.00  0.00    -0.325 A  
HETATM   15  C   UNL     1     -10.646  16.341  69.729  1.00  0.00    -0.316 A  
BRANCH  13  16
HETATM   16  C   UNL     1     -12.499  13.025  70.276  1.00  0.00    -0.147 C  
BRANCH  16  17
HETATM   17  S   UNL     1     -11.717  11.487  69.735  1.00  0.00    -0.366 S  
HETATM   18  O   UNL     1     -10.301  11.716  69.526  1.00  0.00     0.067 OA 
HETATM   19  O   UNL     1     -12.531  10.848  68.725  1.00  0.00    -0.431 OA 
BRANCH  17  20
HETATM   20  N   UNL     1     -11.823  10.489  71.115  1.00  0.00    -0.332 N  
HETATM   21  C   UNL     1     -13.198   9.971  71.356  1.00  0.00    -0.395 C  
HETATM   22  C   UNL     1     -12.998   8.810  72.310  1.00  0.00    -0.462 C  
HETATM   23  C   UNL     1     -11.692   8.192  71.851  1.00  0.00    -0.362 C  
HETATM   24  C   UNL     1     -10.889   9.338  71.238  1.00  0.00    -0.347 C  
ENDBRANCH  17  20
ENDBRANCH  16  17
ENDBRANCH  13  16
ENDBRANCH   5   6
ENDBRANCH   4   5
ENDBRANCH   2   4
TORSDOF 6
ENDMDL
MODEL       33
REMARK 921   NORMALIZED FREE ENERGY PREDICTED BY IDOCK:   -5.69 KCAL/MOL
REMARK 922        TOTAL FREE ENERGY PREDICTED BY IDOCK:   -8.27 KCAL/MOL
REMARK 923 INTER-LIGAND FREE ENERGY PREDICTED BY IDOCK:   -8.01 KCAL/MOL
REMARK 924 INTRA-LIGAND FREE ENERGY PREDICTED BY IDOCK:   -0.26 KCAL/MOL
REMARK 927      BINDING AFFINITY PREDICTED BY RF-SCORE:    0.00 PKD
ROOT
HETATM    1  C   UNL     1      -9.475  15.472  69.540  1.00  0.00    -0.269 C  
HETATM    2  N   UNL     1     -10.687  16.299  69.600  1.00  0.00    -0.319 NA 
HETATM    3  C   UNL     1     -11.503  16.053  68.408  1.00  0.00    -0.331 C  
ENDROOT
BRANCH   2   4
HETATM    4  C   UNL     1     -11.421  15.999  70.846  1.00  0.00    -0.416 C  
BRANCH   4   5
HETATM    5  C   UNL     1     -12.838  15.427  70.647  1.00  0.00    -0.484 C  
BRANCH   5   6
HETATM    6  C   UNL     1     -12.971  14.051  71.233  1.00  0.00    -0.418 A  
HETATM    7  C   UNL     1     -13.444  13.746  72.497  1.00  0.00    -0.578 A  
HETATM    8  N   UNL     1     -13.361  12.393  72.672  1.00  0.00    -0.464 NA 
HETATM    9  C   UNL     1     -12.864  11.796  71.537  1.00  0.00    -0.345 A  
HETATM   10  H   UNL     1     -13.630  11.897  73.522  1.00  0.00     0.000 HD 
HETATM   11  C   UNL     1     -12.620  12.807  70.611  1.00  0.00    -0.248 A  
HETATM   12  C   UNL     1     -12.101  12.446  69.346  1.00  0.00    -0.237 A  
HETATM   13  C   UNL     1     -11.826  11.098  69.044  1.00  0.00    -0.418 A  
HETATM   14  C   UNL     1     -12.099  10.118  70.009  1.00  0.00    -0.166 A  
HETATM   15  C   UNL     1     -12.610  10.447  71.269  1.00  0.00    -0.525 A  
BRANCH  13  16
HETATM   16  C   UNL     1     -11.265  10.731  67.686  1.00  0.00    -0.299 C  
BRANCH  16  17
HETATM   17  S   UNL     1      -9.966  11.905  67.231  1.00  0.00    -0.186 S  
HETATM   18  O   UNL     1      -9.174  11.348  66.152  1.00  0.00    -0.200 OA 
HETATM   19  O   UNL     1      -9.343  12.439  68.422  1.00  0.00    -0.206 OA 
BRANCH  17  20
HETATM   20  N   UNL     1     -10.836  13.201  66.542  1.00  0.00    -0.278 N  
HETATM   21  C   UNL     1      -9.997  14.067  65.669  1.00  0.00    -0.286 C  
HETATM   22  C   UNL     1     -10.999  14.849  64.843  1.00  0.00    -0.422 C  
HETATM   23  C   UNL     1     -12.114  13.851  64.598  1.00  0.00    -0.458 C  
HETATM   24  C   UNL     1     -12.089  12.905  65.798  1.00  0.00    -0.457 C  
ENDBRANCH  17  20
ENDBRANCH  16  17
ENDBRANCH  13  16
ENDBRANCH   5   6
ENDBRANCH   4   5
ENDBRANCH   2   4
TORSDOF 6
ENDMDL
MODEL       34
REMARK 921   NORMALIZED FREE ENERGY PREDICTED BY IDOCK:   -5.67 KCAL/MOL
REMARK 922        TOTAL FREE ENERGY PREDICTED BY IDOCK:   -8.24 KCAL/MOL
REMARK 923 INTER-LIGAND FREE ENERGY PREDICTED BY IDOCK:   -7.62 KCAL/MOL
REMARK 924 INTRA-LIGAND FREE ENERGY PREDICTED BY IDOCK:   -0.62 KCAL/MOL
REMARK 927      BINDING AFFINITY PREDICTED BY RF-SCORE:    0.00 PKD
ROOT
HETATM    1  C   UNL     1      -8.172  11.213  66.881  1.00  0.00    -0.149 C  
HETATM    2  N   UNL     1      -9.221  10.187  66.891  1.00  0.00    -0.145 NA 
HETATM    3  C   UNL     1      -8.722   8.974  66.240  1.00  0.00    -0.135 C  
ENDROOT
BRANCH   2   4
HETATM    4  C   UNL     1      -9.645   9.936  68.284  1.00  0.00    -0.140 C  
BRANCH   4   5
HETATM    5  C   UNL     1     -11.167   9.976  68.521  1.00  0.00    -0.180 C  
BRANCH   5   6
HETATM    6  C   UNL     1     -11.582  11.214  69.263  1.00  0.00    -0.388 A  
HETATM    7  C   UNL     1     -12.064  11.264  70.559  1.00  0.00    -0.387 A  
HETATM    8  N   UNL     1     -12.377  12.562  70.851  1.00  0.00    -0.384 NA 
HETATM    9  C   UNL     1     -12.090  13.373  69.779  1.00  0.00    -0.310 A  
HETATM   10  H   UNL     1     -12.768  12.882  71.738  1.00  0.00     0.000 HD 
HETATM   11  C   UNL     1     -11.578  12.561  68.771  1.00  0.00    -0.366 A  
HETATM   12  C   UNL     1     -11.200  13.166  67.550  1.00  0.00    -0.314 A  
HETATM   13  C   UNL     1     -11.354  14.554  67.362  1.00  0.00    -0.370 A  
HETATM   14  C   UNL     1     -11.865  15.328  68.413  1.00  0.00    -0.283 A  
HETATM   15  C   UNL     1     -12.250  14.755  69.630  1.00  0.00    -0.310 A  
BRANCH  13  16
HETATM   16  C   UNL     1     -10.948  15.184  66.045  1.00  0.00    -0.332 C  
BRANCH  16  17
HETATM   17  S   UNL     1     -12.197  14.817  64.789  1.00  0.00    -0.277 S  
HETATM   18  O   UNL     1     -12.355  15.968  63.921  1.00  0.00    -0.855 OA 
HETATM   19  O   UNL     1     -13.339  14.175  65.400  1.00  0.00    -0.705 OA 
BRANCH  17  20
HETATM   20  N   UNL     1     -11.448  13.619  63.832  1.00  0.00    -0.264 N  
HETATM   21  C   UNL     1     -10.197  13.087  64.439  1.00  0.00    -0.311 C  
HETATM   22  C   UNL     1      -9.943  11.790  63.696  1.00  0.00    -0.404 C  
HETATM   23  C   UNL     1     -11.335  11.235  63.464  1.00  0.00    -0.091 C  
HETATM   24  C   UNL     1     -12.255  12.453  63.387  1.00  0.00    -0.523 C  
ENDBRANCH  17  20
ENDBRANCH  16  17
ENDBRANCH  13  16
ENDBRANCH   5   6
ENDBRANCH   4   5
ENDBRANCH   2   4
TORSDOF 6
ENDMDL
MODEL       35
REMARK 921   NORMALIZED FREE ENERGY PREDICTED BY IDOCK:   -5.66 KCAL/MOL
REMARK 922        TOTAL FREE ENERGY PREDICTED BY IDOCK:   -8.23 KCAL/MOL
REMARK 923 INTER-LIGAND FREE ENERGY PREDICTED BY IDOCK:   -7.57 KCAL/MOL
REMARK 924 INTRA-LIGAND FREE ENERGY PREDICTED BY IDOCK:   -0.67 KCAL/MOL
REMARK 927      BINDING AFFINITY PREDICTED BY RF-SCORE:    0.00 PKD
ROOT
HETATM    1  C   UNL     1     -11.242  16.400  64.671  1.00  0.00    -0.192 C  
HETATM    2  N   UNL     1     -10.815  15.125  65.258  1.00  0.00    -0.373 NA 
HETATM    3  C   UNL     1      -9.589  15.333  66.032  1.00  0.00    -0.338 C  
ENDROOT
BRANCH   2   4
HETATM    4  C   UNL     1     -11.909  14.579  66.088  1.00  0.00    -0.336 C  
BRANCH   4   5
HETATM    5  C   UNL     1     -12.703  13.426  65.444  1.00  0.00    -0.484 C  
BRANCH   5   6
HETATM    6  C   UNL     1     -11.795  12.374  64.874  1.00  0.00    -0.442 A  
HETATM    7  C   UNL     1     -11.729  11.987  63.548  1.00  0.00    -0.472 A  
HETATM    8  N   UNL     1     -10.820  10.971  63.441  1.00  0.00    -0.704 NA 
HETATM    9  C   UNL     1     -10.268  10.697  64.670  1.00  0.00    -0.334 A  
HETATM   10  H   UNL     1     -10.586  10.487  62.574  1.00  0.00     0.000 HD 
HETATM   11  C   UNL     1     -10.849  11.568  65.589  1.00  0.00    -0.310 A  
HETATM   12  C   UNL     1     -10.442  11.484  66.940  1.00  0.00    -0.270 A  
HETATM   13  C   UNL     1      -9.483  10.533  67.341  1.00  0.00    -0.172 A  
HETATM   14  C   UNL     1      -8.922   9.687  66.374  1.00  0.00    -0.179 A  
HETATM   15  C   UNL     1      -9.309   9.745  65.031  1.00  0.00    -0.325 A  
BRANCH  13  16
HETATM   16  C   UNL     1      -9.063  10.456  68.794  1.00  0.00    -0.165 C  
BRANCH  16  17
HETATM   17  S   UNL     1      -9.861   9.036  69.581  1.00  0.00    -0.185 S  
HETATM   18  O   UNL     1      -8.858   8.233  70.252  1.00  0.00    -0.137 OA 
HETATM   19  O   UNL     1     -10.815   8.440  68.672  1.00  0.00    -0.085 OA 
BRANCH  17  20
HETATM   20  N   UNL     1     -10.788   9.748  70.823  1.00  0.00    -0.319 N  
HETATM   21  C   UNL     1     -11.896  10.600  70.310  1.00  0.00    -0.342 C  
HETATM   22  C   UNL     1     -12.822  10.766  71.499  1.00  0.00    -0.567 C  
HETATM   23  C   UNL     1     -12.747   9.424  72.200  1.00  0.00    -0.460 C  
HETATM   24  C   UNL     1     -11.357   8.873  71.882  1.00  0.00    -0.376 C  
ENDBRANCH  17  20
ENDBRANCH  16  17
ENDBRANCH  13  16
ENDBRANCH   5   6
ENDBRANCH   4   5
ENDBRANCH   2   4
TORSDOF 6
ENDMDL
MODEL       36
REMARK 921   NORMALIZED FREE ENERGY PREDICTED BY IDOCK:   -5.60 KCAL/MOL
REMARK 922        TOTAL FREE ENERGY PREDICTED BY IDOCK:   -8.16 KCAL/MOL
REMARK 923 INTER-LIGAND FREE ENERGY PREDICTED BY IDOCK:   -7.60 KCAL/MOL
REMARK 924 INTRA-LIGAND FREE ENERGY PREDICTED BY IDOCK:   -0.56 KCAL/MOL
REMARK 927      BINDING AFFINITY PREDICTED BY RF-SCORE:    0.00 PKD
ROOT
HETATM    1  C   UNL     1      -7.926   6.053  65.909  1.00  0.00    -0.111 C  
HETATM    2  N   UNL     1      -8.657   7.320  65.789  1.00  0.00    -0.146 NA 
HETATM    3  C   UNL     1      -8.831   7.909  67.119  1.00  0.00    -0.132 C  
ENDROOT
BRANCH   2   4
HETATM    4  C   UNL     1      -7.925   8.222  64.875  1.00  0.00    -0.144 C  
BRANCH   4   5
HETATM    5  C   UNL     1      -8.098   9.726  65.165  1.00  0.00    -0.132 C  
BRANCH   5   6
HETATM    6  C   UNL     1      -9.227  10.320  64.373  1.00  0.00    -0.296 A  
HETATM    7  C   UNL     1      -9.425  10.185  63.010  1.00  0.00    -0.254 A  
HETATM    8  N   UNL     1     -10.529  10.913  62.663  1.00  0.00    -0.723 NA 
HETATM    9  C   UNL     1     -11.076  11.507  63.775  1.00  0.00    -0.390 A  
HETATM   10  H   UNL     1     -10.894  11.002  61.714  1.00  0.00     0.000 HD 
HETATM   11  C   UNL     1     -10.290  11.145  64.867  1.00  0.00    -0.375 A  
HETATM   12  C   UNL     1     -10.651  11.634  66.144  1.00  0.00    -0.306 A  
HETATM   13  C   UNL     1     -11.769  12.477  66.297  1.00  0.00    -0.462 A  
HETATM   14  C   UNL     1     -12.533  12.803  65.167  1.00  0.00    -0.565 A  
HETATM   15  C   UNL     1     -12.197  12.336  63.892  1.00  0.00    -0.608 A  
BRANCH  13  16
HETATM   16  C   UNL     1     -12.137  12.995  67.672  1.00  0.00    -0.209 C  
BRANCH  16  17
HETATM   17  S   UNL     1     -11.049  14.371  68.111  1.00  0.00    -0.275 S  
HETATM   18  O   UNL     1     -11.097  15.373  67.064  1.00  0.00    -0.322 OA 
HETATM   19  O   UNL     1      -9.789  13.866  68.609  1.00  0.00    -0.224 OA 
BRANCH  17  20
HETATM   20  N   UNL     1     -11.831  15.073  69.456  1.00  0.00    -0.314 N  
HETATM   21  C   UNL     1     -12.535  14.075  70.307  1.00  0.00    -0.338 C  
HETATM   22  C   UNL     1     -12.770  14.800  71.617  1.00  0.00    -0.399 C  
HETATM   23  C   UNL     1     -11.526  15.651  71.781  1.00  0.00    -0.505 C  
HETATM   24  C   UNL     1     -11.044  15.950  70.362  1.00  0.00    -0.370 C  
ENDBRANCH  17  20
ENDBRANCH  16  17
ENDBRANCH  13  16
ENDBRANCH   5   6
ENDBRANCH   4   5
ENDBRANCH   2   4
TORSDOF 6
ENDMDL
MODEL       37
REMARK 921   NORMALIZED FREE ENERGY PREDICTED BY IDOCK:   -5.60 KCAL/MOL
REMARK 922        TOTAL FREE ENERGY PREDICTED BY IDOCK:   -8.15 KCAL/MOL
REMARK 923 INTER-LIGAND FREE ENERGY PREDICTED BY IDOCK:   -7.56 KCAL/MOL
REMARK 924 INTRA-LIGAND FREE ENERGY PREDICTED BY IDOCK:   -0.60 KCAL/MOL
REMARK 927      BINDING AFFINITY PREDICTED BY RF-SCORE:    0.00 PKD
ROOT
HETATM    1  C   UNL     1     -13.406  15.885  73.292  1.00  0.00    -0.564 C  
HETATM    2  N   UNL     1     -13.034  14.913  72.257  1.00  0.00    -0.320 NA 
HETATM    3  C   UNL     1     -13.951  13.773  72.307  1.00  0.00    -0.573 C  
ENDROOT
BRANCH   2   4
HETATM    4  C   UNL     1     -13.047  15.577  70.936  1.00  0.00    -0.448 C  
BRANCH   4   5
HETATM    5  C   UNL     1     -11.657  15.848  70.328  1.00  0.00    -0.365 C  
BRANCH   5   6
HETATM    6  C   UNL     1     -11.485  15.164  69.003  1.00  0.00    -0.325 A  
HETATM    7  C   UNL     1     -11.316  15.787  67.780  1.00  0.00    -0.240 A  
HETATM    8  N   UNL     1     -11.248  14.824  66.812  1.00  0.00    -0.339 NA 
HETATM    9  C   UNL     1     -11.347  13.575  67.377  1.00  0.00    -0.311 A  
HETATM   10  H   UNL     1     -11.139  15.007  65.814  1.00  0.00     0.000 HD 
HETATM   11  C   UNL     1     -11.484  13.752  68.752  1.00  0.00    -0.338 A  
HETATM   12  C   UNL     1     -11.605  12.602  69.566  1.00  0.00    -0.348 A  
HETATM   13  C   UNL     1     -11.599  11.315  68.993  1.00  0.00    -0.386 A  
HETATM   14  C   UNL     1     -11.447  11.192  67.604  1.00  0.00    -0.328 A  
HETATM   15  C   UNL     1     -11.330  12.313  66.774  1.00  0.00    -0.395 A  
BRANCH  13  16
HETATM   16  C   UNL     1     -11.733  10.096  69.881  1.00  0.00    -0.179 C  
BRANCH  16  17
HETATM   17  S   UNL     1     -10.091   9.525  70.379  1.00  0.00    -0.282 S  
HETATM   18  O   UNL     1     -10.093   9.239  71.800  1.00  0.00    -0.293 OA 
HETATM   19  O   UNL     1      -9.075  10.365  69.784  1.00  0.00    -0.125 OA 
BRANCH  17  20
HETATM   20  N   UNL     1      -9.953   8.011  69.605  1.00  0.00    -0.185 N  
HETATM   21  C   UNL     1     -10.790   6.954  70.237  1.00  0.00    -0.257 C  
HETATM   22  C   UNL     1     -10.870   5.863  69.188  1.00  0.00    -0.406 C  
HETATM   23  C   UNL     1     -10.928   6.628  67.881  1.00  0.00    -0.342 C  
HETATM   24  C   UNL     1     -10.180   7.935  68.137  1.00  0.00    -0.205 C  
ENDBRANCH  17  20
ENDBRANCH  16  17
ENDBRANCH  13  16
ENDBRANCH   5   6
ENDBRANCH   4   5
ENDBRANCH   2   4
TORSDOF 6
ENDMDL
MODEL       38
REMARK 921   NORMALIZED FREE ENERGY PREDICTED BY IDOCK:   -5.59 KCAL/MOL
REMARK 922        TOTAL FREE ENERGY PREDICTED BY IDOCK:   -8.14 KCAL/MOL
REMARK 923 INTER-LIGAND FREE ENERGY PREDICTED BY IDOCK:   -7.64 KCAL/MOL
REMARK 924 INTRA-LIGAND FREE ENERGY PREDICTED BY IDOCK:   -0.50 KCAL/MOL
REMARK 927      BINDING AFFINITY PREDICTED BY RF-SCORE:    0.00 PKD
ROOT
HETATM    1  C   UNL     1      -7.118   9.672  62.714  1.00  0.00    -0.107 C  
HETATM    2  N   UNL     1      -8.356   9.065  63.216  1.00  0.00    -0.188 NA 
HETATM    3  C   UNL     1      -8.026   7.913  64.058  1.00  0.00    -0.124 C  
ENDROOT
BRANCH   2   4
HETATM    4  C   UNL     1      -9.136  10.083  63.951  1.00  0.00    -0.259 C  
BRANCH   4   5
HETATM    5  C   UNL     1      -9.774  11.176  63.072  1.00  0.00    -0.384 C  
BRANCH   5   6
HETATM    6  C   UNL     1     -10.977  11.788  63.729  1.00  0.00    -0.500 A  
HETATM    7  C   UNL     1     -12.292  11.627  63.332  1.00  0.00    -0.221 A  
HETATM    8  N   UNL     1     -13.084  12.383  64.150  1.00  0.00    -0.747 NA 
HETATM    9  C   UNL     1     -12.317  13.022  65.095  1.00  0.00    -0.484 A  
HETATM   10  H   UNL     1     -14.099  12.460  64.072  1.00  0.00     0.000 HD 
HETATM   11  C   UNL     1     -10.992  12.661  64.867  1.00  0.00    -0.326 A  
HETATM   12  C   UNL     1      -9.996  13.194  65.717  1.00  0.00    -0.260 A  
HETATM   13  C   UNL     1     -10.342  14.077  66.759  1.00  0.00    -0.271 A  
HETATM   14  C   UNL     1     -11.693  14.400  66.953  1.00  0.00    -0.422 A  
HETATM   15  C   UNL     1     -12.698  13.891  66.123  1.00  0.00    -0.336 A  
BRANCH  13  16
HETATM   16  C   UNL     1      -9.261  14.641  67.657  1.00  0.00    -0.193 C  
BRANCH  16  17
HETATM   17  S   UNL     1      -8.625  16.178  66.947  1.00  0.00    -0.248 S  
HETATM   18  O   UNL     1      -9.104  16.311  65.585  1.00  0.00    -0.428 OA 
HETATM   19  O   UNL     1      -7.222  16.327  67.267  1.00  0.00    -0.150 OA 
BRANCH  17  20
HETATM   20  N   UNL     1      -9.435  17.385  67.839  1.00  0.00    -0.260 N  
HETATM   21  C   UNL     1      -8.517  18.423  68.384  1.00  0.00    -0.326 C  
HETATM   22  C   UNL     1      -9.429  19.580  68.740  1.00  0.00    -0.447 C  
HETATM   23  C   UNL     1     -10.480  19.554  67.647  1.00  0.00    -0.593 C  
HETATM   24  C   UNL     1     -10.579  18.094  67.208  1.00  0.00    -0.367 C  
ENDBRANCH  17  20
ENDBRANCH  16  17
ENDBRANCH  13  16
ENDBRANCH   5   6
ENDBRANCH   4   5
ENDBRANCH   2   4
TORSDOF 6
ENDMDL
MODEL       39
REMARK 921   NORMALIZED FREE ENERGY PREDICTED BY IDOCK:   -5.58 KCAL/MOL
REMARK 922        TOTAL FREE ENERGY PREDICTED BY IDOCK:   -8.12 KCAL/MOL
REMARK 923 INTER-LIGAND FREE ENERGY PREDICTED BY IDOCK:   -8.35 KCAL/MOL
REMARK 924 INTRA-LIGAND FREE ENERGY PREDICTED BY IDOCK:    0.23 KCAL/MOL
REMARK 927      BINDING AFFINITY PREDICTED BY RF-SCORE:    0.00 PKD
ROOT
HETATM    1  C   UNL     1     -12.759  13.765  65.505  1.00  0.00    -0.488 C  
HETATM    2  N   UNL     1     -12.358  12.353  65.520  1.00  0.00    -0.624 NA 
HETATM    3  C   UNL     1     -12.072  11.915  64.152  1.00  0.00    -0.298 C  
ENDROOT
BRANCH   2   4
HETATM    4  C   UNL     1     -11.190  12.187  66.410  1.00  0.00    -0.331 C  
BRANCH   4   5
HETATM    5  C   UNL     1     -11.304  11.034  67.427  1.00  0.00    -0.306 C  
BRANCH   5   6
HETATM    6  C   UNL     1     -11.764  11.519  68.771  1.00  0.00    -0.397 A  
HETATM    7  C   UNL     1     -12.257  10.733  69.796  1.00  0.00    -0.288 A  
HETATM    8  N   UNL     1     -12.613  11.550  70.832  1.00  0.00    -0.366 NA 
HETATM    9  C   UNL     1     -12.343  12.861  70.518  1.00  0.00    -0.283 A  
HETATM   10  H   UNL     1     -13.020  11.233  71.712  1.00  0.00     0.000 HD 
HETATM   11  C   UNL     1     -11.798  12.876  69.236  1.00  0.00    -0.363 A  
HETATM   12  C   UNL     1     -11.430  14.122  68.679  1.00  0.00    -0.332 A  
HETATM   13  C   UNL     1     -11.625  15.315  69.402  1.00  0.00    -0.347 A  
HETATM   14  C   UNL     1     -12.168  15.244  70.693  1.00  0.00    -0.412 A  
HETATM   15  C   UNL     1     -12.545  14.025  71.267  1.00  0.00    -0.444 A  
BRANCH  13  16
HETATM   16  C   UNL     1     -11.229  16.641  68.786  1.00  0.00    -0.217 C  
BRANCH  16  17
HETATM   17  S   UNL     1      -9.601  16.487  68.014  1.00  0.00    -0.230 S  
HETATM   18  O   UNL     1      -9.701  15.628  66.851  1.00  0.00    -0.222 OA 
HETATM   19  O   UNL     1      -8.593  16.265  69.027  1.00  0.00    -0.242 OA 
BRANCH  17  20
HETATM   20  N   UNL     1      -9.308  18.054  67.405  1.00  0.00    -0.252 N  
HETATM   21  C   UNL     1     -10.159  18.391  66.230  1.00  0.00    -0.392 C  
HETATM   22  C   UNL     1     -10.073  19.901  66.126  1.00  0.00    -0.611 C  
HETATM   23  C   UNL     1     -10.025  20.355  67.572  1.00  0.00    -0.537 C  
HETATM   24  C   UNL     1      -9.371  19.208  68.341  1.00  0.00    -0.363 C  
ENDBRANCH  17  20
ENDBRANCH  16  17
ENDBRANCH  13  16
ENDBRANCH   5   6
ENDBRANCH   4   5
ENDBRANCH   2   4
TORSDOF 6
ENDMDL
MODEL       40
REMARK 921   NORMALIZED FREE ENERGY PREDICTED BY IDOCK:   -5.57 KCAL/MOL
REMARK 922        TOTAL FREE ENERGY PREDICTED BY IDOCK:   -8.11 KCAL/MOL
REMARK 923 INTER-LIGAND FREE ENERGY PREDICTED BY IDOCK:   -7.56 KCAL/MOL
REMARK 924 INTRA-LIGAND FREE ENERGY PREDICTED BY IDOCK:   -0.56 KCAL/MOL
REMARK 927      BINDING AFFINITY PREDICTED BY RF-SCORE:    0.00 PKD
ROOT
HETATM    1  C   UNL     1      -7.177  19.524  68.898  1.00  0.00    -0.362 C  
HETATM    2  N   UNL     1      -8.596  19.206  68.695  1.00  0.00    -0.360 NA 
HETATM    3  C   UNL     1      -9.147  20.083  67.659  1.00  0.00    -0.342 C  
ENDROOT
BRANCH   2   4
HETATM    4  C   UNL     1      -8.730  17.778  68.342  1.00  0.00    -0.292 C  
BRANCH   4   5
HETATM    5  C   UNL     1     -10.175  17.240  68.337  1.00  0.00    -0.358 C  
BRANCH   5   6
HETATM    6  C   UNL     1     -10.474  16.458  67.091  1.00  0.00    -0.297 A  
HETATM    7  C   UNL     1     -10.390  16.930  65.793  1.00  0.00    -0.283 A  
HETATM    8  N   UNL     1     -10.791  15.934  64.947  1.00  0.00    -0.616 NA 
HETATM    9  C   UNL     1     -11.117  14.806  65.661  1.00  0.00    -0.342 A  
HETATM   10  H   UNL     1     -10.841  16.017  63.931  1.00  0.00     0.000 HD 
HETATM   11  C   UNL     1     -10.917  15.097  67.009  1.00  0.00    -0.322 A  
HETATM   12  C   UNL     1     -11.185  14.085  67.959  1.00  0.00    -0.302 A  
HETATM   13  C   UNL     1     -11.654  12.822  67.547  1.00  0.00    -0.412 A  
HETATM   14  C   UNL     1     -11.828  12.577  66.177  1.00  0.00    -0.459 A  
HETATM   15  C   UNL     1     -11.575  13.561  65.216  1.00  0.00    -0.329 A  
BRANCH  13  16
HETATM   16  C   UNL     1     -11.940  11.752  68.581  1.00  0.00    -0.239 C  
BRANCH  16  17
HETATM   17  S   UNL     1     -10.596  10.541  68.585  1.00  0.00    -0.217 S  
HETATM   18  O   UNL     1      -9.327  11.233  68.698  1.00  0.00    -0.180 OA 
HETATM   19  O   UNL     1     -10.822   9.550  67.557  1.00  0.00    -0.280 OA 
BRANCH  17  20
HETATM   20  N   UNL     1     -10.810   9.727  70.069  1.00  0.00    -0.258 N  
HETATM   21  C   UNL     1     -12.037  10.153  70.797  1.00  0.00    -0.343 C  
HETATM   22  C   UNL     1     -12.271   9.053  71.813  1.00  0.00    -0.434 C  
HETATM   23  C   UNL     1     -11.851   7.795  71.079  1.00  0.00    -0.290 C  
HETATM   24  C   UNL     1     -10.785   8.240  70.079  1.00  0.00    -0.239 C  
ENDBRANCH  17  20
ENDBRANCH  16  17
ENDBRANCH  13  16
ENDBRANCH   5   6
ENDBRANCH   4   5
ENDBRANCH   2   4
TORSDOF 6
ENDMDL
MODEL       41
REMARK 921   NORMALIZED FREE ENERGY PREDICTED BY IDOCK:   -5.54 KCAL/MOL
REMARK 922        TOTAL FREE ENERGY PREDICTED BY IDOCK:   -8.07 KCAL/MOL
REMARK 923 INTER-LIGAND FREE ENERGY PREDICTED BY IDOCK:   -7.09 KCAL/MOL
REMARK 924 INTRA-LIGAND FREE ENERGY PREDICTED BY IDOCK:   -0.98 KCAL/MOL
REMARK 927      BINDING AFFINITY PREDICTED BY RF-SCORE:    0.00 PKD
ROOT
HETATM    1  C   UNL     1     -12.180  13.137  63.575  1.00  0.00    -0.476 C  
HETATM    2  N   UNL     1     -11.580  13.908  64.670  1.00  0.00    -0.368 NA 
HETATM    3  C   UNL     1     -11.628  15.335  64.345  1.00  0.00    -0.263 C  
ENDROOT
BRANCH   2   4
HETATM    4  C   UNL     1     -12.291  13.602  65.929  1.00  0.00    -0.471 C  
BRANCH   4   5
HETATM    5  C   UNL     1     -11.782  14.365  67.168  1.00  0.00    -0.424 C  
BRANCH   5   6
HETATM    6  C   UNL     1     -10.462  13.833  67.647  1.00  0.00    -0.242 A  
HETATM    7  C   UNL     1     -10.253  12.617  68.271  1.00  0.00    -0.239 A  
HETATM    8  N   UNL     1      -8.929  12.523  68.598  1.00  0.00    -0.388 NA 
HETATM    9  C   UNL     1      -8.256  13.647  68.180  1.00  0.00    -0.158 A  
HETATM   10  H   UNL     1      -8.501  11.733  69.082  1.00  0.00     0.000 HD 
HETATM   11  C   UNL     1      -9.187  14.484  67.569  1.00  0.00    -0.194 A  
HETATM   12  C   UNL     1      -8.737  15.719  67.048  1.00  0.00    -0.251 A  
HETATM   13  C   UNL     1      -7.383  16.092  67.160  1.00  0.00    -0.250 A  
HETATM   14  C   UNL     1      -6.485  15.208  67.776  1.00  0.00    -0.182 A  
HETATM   15  C   UNL     1      -6.904  13.982  68.303  1.00  0.00    -0.108 A  
BRANCH  13  16
HETATM   16  C   UNL     1      -6.921  17.421  66.600  1.00  0.00    -0.233 C  
BRANCH  16  17
HETATM   17  S   UNL     1      -6.938  18.669  67.909  1.00  0.00    -0.223 S  
HETATM   18  O   UNL     1      -5.898  19.646  67.654  1.00  0.00    -0.182 OA 
HETATM   19  O   UNL     1      -7.067  18.029  69.199  1.00  0.00    -0.257 OA 
BRANCH  17  20
HETATM   20  N   UNL     1      -8.413  19.487  67.649  1.00  0.00    -0.302 N  
HETATM   21  C   UNL     1      -8.787  19.571  66.210  1.00  0.00    -0.361 C  
HETATM   22  C   UNL     1     -10.263  19.915  66.226  1.00  0.00    -0.614 C  
HETATM   23  C   UNL     1     -10.794  19.150  67.423  1.00  0.00    -0.533 C  
HETATM   24  C   UNL     1      -9.619  19.041  68.394  1.00  0.00    -0.373 C  
ENDBRANCH  17  20
ENDBRANCH  16  17
ENDBRANCH  13  16
ENDBRANCH   5   6
ENDBRANCH   4   5
ENDBRANCH   2   4
TORSDOF 6
ENDMDL
MODEL       42
REMARK 921   NORMALIZED FREE ENERGY PREDICTED BY IDOCK:   -5.52 KCAL/MOL
REMARK 922        TOTAL FREE ENERGY PREDICTED BY IDOCK:   -8.05 KCAL/MOL
REMARK 923 INTER-LIGAND FREE ENERGY PREDICTED BY IDOCK:   -7.28 KCAL/MOL
REMARK 924 INTRA-LIGAND FREE ENERGY PREDICTED BY IDOCK:   -0.77 KCAL/MOL
REMARK 927      BINDING AFFINITY PREDICTED BY RF-SCORE:    0.00 PKD
ROOT
HETATM    1  C   UNL     1     -10.573  15.546  68.119  1.00  0.00    -0.266 C  
HETATM    2  N   UNL     1     -11.031  14.242  67.626  1.00  0.00    -0.271 NA 
HETATM    3  C   UNL     1     -11.925  13.635  68.614  1.00  0.00    -0.360 C  
ENDROOT
BRANCH   2   4
HETATM    4  C   UNL     1     -11.692  14.420  66.316  1.00  0.00    -0.385 C  
BRANCH   4   5
HETATM    5  C   UNL     1     -12.376  13.158  65.754  1.00  0.00    -0.496 C  
BRANCH   5   6
HETATM    6  C   UNL     1     -11.470  12.397  64.830  1.00  0.00    -0.375 A  
HETATM    7  C   UNL     1     -11.351  12.588  63.465  1.00  0.00    -0.486 A  
HETATM    8  N   UNL     1     -10.465  11.669  62.977  1.00  0.00    -0.675 NA 
HETATM    9  C   UNL     1      -9.979  10.889  64.000  1.00  0.00    -0.344 A  
HETATM   10  H   UNL     1     -10.202  11.575  61.996  1.00  0.00     0.000 HD 
HETATM   11  C   UNL     1     -10.579  11.328  65.177  1.00  0.00    -0.343 A  
HETATM   12  C   UNL     1     -10.239  10.678  66.386  1.00  0.00    -0.291 A  
HETATM   13  C   UNL     1      -9.325   9.606  66.389  1.00  0.00    -0.224 A  
HETATM   14  C   UNL     1      -8.740   9.210  65.177  1.00  0.00    -0.228 A  
HETATM   15  C   UNL     1      -9.062   9.833  63.966  1.00  0.00    -0.280 A  
BRANCH  13  16
HETATM   16  C   UNL     1      -8.976   8.919  67.693  1.00  0.00    -0.134 C  
BRANCH  16  17
HETATM   17  S   UNL     1      -9.699   7.261  67.716  1.00  0.00    -0.146 S  
HETATM   18  O   UNL     1      -8.663   6.282  67.454  1.00  0.00    -0.108 OA 
HETATM   19  O   UNL     1     -10.942   7.255  66.978  1.00  0.00    -0.358 OA 
BRANCH  17  20
HETATM   20  N   UNL     1     -10.131   7.047  69.353  1.00  0.00    -0.166 N  
HETATM   21  C   UNL     1     -10.347   8.333  70.072  1.00  0.00    -0.212 C  
HETATM   22  C   UNL     1     -11.119   7.940  71.316  1.00  0.00    -0.278 C  
HETATM   23  C   UNL     1     -12.024   6.822  70.837  1.00  0.00    -0.437 C  
HETATM   24  C   UNL     1     -11.278   6.160  69.679  1.00  0.00    -0.418 C  
ENDBRANCH  17  20
ENDBRANCH  16  17
ENDBRANCH  13  16
ENDBRANCH   5   6
ENDBRANCH   4   5
ENDBRANCH   2   4
TORSDOF 6
ENDMDL
MODEL       43
REMARK 921   NORMALIZED FREE ENERGY PREDICTED BY IDOCK:   -5.52 KCAL/MOL
REMARK 922        TOTAL FREE ENERGY PREDICTED BY IDOCK:   -8.05 KCAL/MOL
REMARK 923 INTER-LIGAND FREE ENERGY PREDICTED BY IDOCK:   -7.44 KCAL/MOL
REMARK 924 INTRA-LIGAND FREE ENERGY PREDICTED BY IDOCK:   -0.61 KCAL/MOL
REMARK 927      BINDING AFFINITY PREDICTED BY RF-SCORE:    0.00 PKD
ROOT
HETATM    1  C   UNL     1     -10.745  15.748  69.784  1.00  0.00    -0.316 C  
HETATM    2  N   UNL     1     -10.989  14.595  68.910  1.00  0.00    -0.243 NA 
HETATM    3  C   UNL     1     -12.075  13.785  69.465  1.00  0.00    -0.334 C  
ENDROOT
BRANCH   2   4
HETATM    4  C   UNL     1     -11.296  15.073  67.545  1.00  0.00    -0.333 C  
BRANCH   4   5
HETATM    5  C   UNL     1     -12.126  14.101  66.684  1.00  0.00    -0.480 C  
BRANCH   5   6
HETATM    6  C   UNL     1     -11.253  13.231  65.827  1.00  0.00    -0.313 A  
HETATM    7  C   UNL     1     -10.711  13.576  64.602  1.00  0.00    -0.416 A  
HETATM    8  N   UNL     1     -10.022  12.499  64.118  1.00  0.00    -0.584 NA 
HETATM    9  C   UNL     1     -10.080  11.456  65.012  1.00  0.00    -0.274 A  
HETATM   10  H   UNL     1      -9.535  12.473  63.222  1.00  0.00     0.000 HD 
HETATM   11  C   UNL     1     -10.834  11.887  66.102  1.00  0.00    -0.334 A  
HETATM   12  C   UNL     1     -11.041  10.986  67.171  1.00  0.00    -0.333 A  
HETATM   13  C   UNL     1     -10.506   9.683  67.123  1.00  0.00    -0.317 A  
HETATM   14  C   UNL     1      -9.745   9.303  66.008  1.00  0.00    -0.359 A  
HETATM   15  C   UNL     1      -9.528  10.173  64.934  1.00  0.00    -0.349 A  
BRANCH  13  16
HETATM   16  C   UNL     1     -10.742   8.730  68.277  1.00  0.00    -0.067 C  
BRANCH  16  17
HETATM   17  S   UNL     1      -9.657   9.169  69.656  1.00  0.00    -0.185 S  
HETATM   18  O   UNL     1      -9.084  10.480  69.416  1.00  0.00    -0.181 OA 
HETATM   19  O   UNL     1      -8.826   8.040  70.010  1.00  0.00    -0.141 OA 
BRANCH  17  20
HETATM   20  N   UNL     1     -10.742   9.372  70.956  1.00  0.00    -0.311 N  
HETATM   21  C   UNL     1     -11.897  10.250  70.620  1.00  0.00    -0.347 C  
HETATM   22  C   UNL     1     -12.919   9.954  71.701  1.00  0.00    -0.536 C  
HETATM   23  C   UNL     1     -12.747   8.469  71.957  1.00  0.00    -0.421 C  
HETATM   24  C   UNL     1     -11.287   8.163  71.628  1.00  0.00    -0.264 C  
ENDBRANCH  17  20
ENDBRANCH  16  17
ENDBRANCH  13  16
ENDBRANCH   5   6
ENDBRANCH   4   5
ENDBRANCH   2   4
TORSDOF 6
ENDMDL
MODEL       44
REMARK 921   NORMALIZED FREE ENERGY PREDICTED BY IDOCK:   -5.50 KCAL/MOL
REMARK 922        TOTAL FREE ENERGY PREDICTED BY IDOCK:   -8.02 KCAL/MOL
REMARK 923 INTER-LIGAND FREE ENERGY PREDICTED BY IDOCK:   -7.38 KCAL/MOL
REMARK 924 INTRA-LIGAND FREE ENERGY PREDICTED BY IDOCK:   -0.64 KCAL/MOL
REMARK 927      BINDING AFFINITY PREDICTED BY RF-SCORE:    0.00 PKD
ROOT
HETATM    1  C   UNL     1     -12.656  13.546  65.730  1.00  0.00    -0.434 C  
HETATM    2  N   UNL     1     -12.261  14.221  64.488  1.00  0.00    -0.539 NA 
HETATM    3  C   UNL     1     -11.043  14.999  64.723  1.00  0.00    -0.376 C  
ENDROOT
BRANCH   2   4
HETATM    4  C   UNL     1     -12.077  13.213  63.422  1.00  0.00    -0.486 C  
BRANCH   4   5
HETATM    5  C   UNL     1     -11.967  11.757  63.913  1.00  0.00    -0.427 C  
BRANCH   5   6
HETATM    6  C   UNL     1     -10.541  11.286  63.946  1.00  0.00    -0.455 A  
HETATM    7  C   UNL     1      -9.564  11.582  63.012  1.00  0.00    -0.346 A  
HETATM    8  N   UNL     1      -8.418  10.927  63.366  1.00  0.00    -0.370 NA 
HETATM    9  C   UNL     1      -8.615  10.221  64.529  1.00  0.00    -0.186 A  
HETATM   10  H   UNL     1      -7.543  10.957  62.842  1.00  0.00     0.000 HD 
HETATM   11  C   UNL     1      -9.933  10.435  64.926  1.00  0.00    -0.409 A  
HETATM   12  C   UNL     1     -10.385   9.809  66.111  1.00  0.00    -0.215 A  
HETATM   13  C   UNL     1      -9.524   8.982  66.857  1.00  0.00    -0.219 A  
HETATM   14  C   UNL     1      -8.203   8.808  66.419  1.00  0.00    -0.111 A  
HETATM   15  C   UNL     1      -7.730   9.411  65.249  1.00  0.00    -0.108 A  
BRANCH  13  16
HETATM   16  C   UNL     1     -10.028   8.316  68.121  1.00  0.00    -0.191 C  
BRANCH  16  17
HETATM   17  S   UNL     1      -9.759   9.415  69.532  1.00  0.00    -0.194 S  
HETATM   18  O   UNL     1      -9.103  10.626  69.079  1.00  0.00    -0.174 OA 
HETATM   19  O   UNL     1      -9.247   8.660  70.655  1.00  0.00    -0.153 OA 
BRANCH  17  20
HETATM   20  N   UNL     1     -11.339   9.884  69.970  1.00  0.00    -0.254 N  
HETATM   21  C   UNL     1     -11.657   9.602  71.397  1.00  0.00    -0.400 C  
HETATM   22  C   UNL     1     -12.877  10.456  71.684  1.00  0.00    -0.579 C  
HETATM   23  C   UNL     1     -12.630  11.714  70.876  1.00  0.00    -0.409 C  
HETATM   24  C   UNL     1     -11.777  11.276  69.686  1.00  0.00    -0.350 C  
ENDBRANCH  17  20
ENDBRANCH  16  17
ENDBRANCH  13  16
ENDBRANCH   5   6
ENDBRANCH   4   5
ENDBRANCH   2   4
TORSDOF 6
ENDMDL
MODEL       45
REMARK 921   NORMALIZED FREE ENERGY PREDICTED BY IDOCK:   -5.50 KCAL/MOL
REMARK 922        TOTAL FREE ENERGY PREDICTED BY IDOCK:   -8.02 KCAL/MOL
REMARK 923 INTER-LIGAND FREE ENERGY PREDICTED BY IDOCK:   -7.49 KCAL/MOL
REMARK 924 INTRA-LIGAND FREE ENERGY PREDICTED BY IDOCK:   -0.54 KCAL/MOL
REMARK 927      BINDING AFFINITY PREDICTED BY RF-SCORE:    0.00 PKD
ROOT
HETATM    1  C   UNL     1      -9.226   8.253  67.517  1.00  0.00    -0.137 C  
HETATM    2  N   UNL     1     -10.252   7.399  68.125  1.00  0.00    -0.180 NA 
HETATM    3  C   UNL     1     -10.949   6.651  67.075  1.00  0.00    -0.393 C  
ENDROOT
BRANCH   2   4
HETATM    4  C   UNL     1      -9.619   6.503  69.115  1.00  0.00    -0.134 C  
BRANCH   4   5
HETATM    5  C   UNL     1      -9.430   7.112  70.519  1.00  0.00    -0.162 C  
BRANCH   5   6
HETATM    6  C   UNL     1     -10.745   7.367  71.197  1.00  0.00    -0.246 A  
HETATM    7  C   UNL     1     -11.485   6.443  71.913  1.00  0.00    -0.304 A  
HETATM    8  N   UNL     1     -12.640   7.045  72.327  1.00  0.00    -0.528 NA 
HETATM    9  C   UNL     1     -12.666   8.357  71.916  1.00  0.00    -0.355 A  
HETATM   10  H   UNL     1     -13.377   6.587  72.865  1.00  0.00     0.000 HD 
HETATM   11  C   UNL     1     -11.487   8.594  71.214  1.00  0.00    -0.341 A  
HETATM   12  C   UNL     1     -11.272   9.887  70.683  1.00  0.00    -0.416 A  
HETATM   13  C   UNL     1     -12.237  10.899  70.851  1.00  0.00    -0.485 A  
HETATM   14  C   UNL     1     -13.403  10.610  71.575  1.00  0.00    -0.359 A  
HETATM   15  C   UNL     1     -13.643   9.339  72.108  1.00  0.00    -0.536 A  
BRANCH  13  16
HETATM   16  C   UNL     1     -11.991  12.276  70.271  1.00  0.00    -0.290 C  
BRANCH  16  17
HETATM   17  S   UNL     1     -11.407  12.119  68.566  1.00  0.00    -0.302 S  
HETATM   18  O   UNL     1     -12.286  11.225  67.839  1.00  0.00    -0.570 OA 
HETATM   19  O   UNL     1      -9.972  11.938  68.551  1.00  0.00    -0.207 OA 
BRANCH  17  20
HETATM   20  N   UNL     1     -11.685  13.670  67.914  1.00  0.00    -0.340 N  
HETATM   21  C   UNL     1     -11.386  14.769  68.873  1.00  0.00    -0.282 C  
HETATM   22  C   UNL     1     -11.272  16.005  68.003  1.00  0.00    -0.303 C  
HETATM   23  C   UNL     1     -10.617  15.490  66.737  1.00  0.00    -0.307 C  
HETATM   24  C   UNL     1     -11.044  14.027  66.620  1.00  0.00    -0.309 C  
ENDBRANCH  17  20
ENDBRANCH  16  17
ENDBRANCH  13  16
ENDBRANCH   5   6
ENDBRANCH   4   5
ENDBRANCH   2   4
TORSDOF 6
ENDMDL
MODEL       46
REMARK 921   NORMALIZED FREE ENERGY PREDICTED BY IDOCK:   -5.50 KCAL/MOL
REMARK 922        TOTAL FREE ENERGY PREDICTED BY IDOCK:   -8.01 KCAL/MOL
REMARK 923 INTER-LIGAND FREE ENERGY PREDICTED BY IDOCK:   -7.30 KCAL/MOL
REMARK 924 INTRA-LIGAND FREE ENERGY PREDICTED BY IDOCK:   -0.72 KCAL/MOL
REMARK 927      BINDING AFFINITY PREDICTED BY RF-SCORE:    0.00 PKD
ROOT
HETATM    1  C   UNL     1     -10.180  19.922  68.335  1.00  0.00    -0.433 C  
HETATM    2  N   UNL     1      -9.716  19.377  67.053  1.00  0.00    -0.319 NA 
HETATM    3  C   UNL     1     -10.536  19.921  65.968  1.00  0.00    -0.475 C  
ENDROOT
BRANCH   2   4
HETATM    4  C   UNL     1      -8.283  19.694  66.878  1.00  0.00    -0.294 C  
BRANCH   4   5
HETATM    5  C   UNL     1      -7.547  18.832  65.834  1.00  0.00    -0.191 C  
BRANCH   5   6
HETATM    6  C   UNL     1      -7.083  17.528  66.416  1.00  0.00    -0.321 A  
HETATM    7  C   UNL     1      -5.774  17.182  66.697  1.00  0.00    -0.186 A  
HETATM    8  N   UNL     1      -5.759  15.898  67.166  1.00  0.00    -0.335 NA 
HETATM    9  C   UNL     1      -7.039  15.398  67.220  1.00  0.00    -0.171 A  
HETATM   10  H   UNL     1      -4.920  15.385  67.437  1.00  0.00     0.000 HD 
HETATM   11  C   UNL     1      -7.895  16.399  66.769  1.00  0.00    -0.301 A  
HETATM   12  C   UNL     1      -9.282  16.128  66.730  1.00  0.00    -0.255 A  
HETATM   13  C   UNL     1      -9.776  14.870  67.127  1.00  0.00    -0.229 A  
HETATM   14  C   UNL     1      -8.873  13.900  67.584  1.00  0.00    -0.191 A  
HETATM   15  C   UNL     1      -7.495  14.140  67.629  1.00  0.00    -0.192 A  
BRANCH  13  16
HETATM   16  C   UNL     1     -11.265  14.597  67.074  1.00  0.00    -0.344 C  
BRANCH  16  17
HETATM   17  S   UNL     1     -11.674  13.774  65.516  1.00  0.00    -0.363 S  
HETATM   18  O   UNL     1     -10.611  14.006  64.558  1.00  0.00    -0.416 OA 
HETATM   19  O   UNL     1     -13.058  14.020  65.176  1.00  0.00    -0.776 OA 
BRANCH  17  20
HETATM   20  N   UNL     1     -11.582  12.118  65.914  1.00  0.00    -0.384 N  
HETATM   21  C   UNL     1     -10.385  11.445  65.339  1.00  0.00    -0.279 C  
HETATM   22  C   UNL     1     -10.256  10.163  66.137  1.00  0.00    -0.285 C  
HETATM   23  C   UNL     1     -10.681  10.568  67.534  1.00  0.00    -0.326 C  
HETATM   24  C   UNL     1     -11.667  11.720  67.345  1.00  0.00    -0.230 C  
ENDBRANCH  17  20
ENDBRANCH  16  17
ENDBRANCH  13  16
ENDBRANCH   5   6
ENDBRANCH   4   5
ENDBRANCH   2   4
TORSDOF 6
ENDMDL
MODEL       47
REMARK 921   NORMALIZED FREE ENERGY PREDICTED BY IDOCK:   -5.49 KCAL/MOL
REMARK 922        TOTAL FREE ENERGY PREDICTED BY IDOCK:   -8.00 KCAL/MOL
REMARK 923 INTER-LIGAND FREE ENERGY PREDICTED BY IDOCK:   -7.56 KCAL/MOL
REMARK 924 INTRA-LIGAND FREE ENERGY PREDICTED BY IDOCK:   -0.44 KCAL/MOL
REMARK 927      BINDING AFFINITY PREDICTED BY RF-SCORE:    0.00 PKD
ROOT
HETATM    1  C   UNL     1     -10.178   5.416  66.265  1.00  0.00    -0.192 C  
HETATM    2  N   UNL     1      -9.609   6.588  66.941  1.00  0.00    -0.152 NA 
HETATM    3  C   UNL     1      -8.704   7.286  66.026  1.00  0.00    -0.151 C  
ENDROOT
BRANCH   2   4
HETATM    4  C   UNL     1     -10.706   7.461  67.410  1.00  0.00    -0.278 C  
BRANCH   4   5
HETATM    5  C   UNL     1     -10.529   8.958  67.091  1.00  0.00    -0.344 C  
BRANCH   5   6
HETATM    6  C   UNL     1     -10.807   9.819  68.289  1.00  0.00    -0.256 A  
HETATM    7  C   UNL     1     -10.756   9.417  69.612  1.00  0.00    -0.235 A  
HETATM    8  N   UNL     1     -11.123  10.473  70.398  1.00  0.00    -0.409 NA 
HETATM    9  C   UNL     1     -11.394  11.573  69.618  1.00  0.00    -0.256 A  
HETATM   10  H   UNL     1     -11.187  10.449  71.416  1.00  0.00     0.000 HD 
HETATM   11  C   UNL     1     -11.193  11.201  68.291  1.00  0.00    -0.343 A  
HETATM   12  C   UNL     1     -11.408  12.169  67.284  1.00  0.00    -0.398 A  
HETATM   13  C   UNL     1     -11.827  13.471  67.621  1.00  0.00    -0.399 A  
HETATM   14  C   UNL     1     -12.005  13.798  68.973  1.00  0.00    -0.399 A  
HETATM   15  C   UNL     1     -11.803  12.858  69.990  1.00  0.00    -0.356 A  
BRANCH  13  16
HETATM   16  C   UNL     1     -12.056  14.494  66.527  1.00  0.00    -0.309 C  
BRANCH  16  17
HETATM   17  S   UNL     1     -10.521  14.750  65.607  1.00  0.00    -0.377 S  
HETATM   18  O   UNL     1      -9.404  14.263  66.393  1.00  0.00    -0.280 OA 
HETATM   19  O   UNL     1     -10.509  16.074  65.025  1.00  0.00    -0.558 OA 
BRANCH  17  20
HETATM   20  N   UNL     1     -10.667  13.669  64.295  1.00  0.00    -0.350 N  
HETATM   21  C   UNL     1      -9.870  12.424  64.474  1.00  0.00    -0.078 C  
HETATM   22  C   UNL     1     -10.459  11.455  63.468  1.00  0.00    -0.477 C  
HETATM   23  C   UNL     1     -11.939  11.784  63.479  1.00  0.00    -0.484 C  
HETATM   24  C   UNL     1     -12.027  13.264  63.851  1.00  0.00    -0.483 C  
ENDBRANCH  17  20
ENDBRANCH  16  17
ENDBRANCH  13  16
ENDBRANCH   5   6
ENDBRANCH   4   5
ENDBRANCH   2   4
TORSDOF 6
ENDMDL
MODEL       48
REMARK 921   NORMALIZED FREE ENERGY PREDICTED BY IDOCK:   -5.46 KCAL/MOL
REMARK 922        TOTAL FREE ENERGY PREDICTED BY IDOCK:   -7.97 KCAL/MOL
REMARK 923 INTER-LIGAND FREE ENERGY PREDICTED BY IDOCK:   -7.47 KCAL/MOL
REMARK 924 INTRA-LIGAND FREE ENERGY PREDICTED BY IDOCK:   -0.50 KCAL/MOL
REMARK 927      BINDING AFFINITY PREDICTED BY RF-SCORE:    0.00 PKD
ROOT
HETATM    1  C   UNL     1     -12.154  15.855  71.973  1.00  0.00    -0.506 C  
HETATM    2  N   UNL     1     -12.478  14.454  71.681  1.00  0.00    -0.346 NA 
HETATM    3  C   UNL     1     -13.660  14.057  72.450  1.00  0.00    -0.557 C  
ENDROOT
BRANCH   2   4
HETATM    4  C   UNL     1     -12.683  14.293  70.226  1.00  0.00    -0.249 C  
BRANCH   4   5
HETATM    5  C   UNL     1     -11.950  13.095  69.592  1.00  0.00    -0.370 C  
BRANCH   5   6
HETATM    6  C   UNL     1     -11.602  13.351  68.154  1.00  0.00    -0.376 A  
HETATM    7  C   UNL     1     -12.013  12.597  67.070  1.00  0.00    -0.260 A  
HETATM    8  N   UNL     1     -11.446  13.121  65.942  1.00  0.00    -0.322 NA 
HETATM    9  C   UNL     1     -10.687  14.222  66.260  1.00  0.00    -0.297 A  
HETATM   10  H   UNL     1     -11.569  12.749  65.000  1.00  0.00     0.000 HD 
HETATM   11  C   UNL     1     -10.774  14.402  67.638  1.00  0.00    -0.263 A  
HETATM   12  C   UNL     1     -10.072  15.483  68.219  1.00  0.00    -0.218 A  
HETATM   13  C   UNL     1      -9.297  16.345  67.418  1.00  0.00    -0.223 A  
HETATM   14  C   UNL     1      -9.251  16.127  66.034  1.00  0.00    -0.363 A  
HETATM   15  C   UNL     1      -9.932  15.062  65.434  1.00  0.00    -0.365 A  
BRANCH  13  16
HETATM   16  C   UNL     1      -8.548  17.496  68.059  1.00  0.00    -0.250 C  
BRANCH  16  17
HETATM   17  S   UNL     1      -9.599  18.968  68.072  1.00  0.00    -0.347 S  
HETATM   18  O   UNL     1      -9.735  19.447  69.434  1.00  0.00    -0.316 OA 
HETATM   19  O   UNL     1     -10.757  18.756  67.232  1.00  0.00    -0.437 OA 
BRANCH  17  20
HETATM   20  N   UNL     1      -8.648  20.133  67.267  1.00  0.00    -0.334 N  
HETATM   21  C   UNL     1      -7.395  20.469  67.997  1.00  0.00    -0.166 C  
HETATM   22  C   UNL     1      -6.525  21.145  66.956  1.00  0.00    -0.414 C  
HETATM   23  C   UNL     1      -6.845  20.392  65.680  1.00  0.00    -0.278 C  
HETATM   24  C   UNL     1      -8.282  19.898  65.845  1.00  0.00    -0.211 C  
ENDBRANCH  17  20
ENDBRANCH  16  17
ENDBRANCH  13  16
ENDBRANCH   5   6
ENDBRANCH   4   5
ENDBRANCH   2   4
TORSDOF 6
ENDMDL
MODEL       49
REMARK 921   NORMALIZED FREE ENERGY PREDICTED BY IDOCK:   -5.46 KCAL/MOL
REMARK 922        TOTAL FREE ENERGY PREDICTED BY IDOCK:   -7.97 KCAL/MOL
REMARK 923 INTER-LIGAND FREE ENERGY PREDICTED BY IDOCK:   -7.51 KCAL/MOL
REMARK 924 INTRA-LIGAND FREE ENERGY PREDICTED BY IDOCK:   -0.46 KCAL/MOL
REMARK 927      BINDING AFFINITY PREDICTED BY RF-SCORE:    0.00 PKD
ROOT
HETATM    1  C   UNL     1     -11.045  15.286  64.854  1.00  0.00    -0.424 C  
HETATM    2  N   UNL     1     -11.465  13.890  65.028  1.00  0.00    -0.327 NA 
HETATM    3  C   UNL     1     -12.365  13.793  66.179  1.00  0.00    -0.452 C  
ENDROOT
BRANCH   2   4
HETATM    4  C   UNL     1     -12.102  13.413  63.784  1.00  0.00    -0.456 C  
BRANCH   4   5
HETATM    5  C   UNL     1     -12.004  11.894  63.541  1.00  0.00    -0.567 C  
BRANCH   5   6
HETATM    6  C   UNL     1     -10.597  11.395  63.697  1.00  0.00    -0.476 A  
HETATM    7  C   UNL     1      -9.605  11.440  62.734  1.00  0.00    -0.257 A  
HETATM    8  N   UNL     1      -8.485  10.842  63.241  1.00  0.00    -0.369 NA 
HETATM    9  C   UNL     1      -8.714  10.423  64.531  1.00  0.00    -0.194 A  
HETATM   10  H   UNL     1      -7.607  10.724  62.736  1.00  0.00     0.000 HD 
HETATM   11  C   UNL     1     -10.025  10.765  64.852  1.00  0.00    -0.374 A  
HETATM   12  C   UNL     1     -10.506  10.438  66.140  1.00  0.00    -0.224 A  
HETATM   13  C   UNL     1      -9.679   9.771  67.065  1.00  0.00    -0.233 A  
HETATM   14  C   UNL     1      -8.363   9.458  66.695  1.00  0.00    -0.119 A  
HETATM   15  C   UNL     1      -7.862   9.767  65.426  1.00  0.00    -0.122 A  
BRANCH  13  16
HETATM   16  C   UNL     1     -10.214   9.425  68.439  1.00  0.00    -0.197 C  
BRANCH  16  17
HETATM   17  S   UNL     1     -11.125  10.838  69.108  1.00  0.00    -0.270 S  
HETATM   18  O   UNL     1     -12.384  10.974  68.402  1.00  0.00    -0.528 OA 
HETATM   19  O   UNL     1     -10.234  11.964  69.278  1.00  0.00     0.024 OA 
BRANCH  17  20
HETATM   20  N   UNL     1     -11.534  10.328  70.684  1.00  0.00    -0.329 N  
HETATM   21  C   UNL     1     -13.003  10.290  70.921  1.00  0.00    -0.371 C  
HETATM   22  C   UNL     1     -13.159   9.429  72.159  1.00  0.00    -0.526 C  
HETATM   23  C   UNL     1     -12.078   8.378  72.002  1.00  0.00    -0.417 C  
HETATM   24  C   UNL     1     -10.970   9.048  71.189  1.00  0.00    -0.301 C  
ENDBRANCH  17  20
ENDBRANCH  16  17
ENDBRANCH  13  16
ENDBRANCH   5   6
ENDBRANCH   4   5
ENDBRANCH   2   4
TORSDOF 6
ENDMDL
MODEL       50
REMARK 921   NORMALIZED FREE ENERGY PREDICTED BY IDOCK:   -5.45 KCAL/MOL
REMARK 922        TOTAL FREE ENERGY PREDICTED BY IDOCK:   -7.95 KCAL/MOL
REMARK 923 INTER-LIGAND FREE ENERGY PREDICTED BY IDOCK:   -7.38 KCAL/MOL
REMARK 924 INTRA-LIGAND FREE ENERGY PREDICTED BY IDOCK:   -0.58 KCAL/MOL
REMARK 927      BINDING AFFINITY PREDICTED BY RF-SCORE:    0.00 PKD
ROOT
HETATM    1  C   UNL     1     -10.126  10.908  63.511  1.00  0.00    -0.347 C  
HETATM    2  N   UNL     1     -10.490  11.707  64.687  1.00  0.00    -0.284 NA 
HETATM    3  C   UNL     1      -9.585  11.386  65.792  1.00  0.00    -0.233 C  
ENDROOT
BRANCH   2   4
HETATM    4  C   UNL     1     -10.447  13.142  64.334  1.00  0.00    -0.407 C  
BRANCH   4   5
HETATM    5  C   UNL     1     -11.710  13.943  64.707  1.00  0.00    -0.399 C  
BRANCH   5   6
HETATM    6  C   UNL     1     -11.723  14.319  66.160  1.00  0.00    -0.397 A  
HETATM    7  C   UNL     1     -12.382  13.641  67.170  1.00  0.00    -0.190 A  
HETATM    8  N   UNL     1     -12.194  14.324  68.340  1.00  0.00    -0.595 NA 
HETATM    9  C   UNL     1     -11.403  15.428  68.123  1.00  0.00    -0.348 A  
HETATM   10  H   UNL     1     -12.584  14.053  69.243  1.00  0.00     0.000 HD 
HETATM   11  C   UNL     1     -11.080  15.447  66.769  1.00  0.00    -0.244 A  
HETATM   12  C   UNL     1     -10.264  16.498  66.289  1.00  0.00    -0.343 A  
HETATM   13  C   UNL     1      -9.805  17.503  67.163  1.00  0.00    -0.297 A  
HETATM   14  C   UNL     1     -10.150  17.431  68.521  1.00  0.00    -0.352 A  
HETATM   15  C   UNL     1     -10.960  16.405  69.021  1.00  0.00    -0.325 A  
BRANCH  13  16
HETATM   16  C   UNL     1      -8.935  18.623  66.630  1.00  0.00    -0.306 C  
BRANCH  16  17
HETATM   17  S   UNL     1      -7.272  17.993  66.300  1.00  0.00    -0.292 S  
HETATM   18  O   UNL     1      -6.783  18.559  65.058  1.00  0.00    -0.515 OA 
HETATM   19  O   UNL     1      -7.226  16.568  66.545  1.00  0.00    -0.227 OA 
BRANCH  17  20
HETATM   20  N   UNL     1      -6.333  18.706  67.532  1.00  0.00    -0.193 N  
HETATM   21  C   UNL     1      -6.763  20.092  67.865  1.00  0.00    -0.278 C  
HETATM   22  C   UNL     1      -6.131  20.366  69.216  1.00  0.00    -0.367 C  
HETATM   23  C   UNL     1      -6.208  19.028  69.923  1.00  0.00    -0.226 C  
HETATM   24  C   UNL     1      -6.165  17.975  68.816  1.00  0.00    -0.210 C  
ENDBRANCH  17  20
ENDBRANCH  16  17
ENDBRANCH  13  16
ENDBRANCH   5   6
ENDBRANCH   4   5
ENDBRANCH   2   4
TORSDOF 6
ENDMDL
MODEL       51
REMARK 921   NORMALIZED FREE ENERGY PREDICTED BY IDOCK:   -5.45 KCAL/MOL
REMARK 922        TOTAL FREE ENERGY PREDICTED BY IDOCK:   -7.95 KCAL/MOL
REMARK 923 INTER-LIGAND FREE ENERGY PREDICTED BY IDOCK:   -7.57 KCAL/MOL
REMARK 924 INTRA-LIGAND FREE ENERGY PREDICTED BY IDOCK:   -0.38 KCAL/MOL
REMARK 927      BINDING AFFINITY PREDICTED BY RF-SCORE:    0.00 PKD
ROOT
HETATM    1  C   UNL     1     -10.147   4.964  70.861  1.00  0.00    -0.222 C  
HETATM    2  N   UNL     1     -10.824   5.261  72.129  1.00  0.00    -0.214 NA 
HETATM    3  C   UNL     1      -9.972   4.841  73.245  1.00  0.00    -0.155 C  
ENDROOT
BRANCH   2   4
HETATM    4  C   UNL     1     -11.142   6.703  72.187  1.00  0.00    -0.254 C  
BRANCH   4   5
HETATM    5  C   UNL     1     -12.273   7.159  71.245  1.00  0.00    -0.403 C  
BRANCH   5   6
HETATM    6  C   UNL     1     -12.677   8.581  71.508  1.00  0.00    -0.340 A  
HETATM    7  C   UNL     1     -13.632   9.003  72.415  1.00  0.00    -0.477 A  
HETATM    8  N   UNL     1     -13.745  10.362  72.320  1.00  0.00    -0.447 NA 
HETATM    9  C   UNL     1     -12.865  10.848  71.382  1.00  0.00    -0.449 A  
HETATM   10  H   UNL     1     -14.390  10.933  72.868  1.00  0.00     0.000 HD 
HETATM   11  C   UNL     1     -12.171   9.758  70.862  1.00  0.00    -0.390 A  
HETATM   12  C   UNL     1     -11.194   9.998  69.868  1.00  0.00    -0.327 A  
HETATM   13  C   UNL     1     -10.946  11.308  69.411  1.00  0.00    -0.282 A  
HETATM   14  C   UNL     1     -11.665  12.371  69.976  1.00  0.00    -0.307 A  
HETATM   15  C   UNL     1     -12.640  12.161  70.958  1.00  0.00    -0.359 A  
BRANCH  13  16
HETATM   16  C   UNL     1      -9.899  11.545  68.343  1.00  0.00    -0.204 C  
BRANCH  16  17
HETATM   17  S   UNL     1     -10.710  11.786  66.744  1.00  0.00    -0.265 S  
HETATM   18  O   UNL     1     -12.139  11.921  66.948  1.00  0.00    -0.599 OA 
HETATM   19  O   UNL     1     -10.175  10.857  65.774  1.00  0.00    -0.244 OA 
BRANCH  17  20
HETATM   20  N   UNL     1     -10.166  13.328  66.259  1.00  0.00    -0.289 N  
HETATM   21  C   UNL     1     -10.795  13.797  64.993  1.00  0.00    -0.371 C  
HETATM   22  C   UNL     1     -10.533  15.290  64.976  1.00  0.00    -0.411 C  
HETATM   23  C   UNL     1     -10.648  15.689  66.434  1.00  0.00    -0.308 C  
HETATM   24  C   UNL     1     -10.240  14.450  67.231  1.00  0.00    -0.252 C  
ENDBRANCH  17  20
ENDBRANCH  16  17
ENDBRANCH  13  16
ENDBRANCH   5   6
ENDBRANCH   4   5
ENDBRANCH   2   4
TORSDOF 6
ENDMDL
MODEL       52
REMARK 921   NORMALIZED FREE ENERGY PREDICTED BY IDOCK:   -5.44 KCAL/MOL
REMARK 922        TOTAL FREE ENERGY PREDICTED BY IDOCK:   -7.94 KCAL/MOL
REMARK 923 INTER-LIGAND FREE ENERGY PREDICTED BY IDOCK:   -7.75 KCAL/MOL
REMARK 924 INTRA-LIGAND FREE ENERGY PREDICTED BY IDOCK:   -0.20 KCAL/MOL
REMARK 927      BINDING AFFINITY PREDICTED BY RF-SCORE:    0.00 PKD
ROOT
HETATM    1  C   UNL     1     -13.333  14.290  72.555  1.00  0.00    -0.500 C  
HETATM    2  N   UNL     1     -13.096  15.658  72.081  1.00  0.00    -0.437 NA 
HETATM    3  C   UNL     1     -12.149  16.326  72.976  1.00  0.00    -0.530 C  
ENDROOT
BRANCH   2   4
HETATM    4  C   UNL     1     -12.604  15.613  70.688  1.00  0.00    -0.414 C  
BRANCH   4   5
HETATM    5  C   UNL     1     -11.127  16.011  70.504  1.00  0.00    -0.370 C  
BRANCH   5   6
HETATM    6  C   UNL     1     -10.835  16.434  69.093  1.00  0.00    -0.329 A  
HETATM    7  C   UNL     1     -10.387  17.680  68.692  1.00  0.00    -0.359 A  
HETATM    8  N   UNL     1     -10.291  17.684  67.329  1.00  0.00    -0.346 NA 
HETATM    9  C   UNL     1     -10.646  16.455  66.824  1.00  0.00    -0.238 A  
HETATM   10  H   UNL     1      -9.998  18.484  66.767  1.00  0.00     0.000 HD 
HETATM   11  C   UNL     1     -10.981  15.644  67.905  1.00  0.00    -0.319 A  
HETATM   12  C   UNL     1     -11.384  14.314  67.646  1.00  0.00    -0.344 A  
HETATM   13  C   UNL     1     -11.456  13.833  66.323  1.00  0.00    -0.349 A  
HETATM   14  C   UNL     1     -11.098  14.688  65.271  1.00  0.00    -0.363 A  
HETATM   15  C   UNL     1     -10.699  16.010  65.499  1.00  0.00    -0.374 A  
BRANCH  13  16
HETATM   16  C   UNL     1     -11.894  12.407  66.064  1.00  0.00    -0.395 C  
BRANCH  16  17
HETATM   17  S   UNL     1     -10.832  11.270  66.987  1.00  0.00    -0.288 S  
HETATM   18  O   UNL     1     -11.647  10.475  67.885  1.00  0.00    -0.461 OA 
HETATM   19  O   UNL     1      -9.656  11.967  67.459  1.00  0.00    -0.172 OA 
BRANCH  17  20
HETATM   20  N   UNL     1     -10.281  10.190  65.787  1.00  0.00    -0.246 N  
HETATM   21  C   UNL     1      -9.304  10.809  64.850  1.00  0.00    -0.222 C  
HETATM   22  C   UNL     1      -8.633   9.628  64.176  1.00  0.00    -0.209 C  
HETATM   23  C   UNL     1      -8.542   8.593  65.279  1.00  0.00    -0.206 C  
HETATM   24  C   UNL     1      -9.720   8.879  66.209  1.00  0.00    -0.275 C  
ENDBRANCH  17  20
ENDBRANCH  16  17
ENDBRANCH  13  16
ENDBRANCH   5   6
ENDBRANCH   4   5
ENDBRANCH   2   4
TORSDOF 6
ENDMDL
MODEL       53
REMARK 921   NORMALIZED FREE ENERGY PREDICTED BY IDOCK:   -5.43 KCAL/MOL
REMARK 922        TOTAL FREE ENERGY PREDICTED BY IDOCK:   -7.92 KCAL/MOL
REMARK 923 INTER-LIGAND FREE ENERGY PREDICTED BY IDOCK:   -7.36 KCAL/MOL
REMARK 924 INTRA-LIGAND FREE ENERGY PREDICTED BY IDOCK:   -0.57 KCAL/MOL
REMARK 927      BINDING AFFINITY PREDICTED BY RF-SCORE:    0.00 PKD
ROOT
HETATM    1  C   UNL     1     -10.415  17.163  68.598  1.00  0.00    -0.366 C  
HETATM    2  N   UNL     1     -10.517  15.768  69.042  1.00  0.00    -0.213 NA 
HETATM    3  C   UNL     1      -9.201  15.132  68.956  1.00  0.00    -0.221 C  
ENDROOT
BRANCH   2   4
HETATM    4  C   UNL     1     -11.063  15.731  70.415  1.00  0.00    -0.366 C  
BRANCH   4   5
HETATM    5  C   UNL     1     -12.589  15.533  70.505  1.00  0.00    -0.462 C  
BRANCH   5   6
HETATM    6  C   UNL     1     -12.944  14.260  71.217  1.00  0.00    -0.422 A  
HETATM    7  C   UNL     1     -13.616  14.160  72.422  1.00  0.00    -0.532 A  
HETATM    8  N   UNL     1     -13.700  12.838  72.759  1.00  0.00    -0.698 NA 
HETATM    9  C   UNL     1     -13.115  12.061  71.786  1.00  0.00    -0.355 A  
HETATM   10  H   UNL     1     -14.135  12.479  73.610  1.00  0.00     0.000 HD 
HETATM   11  C   UNL     1     -12.642  12.921  70.799  1.00  0.00    -0.314 A  
HETATM   12  C   UNL     1     -11.993  12.359  69.675  1.00  0.00    -0.341 A  
HETATM   13  C   UNL     1     -11.821  10.964  69.572  1.00  0.00    -0.404 A  
HETATM   14  C   UNL     1     -12.326  10.142  70.590  1.00  0.00    -0.382 A  
HETATM   15  C   UNL     1     -12.969  10.672  71.714  1.00  0.00    -0.577 A  
BRANCH  13  16
HETATM   16  C   UNL     1     -11.119  10.381  68.364  1.00  0.00    -0.268 C  
BRANCH  16  17
HETATM   17  S   UNL     1      -9.823   9.242  68.908  1.00  0.00    -0.170 S  
HETATM   18  O   UNL     1     -10.384   7.913  69.056  1.00  0.00    -0.210 OA 
HETATM   19  O   UNL     1      -9.043   9.850  69.964  1.00  0.00    -0.225 OA 
BRANCH  17  20
HETATM   20  N   UNL     1      -8.786   9.156  67.556  1.00  0.00    -0.119 N  
HETATM   21  C   UNL     1      -9.432   8.540  66.365  1.00  0.00    -0.232 C  
HETATM   22  C   UNL     1      -8.543   8.946  65.206  1.00  0.00    -0.209 C  
HETATM   23  C   UNL     1      -8.099  10.349  65.571  1.00  0.00    -0.156 C  
HETATM   24  C   UNL     1      -8.105  10.396  67.099  1.00  0.00    -0.115 C  
ENDBRANCH  17  20
ENDBRANCH  16  17
ENDBRANCH  13  16
ENDBRANCH   5   6
ENDBRANCH   4   5
ENDBRANCH   2   4
TORSDOF 6
ENDMDL
MODEL       54
REMARK 921   NORMALIZED FREE ENERGY PREDICTED BY IDOCK:   -5.42 KCAL/MOL
REMARK 922        TOTAL FREE ENERGY PREDICTED BY IDOCK:   -7.92 KCAL/MOL
REMARK 923 INTER-LIGAND FREE ENERGY PREDICTED BY IDOCK:   -7.40 KCAL/MOL
REMARK 924 INTRA-LIGAND FREE ENERGY PREDICTED BY IDOCK:   -0.52 KCAL/MOL
REMARK 927      BINDING AFFINITY PREDICTED BY RF-SCORE:    0.00 PKD
ROOT
HETATM    1  C   UNL     1     -14.318  14.605  72.031  1.00  0.00    -0.558 C  
HETATM    2  N   UNL     1     -13.409  15.690  71.644  1.00  0.00    -0.492 NA 
HETATM    3  C   UNL     1     -12.428  15.905  72.710  1.00  0.00    -0.466 C  
ENDROOT
BRANCH   2   4
HETATM    4  C   UNL     1     -12.765  15.353  70.358  1.00  0.00    -0.362 C  
BRANCH   4   5
HETATM    5  C   UNL     1     -11.421  16.061  70.095  1.00  0.00    -0.350 C  
BRANCH   5   6
HETATM    6  C   UNL     1     -11.047  16.025  68.642  1.00  0.00    -0.349 A  
HETATM    7  C   UNL     1     -10.776  17.121  67.843  1.00  0.00    -0.355 A  
HETATM    8  N   UNL     1     -10.527  16.678  66.574  1.00  0.00    -0.290 NA 
HETATM    9  C   UNL     1     -10.607  15.306  66.526  1.00  0.00    -0.304 A  
HETATM   10  H   UNL     1     -10.313  17.278  65.778  1.00  0.00     0.000 HD 
HETATM   11  C   UNL     1     -10.919  14.864  67.810  1.00  0.00    -0.294 A  
HETATM   12  C   UNL     1     -11.057  13.473  68.024  1.00  0.00    -0.283 A  
HETATM   13  C   UNL     1     -10.894  12.565  66.959  1.00  0.00    -0.287 A  
HETATM   14  C   UNL     1     -10.570  13.062  65.688  1.00  0.00    -0.297 A  
HETATM   15  C   UNL     1     -10.432  14.433  65.447  1.00  0.00    -0.391 A  
BRANCH  13  16
HETATM   16  C   UNL     1     -11.050  11.079  67.208  1.00  0.00    -0.294 C  
BRANCH  16  17
HETATM   17  S   UNL     1      -9.604  10.460  68.100  1.00  0.00    -0.147 S  
HETATM   18  O   UNL     1      -8.560  11.466  68.078  1.00  0.00    -0.135 OA 
HETATM   19  O   UNL     1      -9.336   9.091  67.716  1.00  0.00    -0.139 OA 
BRANCH  17  20
HETATM   20  N   UNL     1     -10.143  10.391  69.717  1.00  0.00    -0.202 N  
HETATM   21  C   UNL     1     -11.626  10.333  69.835  1.00  0.00    -0.256 C  
HETATM   22  C   UNL     1     -11.870   9.847  71.250  1.00  0.00    -0.479 C  
HETATM   23  C   UNL     1     -10.743   8.862  71.488  1.00  0.00    -0.398 C  
HETATM   24  C   UNL     1      -9.587   9.341  70.611  1.00  0.00    -0.273 C  
ENDBRANCH  17  20
ENDBRANCH  16  17
ENDBRANCH  13  16
ENDBRANCH   5   6
ENDBRANCH   4   5
ENDBRANCH   2   4
TORSDOF 6
ENDMDL
MODEL       55
REMARK 921   NORMALIZED FREE ENERGY PREDICTED BY IDOCK:   -5.38 KCAL/MOL
REMARK 922        TOTAL FREE ENERGY PREDICTED BY IDOCK:   -7.86 KCAL/MOL
REMARK 923 INTER-LIGAND FREE ENERGY PREDICTED BY IDOCK:   -7.49 KCAL/MOL
REMARK 924 INTRA-LIGAND FREE ENERGY PREDICTED BY IDOCK:   -0.37 KCAL/MOL
REMARK 927      BINDING AFFINITY PREDICTED BY RF-SCORE:    0.00 PKD
ROOT
HETATM    1  C   UNL     1     -12.007  14.172  66.780  1.00  0.00    -0.447 C  
HETATM    2  N   UNL     1     -12.470  13.704  65.468  1.00  0.00    -0.482 NA 
HETATM    3  C   UNL     1     -12.219  14.741  64.465  1.00  0.00    -0.428 C  
ENDROOT
BRANCH   2   4
HETATM    4  C   UNL     1     -11.790  12.434  65.135  1.00  0.00    -0.388 C  
BRANCH   4   5
HETATM    5  C   UNL     1     -10.477  12.177  65.901  1.00  0.00    -0.288 C  
BRANCH   5   6
HETATM    6  C   UNL     1     -10.257  10.713  66.153  1.00  0.00    -0.308 A  
HETATM    7  C   UNL     1      -9.905   9.768  65.207  1.00  0.00    -0.265 A  
HETATM    8  N   UNL     1      -9.851   8.546  65.818  1.00  0.00    -0.423 NA 
HETATM    9  C   UNL     1     -10.140   8.672  67.156  1.00  0.00    -0.261 A  
HETATM   10  H   UNL     1      -9.629   7.668  65.348  1.00  0.00     0.000 HD 
HETATM   11  C   UNL     1     -10.387  10.020  67.402  1.00  0.00    -0.292 A  
HETATM   12  C   UNL     1     -10.710  10.413  68.721  1.00  0.00    -0.255 A  
HETATM   13  C   UNL     1     -10.791   9.456  69.753  1.00  0.00    -0.250 A  
HETATM   14  C   UNL     1     -10.522   8.112  69.454  1.00  0.00    -0.223 A  
HETATM   15  C   UNL     1     -10.205   7.696  68.157  1.00  0.00    -0.236 A  
BRANCH  13  16
HETATM   16  C   UNL     1     -11.142   9.895  71.159  1.00  0.00    -0.289 C  
BRANCH  16  17
HETATM   17  S   UNL     1     -12.850  10.491  71.198  1.00  0.00    -0.434 S  
HETATM   18  O   UNL     1     -13.558   9.844  72.285  1.00  0.00    -0.402 OA 
HETATM   19  O   UNL     1     -13.394  10.519  69.859  1.00  0.00     0.047 OA 
BRANCH  17  20
HETATM   20  N   UNL     1     -12.682  12.123  71.665  1.00  0.00    -0.263 N  
HETATM   21  C   UNL     1     -12.353  13.024  70.527  1.00  0.00    -0.287 C  
HETATM   22  C   UNL     1     -12.675  14.413  71.043  1.00  0.00    -0.416 C  
HETATM   23  C   UNL     1     -13.899  14.196  71.910  1.00  0.00    -0.539 C  
HETATM   24  C   UNL     1     -13.784  12.764  72.431  1.00  0.00    -0.360 C  
ENDBRANCH  17  20
ENDBRANCH  16  17
ENDBRANCH  13  16
ENDBRANCH   5   6
ENDBRANCH   4   5
ENDBRANCH   2   4
TORSDOF 6
ENDMDL
MODEL       56
REMARK 921   NORMALIZED FREE ENERGY PREDICTED BY IDOCK:   -5.38 KCAL/MOL
REMARK 922        TOTAL FREE ENERGY PREDICTED BY IDOCK:   -7.85 KCAL/MOL
REMARK 923 INTER-LIGAND FREE ENERGY PREDICTED BY IDOCK:   -7.70 KCAL/MOL
REMARK 924 INTRA-LIGAND FREE ENERGY PREDICTED BY IDOCK:   -0.16 KCAL/MOL
REMARK 927      BINDING AFFINITY PREDICTED BY RF-SCORE:    0.00 PKD
ROOT
HETATM    1  C   UNL     1     -10.079  18.352  68.446  1.00  0.00    -0.390 C  
HETATM    2  N   UNL     1      -9.494  17.006  68.415  1.00  0.00    -0.260 NA 
HETATM    3  C   UNL     1      -8.056  17.095  68.673  1.00  0.00    -0.264 C  
ENDROOT
BRANCH   2   4
HETATM    4  C   UNL     1     -10.184  16.152  69.404  1.00  0.00    -0.266 C  
BRANCH   4   5
HETATM    5  C   UNL     1     -11.616  15.733  69.019  1.00  0.00    -0.406 C  
BRANCH   5   6
HETATM    6  C   UNL     1     -12.329  15.071  70.162  1.00  0.00    -0.380 A  
HETATM    7  C   UNL     1     -13.022  15.714  71.172  1.00  0.00    -0.478 A  
HETATM    8  N   UNL     1     -13.483  14.770  72.047  1.00  0.00    -0.346 NA 
HETATM    9  C   UNL     1     -13.125  13.512  71.620  1.00  0.00    -0.374 A  
HETATM   10  H   UNL     1     -14.015  14.970  72.894  1.00  0.00     0.000 HD 
HETATM   11  C   UNL     1     -12.411  13.665  70.434  1.00  0.00    -0.364 A  
HETATM   12  C   UNL     1     -11.929  12.503  69.789  1.00  0.00    -0.359 A  
HETATM   13  C   UNL     1     -12.157  11.229  70.345  1.00  0.00    -0.474 A  
HETATM   14  C   UNL     1     -12.891  11.130  71.536  1.00  0.00    -0.542 A  
HETATM   15  C   UNL     1     -13.376  12.263  72.197  1.00  0.00    -0.473 A  
BRANCH  13  16
HETATM   16  C   UNL     1     -11.628   9.996  69.641  1.00  0.00    -0.096 C  
BRANCH  16  17
HETATM   17  S   UNL     1     -11.173   8.747  70.868  1.00  0.00    -0.281 S  
HETATM   18  O   UNL     1     -12.376   8.134  71.396  1.00  0.00    -0.301 OA 
HETATM   19  O   UNL     1     -10.148   9.267  71.745  1.00  0.00    -0.293 OA 
BRANCH  17  20
HETATM   20  N   UNL     1     -10.414   7.540  69.932  1.00  0.00    -0.224 N  
HETATM   21  C   UNL     1     -10.809   6.160  70.329  1.00  0.00    -0.319 C  
HETATM   22  C   UNL     1     -10.398   5.300  69.150  1.00  0.00    -0.264 C  
HETATM   23  C   UNL     1     -10.675   6.184  67.950  1.00  0.00    -0.374 C  
HETATM   24  C   UNL     1     -10.509   7.618  68.450  1.00  0.00    -0.169 C  
ENDBRANCH  17  20
ENDBRANCH  16  17
ENDBRANCH  13  16
ENDBRANCH   5   6
ENDBRANCH   4   5
ENDBRANCH   2   4
TORSDOF 6
ENDMDL
MODEL       57
REMARK 921   NORMALIZED FREE ENERGY PREDICTED BY IDOCK:   -5.37 KCAL/MOL
REMARK 922        TOTAL FREE ENERGY PREDICTED BY IDOCK:   -7.85 KCAL/MOL
REMARK 923 INTER-LIGAND FREE ENERGY PREDICTED BY IDOCK:   -7.37 KCAL/MOL
REMARK 924 INTRA-LIGAND FREE ENERGY PREDICTED BY IDOCK:   -0.48 KCAL/MOL
REMARK 927      BINDING AFFINITY PREDICTED BY RF-SCORE:    0.00 PKD
ROOT
HETATM    1  C   UNL     1     -12.213  15.924  72.261  1.00  0.00    -0.496 C  
HETATM    2  N   UNL     1     -12.696  14.646  71.725  1.00  0.00    -0.322 NA 
HETATM    3  C   UNL     1     -14.047  14.386  72.227  1.00  0.00    -0.516 C  
ENDROOT
BRANCH   2   4
HETATM    4  C   UNL     1     -12.652  14.688  70.248  1.00  0.00    -0.318 C  
BRANCH   4   5
HETATM    5  C   UNL     1     -11.787  13.597  69.589  1.00  0.00    -0.396 C  
BRANCH   5   6
HETATM    6  C   UNL     1     -11.649  13.812  68.110  1.00  0.00    -0.370 A  
HETATM    7  C   UNL     1     -11.910  12.879  67.123  1.00  0.00    -0.362 A  
HETATM    8  N   UNL     1     -11.616  13.440  65.911  1.00  0.00    -0.330 NA 
HETATM    9  C   UNL     1     -11.187  14.735  66.079  1.00  0.00    -0.341 A  
HETATM   10  H   UNL     1     -11.703  12.965  65.012  1.00  0.00     0.000 HD 
HETATM   11  C   UNL     1     -11.208  15.005  67.446  1.00  0.00    -0.337 A  
HETATM   12  C   UNL     1     -10.807  16.288  67.882  1.00  0.00    -0.330 A  
HETATM   13  C   UNL     1     -10.386  17.260  66.953  1.00  0.00    -0.310 A  
HETATM   14  C   UNL     1     -10.393  16.941  65.587  1.00  0.00    -0.254 A  
HETATM   15  C   UNL     1     -10.782  15.678  65.129  1.00  0.00    -0.463 A  
BRANCH  13  16
HETATM   16  C   UNL     1      -9.955  18.628  67.439  1.00  0.00    -0.332 C  
BRANCH  16  17
HETATM   17  S   UNL     1      -8.170  18.816  67.215  1.00  0.00    -0.267 S  
HETATM   18  O   UNL     1      -7.658  19.744  68.205  1.00  0.00    -0.295 OA 
HETATM   19  O   UNL     1      -7.863  18.972  65.811  1.00  0.00    -0.462 OA 
BRANCH  17  20
HETATM   20  N   UNL     1      -7.558  17.287  67.657  1.00  0.00    -0.176 N  
HETATM   21  C   UNL     1      -6.372  16.879  66.855  1.00  0.00    -0.202 C  
HETATM   22  C   UNL     1      -5.742  15.760  67.661  1.00  0.00    -0.148 C  
HETATM   23  C   UNL     1      -5.959  16.190  69.099  1.00  0.00    -0.134 C  
HETATM   24  C   UNL     1      -7.234  17.033  69.086  1.00  0.00    -0.209 C  
ENDBRANCH  17  20
ENDBRANCH  16  17
ENDBRANCH  13  16
ENDBRANCH   5   6
ENDBRANCH   4   5
ENDBRANCH   2   4
TORSDOF 6
ENDMDL
MODEL       58
REMARK 921   NORMALIZED FREE ENERGY PREDICTED BY IDOCK:   -5.35 KCAL/MOL
REMARK 922        TOTAL FREE ENERGY PREDICTED BY IDOCK:   -7.82 KCAL/MOL
REMARK 923 INTER-LIGAND FREE ENERGY PREDICTED BY IDOCK:   -7.36 KCAL/MOL
REMARK 924 INTRA-LIGAND FREE ENERGY PREDICTED BY IDOCK:   -0.46 KCAL/MOL
REMARK 927      BINDING AFFINITY PREDICTED BY RF-SCORE:    0.00 PKD
ROOT
HETATM    1  C   UNL     1     -12.686  13.742  65.813  1.00  0.00    -0.446 C  
HETATM    2  N   UNL     1     -12.368  14.353  64.517  1.00  0.00    -0.611 NA 
HETATM    3  C   UNL     1     -11.243  15.277  64.678  1.00  0.00    -0.356 C  
ENDROOT
BRANCH   2   4
HETATM    4  C   UNL     1     -12.075  13.289  63.534  1.00  0.00    -0.482 C  
BRANCH   4   5
HETATM    5  C   UNL     1     -12.073  11.857  64.104  1.00  0.00    -0.397 C  
BRANCH   5   6
HETATM    6  C   UNL     1     -10.681  11.376  64.396  1.00  0.00    -0.405 A  
HETATM    7  C   UNL     1      -9.651  11.258  63.480  1.00  0.00    -0.303 A  
HETATM    8  N   UNL     1      -8.562  10.738  64.122  1.00  0.00    -0.348 NA 
HETATM    9  C   UNL     1      -8.848  10.531  65.451  1.00  0.00    -0.187 A  
HETATM   10  H   UNL     1      -7.666  10.533  63.679  1.00  0.00     0.000 HD 
HETATM   11  C   UNL     1     -10.165  10.933  65.659  1.00  0.00    -0.323 A  
HETATM   12  C   UNL     1     -10.703  10.819  66.961  1.00  0.00    -0.320 A  
HETATM   13  C   UNL     1      -9.924  10.300  68.014  1.00  0.00    -0.177 A  
HETATM   14  C   UNL     1      -8.599   9.920  67.754  1.00  0.00    -0.121 A  
HETATM   15  C   UNL     1      -8.043  10.018  66.474  1.00  0.00    -0.119 A  
BRANCH  13  16
HETATM   16  C   UNL     1     -10.519  10.181  69.402  1.00  0.00    -0.233 C  
BRANCH  16  17
HETATM   17  S   UNL     1     -10.329   8.485  69.999  1.00  0.00    -0.215 S  
HETATM   18  O   UNL     1      -9.071   8.364  70.709  1.00  0.00    -0.142 OA 
HETATM   19  O   UNL     1     -10.695   7.551  68.957  1.00  0.00    -0.207 OA 
BRANCH  17  20
HETATM   20  N   UNL     1     -11.544   8.352  71.189  1.00  0.00    -0.276 N  
HETATM   21  C   UNL     1     -12.354   9.592  71.336  1.00  0.00    -0.378 C  
HETATM   22  C   UNL     1     -13.596   9.142  72.080  1.00  0.00    -0.520 C  
HETATM   23  C   UNL     1     -13.861   7.756  71.525  1.00  0.00    -0.439 C  
HETATM   24  C   UNL     1     -12.493   7.210  71.118  1.00  0.00    -0.359 C  
ENDBRANCH  17  20
ENDBRANCH  16  17
ENDBRANCH  13  16
ENDBRANCH   5   6
ENDBRANCH   4   5
ENDBRANCH   2   4
TORSDOF 6
ENDMDL
MODEL       59
REMARK 921   NORMALIZED FREE ENERGY PREDICTED BY IDOCK:   -5.35 KCAL/MOL
REMARK 922        TOTAL FREE ENERGY PREDICTED BY IDOCK:   -7.81 KCAL/MOL
REMARK 923 INTER-LIGAND FREE ENERGY PREDICTED BY IDOCK:   -7.02 KCAL/MOL
REMARK 924 INTRA-LIGAND FREE ENERGY PREDICTED BY IDOCK:   -0.79 KCAL/MOL
REMARK 927      BINDING AFFINITY PREDICTED BY RF-SCORE:    0.00 PKD
ROOT
HETATM    1  C   UNL     1      -9.707  14.985  67.031  1.00  0.00    -0.236 C  
HETATM    2  N   UNL     1     -10.773  14.126  66.503  1.00  0.00    -0.287 NA 
HETATM    3  C   UNL     1     -10.176  12.973  65.824  1.00  0.00    -0.290 C  
ENDROOT
BRANCH   2   4
HETATM    4  C   UNL     1     -11.665  13.718  67.608  1.00  0.00    -0.367 C  
BRANCH   4   5
HETATM    5  C   UNL     1     -11.147  14.051  69.021  1.00  0.00    -0.296 C  
BRANCH   5   6
HETATM    6  C   UNL     1     -11.937  13.346  70.085  1.00  0.00    -0.396 A  
HETATM    7  C   UNL     1     -12.820  13.937  70.970  1.00  0.00    -0.324 A  
HETATM    8  N   UNL     1     -13.297  12.971  71.812  1.00  0.00    -0.411 NA 
HETATM    9  C   UNL     1     -12.762  11.748  71.483  1.00  0.00    -0.295 A  
HETATM   10  H   UNL     1     -13.956  13.134  72.574  1.00  0.00     0.000 HD 
HETATM   11  C   UNL     1     -11.914  11.946  70.396  1.00  0.00    -0.400 A  
HETATM   12  C   UNL     1     -11.236  10.826  69.863  1.00  0.00    -0.371 A  
HETATM   13  C   UNL     1     -11.408   9.548  70.431  1.00  0.00    -0.318 A  
HETATM   14  C   UNL     1     -12.281   9.402  71.518  1.00  0.00    -0.448 A  
HETATM   15  C   UNL     1     -12.962  10.493  72.068  1.00  0.00    -0.490 A  
BRANCH  13  16
HETATM   16  C   UNL     1     -10.669   8.361  69.849  1.00  0.00    -0.227 C  
BRANCH  16  17
HETATM   17  S   UNL     1      -9.120   8.112  70.749  1.00  0.00    -0.150 S  
HETATM   18  O   UNL     1      -8.878   9.252  71.611  1.00  0.00    -0.312 OA 
HETATM   19  O   UNL     1      -8.099   7.621  69.850  1.00  0.00    -0.119 OA 
BRANCH  17  20
HETATM   20  N   UNL     1      -9.481   6.813  71.794  1.00  0.00    -0.151 N  
HETATM   21  C   UNL     1      -9.683   7.239  73.206  1.00  0.00    -0.232 C  
HETATM   22  C   UNL     1     -10.397   6.069  73.852  1.00  0.00    -0.293 C  
HETATM   23  C   UNL     1     -11.308   5.557  72.753  1.00  0.00    -0.359 C  
HETATM   24  C   UNL     1     -10.603   5.903  71.443  1.00  0.00    -0.252 C  
ENDBRANCH  17  20
ENDBRANCH  16  17
ENDBRANCH  13  16
ENDBRANCH   5   6
ENDBRANCH   4   5
ENDBRANCH   2   4
TORSDOF 6
ENDMDL
MODEL       60
REMARK 921   NORMALIZED FREE ENERGY PREDICTED BY IDOCK:   -5.35 KCAL/MOL
REMARK 922        TOTAL FREE ENERGY PREDICTED BY IDOCK:   -7.81 KCAL/MOL
REMARK 923 INTER-LIGAND FREE ENERGY PREDICTED BY IDOCK:   -7.14 KCAL/MOL
REMARK 924 INTRA-LIGAND FREE ENERGY PREDICTED BY IDOCK:   -0.67 KCAL/MOL
REMARK 927      BINDING AFFINITY PREDICTED BY RF-SCORE:    0.00 PKD
ROOT
HETATM    1  C   UNL     1     -12.006  11.265  69.812  1.00  0.00    -0.360 C  
HETATM    2  N   UNL     1     -10.891  10.353  70.095  1.00  0.00    -0.288 NA 
HETATM    3  C   UNL     1     -11.245   9.488  71.223  1.00  0.00    -0.382 C  
ENDROOT
BRANCH   2   4
HETATM    4  C   UNL     1     -10.575   9.576  68.878  1.00  0.00    -0.216 C  
BRANCH   4   5
HETATM    5  C   UNL     1      -9.358  10.082  68.080  1.00  0.00    -0.139 C  
BRANCH   5   6
HETATM    6  C   UNL     1      -9.736  10.486  66.684  1.00  0.00    -0.232 A  
HETATM    7  C   UNL     1      -9.794   9.652  65.582  1.00  0.00    -0.299 A  
HETATM    8  N   UNL     1     -10.127  10.404  64.490  1.00  0.00    -0.338 NA 
HETATM    9  C   UNL     1     -10.311  11.716  64.856  1.00  0.00    -0.283 A  
HETATM   10  H   UNL     1     -10.224  10.043  63.541  1.00  0.00     0.000 HD 
HETATM   11  C   UNL     1     -10.086  11.800  66.228  1.00  0.00    -0.248 A  
HETATM   12  C   UNL     1     -10.217  13.061  66.853  1.00  0.00    -0.244 A  
HETATM   13  C   UNL     1     -10.554  14.202  66.098  1.00  0.00    -0.293 A  
HETATM   14  C   UNL     1     -10.780  14.062  64.721  1.00  0.00    -0.442 A  
HETATM   15  C   UNL     1     -10.653  12.826  64.076  1.00  0.00    -0.446 A  
BRANCH  13  16
HETATM   16  C   UNL     1     -10.685  15.546  66.784  1.00  0.00    -0.305 C  
BRANCH  16  17
HETATM   17  S   UNL     1      -9.052  16.117  67.313  1.00  0.00    -0.207 S  
HETATM   18  O   UNL     1      -8.108  15.941  66.227  1.00  0.00    -0.243 OA 
HETATM   19  O   UNL     1      -8.765  15.629  68.643  1.00  0.00    -0.172 OA 
BRANCH  17  20
HETATM   20  N   UNL     1      -9.261  17.803  67.472  1.00  0.00    -0.243 N  
HETATM   21  C   UNL     1      -8.467  18.585  66.485  1.00  0.00    -0.277 C  
HETATM   22  C   UNL     1      -9.105  19.961  66.498  1.00  0.00    -0.464 C  
HETATM   23  C   UNL     1     -10.580  19.667  66.685  1.00  0.00    -0.599 C  
HETATM   24  C   UNL     1     -10.642  18.355  67.466  1.00  0.00    -0.416 C  
ENDBRANCH  17  20
ENDBRANCH  16  17
ENDBRANCH  13  16
ENDBRANCH   5   6
ENDBRANCH   4   5
ENDBRANCH   2   4
TORSDOF 6
ENDMDL
MODEL       61
REMARK 921   NORMALIZED FREE ENERGY PREDICTED BY IDOCK:   -5.32 KCAL/MOL
REMARK 922        TOTAL FREE ENERGY PREDICTED BY IDOCK:   -7.78 KCAL/MOL
REMARK 923 INTER-LIGAND FREE ENERGY PREDICTED BY IDOCK:   -7.03 KCAL/MOL
REMARK 924 INTRA-LIGAND FREE ENERGY PREDICTED BY IDOCK:   -0.75 KCAL/MOL
REMARK 927      BINDING AFFINITY PREDICTED BY RF-SCORE:    0.00 PKD
ROOT
HETATM    1  C   UNL     1     -14.331  15.262  71.714  1.00  0.00    -0.574 C  
HETATM    2  N   UNL     1     -13.066  15.599  71.051  1.00  0.00    -0.514 NA 
HETATM    3  C   UNL     1     -12.076  15.985  72.058  1.00  0.00    -0.525 C  
ENDROOT
BRANCH   2   4
HETATM    4  C   UNL     1     -12.615  14.445  70.245  1.00  0.00    -0.323 C  
BRANCH   4   5
HETATM    5  C   UNL     1     -11.694  14.796  69.060  1.00  0.00    -0.343 C  
BRANCH   5   6
HETATM    6  C   UNL     1     -11.641  13.689  68.048  1.00  0.00    -0.368 A  
HETATM    7  C   UNL     1     -12.150  13.734  66.763  1.00  0.00    -0.418 A  
HETATM    8  N   UNL     1     -11.950  12.516  66.177  1.00  0.00    -0.569 NA 
HETATM    9  C   UNL     1     -11.297  11.673  67.046  1.00  0.00    -0.305 A  
HETATM   10  H   UNL     1     -12.242  12.268  65.232  1.00  0.00     0.000 HD 
HETATM   11  C   UNL     1     -11.077  12.382  68.224  1.00  0.00    -0.283 A  
HETATM   12  C   UNL     1     -10.412  11.726  69.286  1.00  0.00     0.020 A  
HETATM   13  C   UNL     1      -9.997  10.387  69.152  1.00  0.00    -0.237 A  
HETATM   14  C   UNL     1     -10.234   9.721  67.940  1.00  0.00    -0.237 A  
HETATM   15  C   UNL     1     -10.893  10.345  66.875  1.00  0.00    -0.229 A  
BRANCH  13  16
HETATM   16  C   UNL     1      -9.290   9.700  70.302  1.00  0.00    -0.242 C  
BRANCH  16  17
HETATM   17  S   UNL     1     -10.456   8.626  71.174  1.00  0.00    -0.248 S  
HETATM   18  O   UNL     1     -11.804   8.920  70.729  1.00  0.00    -0.273 OA 
HETATM   19  O   UNL     1     -10.125   8.578  72.581  1.00  0.00    -0.282 OA 
BRANCH  17  20
HETATM   20  N   UNL     1     -10.095   7.077  70.559  1.00  0.00    -0.191 N  
HETATM   21  C   UNL     1     -11.188   6.514  69.719  1.00  0.00    -0.395 C  
HETATM   22  C   UNL     1     -10.524   5.393  68.943  1.00  0.00    -0.238 C  
HETATM   23  C   UNL     1      -9.133   5.928  68.664  1.00  0.00    -0.115 C  
HETATM   24  C   UNL     1      -8.822   6.882  69.817  1.00  0.00    -0.141 C  
ENDBRANCH  17  20
ENDBRANCH  16  17
ENDBRANCH  13  16
ENDBRANCH   5   6
ENDBRANCH   4   5
ENDBRANCH   2   4
TORSDOF 6
ENDMDL
MODEL       62
REMARK 921   NORMALIZED FREE ENERGY PREDICTED BY IDOCK:   -5.31 KCAL/MOL
REMARK 922        TOTAL FREE ENERGY PREDICTED BY IDOCK:   -7.76 KCAL/MOL
REMARK 923 INTER-LIGAND FREE ENERGY PREDICTED BY IDOCK:   -6.75 KCAL/MOL
REMARK 924 INTRA-LIGAND FREE ENERGY PREDICTED BY IDOCK:   -1.01 KCAL/MOL
REMARK 927      BINDING AFFINITY PREDICTED BY RF-SCORE:    0.00 PKD
ROOT
HETATM    1  C   UNL     1     -10.638   7.414  67.463  1.00  0.00    -0.269 C  
HETATM    2  N   UNL     1     -10.184   6.775  68.703  1.00  0.00    -0.166 NA 
HETATM    3  C   UNL     1      -8.955   7.425  69.164  1.00  0.00    -0.135 C  
ENDROOT
BRANCH   2   4
HETATM    4  C   UNL     1     -11.261   6.846  69.712  1.00  0.00    -0.267 C  
BRANCH   4   5
HETATM    5  C   UNL     1     -10.856   7.484  71.055  1.00  0.00    -0.249 C  
BRANCH   5   6
HETATM    6  C   UNL     1     -11.703   8.680  71.382  1.00  0.00    -0.355 A  
HETATM    7  C   UNL     1     -12.741   8.719  72.295  1.00  0.00    -0.402 A  
HETATM    8  N   UNL     1     -13.293   9.969  72.266  1.00  0.00    -0.593 NA 
HETATM    9  C   UNL     1     -12.622  10.764  71.366  1.00  0.00    -0.410 A  
HETATM   10  H   UNL     1     -14.088  10.269  72.831  1.00  0.00     0.000 HD 
HETATM   11  C   UNL     1     -11.611   9.989  70.803  1.00  0.00    -0.444 A  
HETATM   12  C   UNL     1     -10.769  10.587  69.837  1.00  0.00    -0.301 A  
HETATM   13  C   UNL     1     -10.963  11.927  69.449  1.00  0.00    -0.156 A  
HETATM   14  C   UNL     1     -11.990  12.666  70.055  1.00  0.00    -0.377 A  
HETATM   15  C   UNL     1     -12.840  12.099  71.011  1.00  0.00    -0.258 A  
BRANCH  13  16
HETATM   16  C   UNL     1     -10.054  12.548  68.409  1.00  0.00    -0.216 C  
BRANCH  16  17
HETATM   17  S   UNL     1     -10.703  12.205  66.756  1.00  0.00    -0.244 S  
HETATM   18  O   UNL     1     -10.187  13.190  65.825  1.00  0.00    -0.282 OA 
HETATM   19  O   UNL     1     -12.118  11.913  66.832  1.00  0.00    -0.599 OA 
BRANCH  17  20
HETATM   20  N   UNL     1      -9.947  10.735  66.337  1.00  0.00    -0.209 N  
HETATM   21  C   UNL     1      -9.991  10.451  64.876  1.00  0.00    -0.339 C  
HETATM   22  C   UNL     1      -8.933   9.386  64.669  1.00  0.00    -0.233 C  
HETATM   23  C   UNL     1      -7.841   9.774  65.647  1.00  0.00    -0.114 C  
HETATM   24  C   UNL     1      -8.553  10.493  66.793  1.00  0.00    -0.126 C  
ENDBRANCH  17  20
ENDBRANCH  16  17
ENDBRANCH  13  16
ENDBRANCH   5   6
ENDBRANCH   4   5
ENDBRANCH   2   4
TORSDOF 6
ENDMDL
MODEL       63
REMARK 921   NORMALIZED FREE ENERGY PREDICTED BY IDOCK:   -5.31 KCAL/MOL
REMARK 922        TOTAL FREE ENERGY PREDICTED BY IDOCK:   -7.76 KCAL/MOL
REMARK 923 INTER-LIGAND FREE ENERGY PREDICTED BY IDOCK:   -7.21 KCAL/MOL
REMARK 924 INTRA-LIGAND FREE ENERGY PREDICTED BY IDOCK:   -0.54 KCAL/MOL
REMARK 927      BINDING AFFINITY PREDICTED BY RF-SCORE:    0.00 PKD
ROOT
HETATM    1  C   UNL     1     -14.223  15.352  72.330  1.00  0.00    -0.545 C  
HETATM    2  N   UNL     1     -12.856  15.832  72.567  1.00  0.00    -0.431 NA 
HETATM    3  C   UNL     1     -12.470  15.538  73.949  1.00  0.00    -0.636 C  
ENDROOT
BRANCH   2   4
HETATM    4  C   UNL     1     -11.942  15.203  71.590  1.00  0.00    -0.369 C  
BRANCH   4   5
HETATM    5  C   UNL     1     -12.634  14.515  70.398  1.00  0.00    -0.405 C  
BRANCH   5   6
HETATM    6  C   UNL     1     -11.684  13.642  69.630  1.00  0.00    -0.383 A  
HETATM    7  C   UNL     1     -11.630  12.261  69.675  1.00  0.00    -0.278 A  
HETATM    8  N   UNL     1     -10.601  11.844  68.877  1.00  0.00    -0.326 NA 
HETATM    9  C   UNL     1      -9.989  12.926  68.289  1.00  0.00    -0.234 A  
HETATM   10  H   UNL     1     -10.326  10.871  68.739  1.00  0.00     0.000 HD 
HETATM   11  C   UNL     1     -10.652  14.068  68.730  1.00  0.00    -0.260 A  
HETATM   12  C   UNL     1     -10.207  15.325  68.259  1.00  0.00    -0.226 A  
HETATM   13  C   UNL     1      -9.111  15.412  67.378  1.00  0.00    -0.206 A  
HETATM   14  C   UNL     1      -8.485  14.230  66.956  1.00  0.00    -0.190 A  
HETATM   15  C   UNL     1      -8.902  12.974  67.409  1.00  0.00    -0.203 A  
BRANCH  13  16
HETATM   16  C   UNL     1      -8.646  16.768  66.889  1.00  0.00    -0.212 C  
BRANCH  16  17
HETATM   17  S   UNL     1      -8.140  17.779  68.300  1.00  0.00    -0.291 S  
HETATM   18  O   UNL     1      -7.427  16.951  69.253  1.00  0.00    -0.225 OA 
HETATM   19  O   UNL     1      -9.233  18.630  68.715  1.00  0.00    -0.330 OA 
BRANCH  17  20
HETATM   20  N   UNL     1      -6.968  18.824  67.631  1.00  0.00    -0.206 N  
HETATM   21  C   UNL     1      -7.442  19.523  66.405  1.00  0.00    -0.266 C  
HETATM   22  C   UNL     1      -6.474  20.677  66.235  1.00  0.00    -0.291 C  
HETATM   23  C   UNL     1      -6.176  21.105  67.658  1.00  0.00    -0.426 C  
HETATM   24  C   UNL     1      -6.339  19.846  68.508  1.00  0.00    -0.276 C  
ENDBRANCH  17  20
ENDBRANCH  16  17
ENDBRANCH  13  16
ENDBRANCH   5   6
ENDBRANCH   4   5
ENDBRANCH   2   4
TORSDOF 6
ENDMDL
MODEL       64
REMARK 921   NORMALIZED FREE ENERGY PREDICTED BY IDOCK:   -5.28 KCAL/MOL
REMARK 922        TOTAL FREE ENERGY PREDICTED BY IDOCK:   -7.73 KCAL/MOL
REMARK 923 INTER-LIGAND FREE ENERGY PREDICTED BY IDOCK:   -7.14 KCAL/MOL
REMARK 924 INTRA-LIGAND FREE ENERGY PREDICTED BY IDOCK:   -0.59 KCAL/MOL
REMARK 927      BINDING AFFINITY PREDICTED BY RF-SCORE:    0.00 PKD
ROOT
HETATM    1  C   UNL     1      -7.252   9.058  67.405  1.00  0.00    -0.083 C  
HETATM    2  N   UNL     1      -8.570   9.587  67.037  1.00  0.00    -0.127 NA 
HETATM    3  C   UNL     1      -9.069   8.873  65.859  1.00  0.00    -0.218 C  
ENDROOT
BRANCH   2   4
HETATM    4  C   UNL     1      -9.486   9.461  68.190  1.00  0.00    -0.133 C  
BRANCH   4   5
HETATM    5  C   UNL     1     -10.922   9.963  67.941  1.00  0.00    -0.281 C  
BRANCH   5   6
HETATM    6  C   UNL     1     -11.444  10.758  69.103  1.00  0.00    -0.368 A  
HETATM    7  C   UNL     1     -11.902  10.242  70.302  1.00  0.00    -0.288 A  
HETATM    8  N   UNL     1     -12.337  11.280  71.078  1.00  0.00    -0.380 NA 
HETATM    9  C   UNL     1     -12.155  12.474  70.420  1.00  0.00    -0.297 A  
HETATM   10  H   UNL     1     -12.740  11.183  72.010  1.00  0.00     0.000 HD 
HETATM   11  C   UNL     1     -11.584  12.183  69.183  1.00  0.00    -0.374 A  
HETATM   12  C   UNL     1     -11.294  13.256  68.310  1.00  0.00    -0.335 A  
HETATM   13  C   UNL     1     -11.590  14.582  68.683  1.00  0.00    -0.346 A  
HETATM   14  C   UNL     1     -12.154  14.822  69.944  1.00  0.00    -0.381 A  
HETATM   15  C   UNL     1     -12.455  13.778  70.826  1.00  0.00    -0.441 A  
BRANCH  13  16
HETATM   16  C   UNL     1     -11.276  15.718  67.732  1.00  0.00    -0.286 C  
BRANCH  16  17
HETATM   17  S   UNL     1      -9.493  16.024  67.721  1.00  0.00    -0.217 S  
HETATM   18  O   UNL     1      -8.883  15.263  66.649  1.00  0.00    -0.255 OA 
HETATM   19  O   UNL     1      -8.975  15.969  69.070  1.00  0.00    -0.218 OA 
BRANCH  17  20
HETATM   20  N   UNL     1      -9.381  17.659  67.247  1.00  0.00    -0.246 N  
HETATM   21  C   UNL     1     -10.359  18.027  66.187  1.00  0.00    -0.366 C  
HETATM   22  C   UNL     1     -10.400  19.542  66.226  1.00  0.00    -0.601 C  
HETATM   23  C   UNL     1     -10.254  19.865  67.701  1.00  0.00    -0.564 C  
HETATM   24  C   UNL     1      -9.446  18.712  68.294  1.00  0.00    -0.336 C  
ENDBRANCH  17  20
ENDBRANCH  16  17
ENDBRANCH  13  16
ENDBRANCH   5   6
ENDBRANCH   4   5
ENDBRANCH   2   4
TORSDOF 6
ENDMDL
MODEL       65
REMARK 921   NORMALIZED FREE ENERGY PREDICTED BY IDOCK:   -5.28 KCAL/MOL
REMARK 922        TOTAL FREE ENERGY PREDICTED BY IDOCK:   -7.72 KCAL/MOL
REMARK 923 INTER-LIGAND FREE ENERGY PREDICTED BY IDOCK:   -7.26 KCAL/MOL
REMARK 924 INTRA-LIGAND FREE ENERGY PREDICTED BY IDOCK:   -0.45 KCAL/MOL
REMARK 927      BINDING AFFINITY PREDICTED BY RF-SCORE:    0.00 PKD
ROOT
HETATM    1  C   UNL     1      -6.155  14.955  68.336  1.00  0.00    -0.103 C  
HETATM    2  N   UNL     1      -6.506  15.373  69.698  1.00  0.00    -0.160 NA 
HETATM    3  C   UNL     1      -5.982  14.399  70.657  1.00  0.00    -0.197 C  
ENDROOT
BRANCH   2   4
HETATM    4  C   UNL     1      -5.978  16.732  69.943  1.00  0.00    -0.217 C  
BRANCH   4   5
HETATM    5  C   UNL     1      -5.470  17.470  68.689  1.00  0.00    -0.150 C  
BRANCH   5   6
HETATM    6  C   UNL     1      -6.325  18.658  68.356  1.00  0.00    -0.221 A  
HETATM    7  C   UNL     1      -5.934  19.983  68.405  1.00  0.00    -0.252 A  
HETATM    8  N   UNL     1      -7.009  20.762  68.081  1.00  0.00    -0.197 NA 
HETATM    9  C   UNL     1      -8.099  19.973  67.797  1.00  0.00    -0.285 A  
HETATM   10  H   UNL     1      -7.004  21.782  68.054  1.00  0.00     0.000 HD 
HETATM   11  C   UNL     1      -7.700  18.647  67.948  1.00  0.00    -0.273 A  
HETATM   12  C   UNL     1      -8.653  17.630  67.709  1.00  0.00    -0.228 A  
HETATM   13  C   UNL     1      -9.973  17.957  67.340  1.00  0.00    -0.325 A  
HETATM   14  C   UNL     1     -10.319  19.308  67.192  1.00  0.00    -0.533 A  
HETATM   15  C   UNL     1      -9.398  20.335  67.426  1.00  0.00    -0.531 A  
BRANCH  13  16
HETATM   16  C   UNL     1     -10.980  16.854  67.092  1.00  0.00     0.024 C  
BRANCH  16  17
HETATM   17  S   UNL     1     -10.568  15.993  65.556  1.00  0.00    -0.372 S  
HETATM   18  O   UNL     1      -9.237  15.430  65.665  1.00  0.00    -0.250 OA 
HETATM   19  O   UNL     1     -10.952  16.800  64.419  1.00  0.00    -0.974 OA 
BRANCH  17  20
HETATM   20  N   UNL     1     -11.633  14.660  65.559  1.00  0.00    -0.346 N  
HETATM   21  C   UNL     1     -11.654  13.928  64.262  1.00  0.00    -0.355 C  
HETATM   22  C   UNL     1     -12.283  12.590  64.598  1.00  0.00    -0.524 C  
HETATM   23  C   UNL     1     -11.753  12.285  65.985  1.00  0.00    -0.451 C  
HETATM   24  C   UNL     1     -11.505  13.644  66.637  1.00  0.00    -0.343 C  
ENDBRANCH  17  20
ENDBRANCH  16  17
ENDBRANCH  13  16
ENDBRANCH   5   6
ENDBRANCH   4   5
ENDBRANCH   2   4
TORSDOF 6
ENDMDL
MODEL       66
REMARK 921   NORMALIZED FREE ENERGY PREDICTED BY IDOCK:   -5.26 KCAL/MOL
REMARK 922        TOTAL FREE ENERGY PREDICTED BY IDOCK:   -7.70 KCAL/MOL
REMARK 923 INTER-LIGAND FREE ENERGY PREDICTED BY IDOCK:   -7.21 KCAL/MOL
REMARK 924 INTRA-LIGAND FREE ENERGY PREDICTED BY IDOCK:   -0.49 KCAL/MOL
REMARK 927      BINDING AFFINITY PREDICTED BY RF-SCORE:    0.00 PKD
ROOT
HETATM    1  C   UNL     1      -8.506   9.799  67.883  1.00  0.00    -0.125 C  
HETATM    2  N   UNL     1      -7.771  10.768  67.062  1.00  0.00    -0.116 NA 
HETATM    3  C   UNL     1      -6.365  10.787  67.473  1.00  0.00    -0.057 C  
ENDROOT
BRANCH   2   4
HETATM    4  C   UNL     1      -7.926  10.415  65.635  1.00  0.00    -0.153 C  
BRANCH   4   5
HETATM    5  C   UNL     1      -9.305   9.843  65.251  1.00  0.00    -0.309 C  
BRANCH   5   6
HETATM    6  C   UNL     1     -10.174  10.876  64.595  1.00  0.00    -0.411 A  
HETATM    7  C   UNL     1     -10.409  11.002  63.238  1.00  0.00    -0.255 A  
HETATM    8  N   UNL     1     -11.210  12.092  63.039  1.00  0.00    -0.660 NA 
HETATM    9  C   UNL     1     -11.526  12.675  64.243  1.00  0.00    -0.363 A  
HETATM   10  H   UNL     1     -11.527  12.424  62.128  1.00  0.00     0.000 HD 
HETATM   11  C   UNL     1     -10.903  11.930  65.241  1.00  0.00    -0.347 A  
HETATM   12  C   UNL     1     -11.078  12.331  66.585  1.00  0.00    -0.344 A  
HETATM   13  C   UNL     1     -11.854  13.465  66.898  1.00  0.00    -0.453 A  
HETATM   14  C   UNL     1     -12.469  14.174  65.856  1.00  0.00    -0.479 A  
HETATM   15  C   UNL     1     -12.309  13.801  64.517  1.00  0.00    -0.399 A  
BRANCH  13  16
HETATM   16  C   UNL     1     -12.027  13.882  68.344  1.00  0.00    -0.356 C  
BRANCH  16  17
HETATM   17  S   UNL     1     -10.616  14.893  68.854  1.00  0.00    -0.253 S  
HETATM   18  O   UNL     1      -9.388  14.249  68.433  1.00  0.00    -0.199 OA 
HETATM   19  O   UNL     1     -10.799  15.344  70.216  1.00  0.00    -0.285 OA 
BRANCH  17  20
HETATM   20  N   UNL     1     -10.763  16.287  67.881  1.00  0.00    -0.321 N  
HETATM   21  C   UNL     1     -10.587  17.552  68.645  1.00  0.00    -0.288 C  
HETATM   22  C   UNL     1     -10.319  18.598  67.581  1.00  0.00    -0.455 C  
HETATM   23  C   UNL     1      -9.495  17.853  66.550  1.00  0.00    -0.307 C  
HETATM   24  C   UNL     1      -9.930  16.392  66.654  1.00  0.00    -0.272 C  
ENDBRANCH  17  20
ENDBRANCH  16  17
ENDBRANCH  13  16
ENDBRANCH   5   6
ENDBRANCH   4   5
ENDBRANCH   2   4
TORSDOF 6
ENDMDL
MODEL       67
REMARK 921   NORMALIZED FREE ENERGY PREDICTED BY IDOCK:   -5.24 KCAL/MOL
REMARK 922        TOTAL FREE ENERGY PREDICTED BY IDOCK:   -7.67 KCAL/MOL
REMARK 923 INTER-LIGAND FREE ENERGY PREDICTED BY IDOCK:   -7.14 KCAL/MOL
REMARK 924 INTRA-LIGAND FREE ENERGY PREDICTED BY IDOCK:   -0.53 KCAL/MOL
REMARK 927      BINDING AFFINITY PREDICTED BY RF-SCORE:    0.00 PKD
ROOT
HETATM    1  C   UNL     1     -11.783   6.576  70.583  1.00  0.00    -0.374 C  
HETATM    2  N   UNL     1     -10.351   6.895  70.556  1.00  0.00    -0.203 NA 
HETATM    3  C   UNL     1      -9.578   5.687  70.854  1.00  0.00    -0.169 C  
ENDROOT
BRANCH   2   4
HETATM    4  C   UNL     1     -10.003   7.464  69.237  1.00  0.00    -0.173 C  
BRANCH   4   5
HETATM    5  C   UNL     1     -10.565   8.873  68.966  1.00  0.00    -0.203 C  
BRANCH   5   6
HETATM    6  C   UNL     1     -10.415   9.264  67.524  1.00  0.00    -0.338 A  
HETATM    7  C   UNL     1      -9.901   8.472  66.514  1.00  0.00    -0.272 A  
HETATM    8  N   UNL     1      -9.884   9.203  65.359  1.00  0.00    -0.424 NA 
HETATM    9  C   UNL     1     -10.399  10.458  65.584  1.00  0.00    -0.190 A  
HETATM   10  H   UNL     1      -9.538   8.867  64.460  1.00  0.00     0.000 HD 
HETATM   11  C   UNL     1     -10.754  10.525  66.930  1.00  0.00    -0.281 A  
HETATM   12  C   UNL     1     -11.316  11.728  67.415  1.00  0.00    -0.376 A  
HETATM   13  C   UNL     1     -11.497  12.831  66.557  1.00  0.00    -0.409 A  
HETATM   14  C   UNL     1     -11.133  12.707  65.208  1.00  0.00    -0.330 A  
HETATM   15  C   UNL     1     -10.571  11.530  64.702  1.00  0.00    -0.369 A  
BRANCH  13  16
HETATM   16  C   UNL     1     -12.096  14.113  67.096  1.00  0.00    -0.397 C  
BRANCH  16  17
HETATM   17  S   UNL     1     -10.804  15.097  67.892  1.00  0.00    -0.301 S  
HETATM   18  O   UNL     1     -11.087  16.506  67.698  1.00  0.00    -0.255 OA 
HETATM   19  O   UNL     1      -9.503  14.544  67.586  1.00  0.00    -0.203 OA 
BRANCH  17  20
HETATM   20  N   UNL     1     -11.055  14.802  69.553  1.00  0.00    -0.270 N  
HETATM   21  C   UNL     1     -10.927  16.027  70.389  1.00  0.00    -0.336 C  
HETATM   22  C   UNL     1     -11.593  15.657  71.700  1.00  0.00    -0.519 C  
HETATM   23  C   UNL     1     -12.750  14.774  71.274  1.00  0.00    -0.407 C  
HETATM   24  C   UNL     1     -12.300  14.107  69.975  1.00  0.00    -0.344 C  
ENDBRANCH  17  20
ENDBRANCH  16  17
ENDBRANCH  13  16
ENDBRANCH   5   6
ENDBRANCH   4   5
ENDBRANCH   2   4
TORSDOF 6
ENDMDL
MODEL       68
REMARK 921   NORMALIZED FREE ENERGY PREDICTED BY IDOCK:   -5.24 KCAL/MOL
REMARK 922        TOTAL FREE ENERGY PREDICTED BY IDOCK:   -7.67 KCAL/MOL
REMARK 923 INTER-LIGAND FREE ENERGY PREDICTED BY IDOCK:   -6.93 KCAL/MOL
REMARK 924 INTRA-LIGAND FREE ENERGY PREDICTED BY IDOCK:   -0.73 KCAL/MOL
REMARK 927      BINDING AFFINITY PREDICTED BY RF-SCORE:    0.00 PKD
ROOT
HETATM    1  C   UNL     1     -10.058  17.835  66.472  1.00  0.00    -0.358 C  
HETATM    2  N   UNL     1      -9.082  16.848  65.995  1.00  0.00    -0.500 NA 
HETATM    3  C   UNL     1      -7.731  17.398  66.125  1.00  0.00    -0.276 C  
ENDROOT
BRANCH   2   4
HETATM    4  C   UNL     1      -9.245  15.593  66.758  1.00  0.00    -0.251 C  
BRANCH   4   5
HETATM    5  C   UNL     1     -10.586  14.865  66.538  1.00  0.00    -0.306 C  
BRANCH   5   6
HETATM    6  C   UNL     1     -11.261  14.537  67.838  1.00  0.00    -0.310 A  
HETATM    7  C   UNL     1     -11.854  15.443  68.699  1.00  0.00    -0.296 A  
HETATM    8  N   UNL     1     -12.310  14.761  69.793  1.00  0.00    -0.492 NA 
HETATM    9  C   UNL     1     -12.049  13.418  69.658  1.00  0.00    -0.289 A  
HETATM   10  H   UNL     1     -12.777  15.188  70.594  1.00  0.00     0.000 HD 
HETATM   11  C   UNL     1     -11.403  13.242  68.437  1.00  0.00    -0.326 A  
HETATM   12  C   UNL     1     -11.026  11.932  68.061  1.00  0.00    -0.271 A  
HETATM   13  C   UNL     1     -11.288  10.840  68.912  1.00  0.00    -0.349 A  
HETATM   14  C   UNL     1     -11.951  11.071  70.127  1.00  0.00    -0.443 A  
HETATM   15  C   UNL     1     -12.331  12.357  70.525  1.00  0.00    -0.346 A  
BRANCH  13  16
HETATM   16  C   UNL     1     -10.872   9.445  68.495  1.00  0.00    -0.105 C  
BRANCH  16  17
HETATM   17  S   UNL     1      -9.442   8.922  69.471  1.00  0.00    -0.162 S  
HETATM   18  O   UNL     1      -8.867  10.076  70.134  1.00  0.00    -0.165 OA 
HETATM   19  O   UNL     1      -8.623   8.014  68.699  1.00  0.00    -0.127 OA 
BRANCH  17  20
HETATM   20  N   UNL     1     -10.139   7.979  70.710  1.00  0.00    -0.192 N  
HETATM   21  C   UNL     1     -10.116   8.652  72.038  1.00  0.00    -0.331 C  
HETATM   22  C   UNL     1     -11.130   7.884  72.864  1.00  0.00    -0.442 C  
HETATM   23  C   UNL     1     -12.215   7.537  71.864  1.00  0.00    -0.339 C  
HETATM   24  C   UNL     1     -11.510   7.439  70.511  1.00  0.00    -0.255 C  
ENDBRANCH  17  20
ENDBRANCH  16  17
ENDBRANCH  13  16
ENDBRANCH   5   6
ENDBRANCH   4   5
ENDBRANCH   2   4
TORSDOF 6
ENDMDL
MODEL       69
REMARK 921   NORMALIZED FREE ENERGY PREDICTED BY IDOCK:   -5.20 KCAL/MOL
REMARK 922        TOTAL FREE ENERGY PREDICTED BY IDOCK:   -7.61 KCAL/MOL
REMARK 923 INTER-LIGAND FREE ENERGY PREDICTED BY IDOCK:   -7.19 KCAL/MOL
REMARK 924 INTRA-LIGAND FREE ENERGY PREDICTED BY IDOCK:   -0.41 KCAL/MOL
REMARK 927      BINDING AFFINITY PREDICTED BY RF-SCORE:    0.00 PKD
ROOT
HETATM    1  C   UNL     1     -11.138  16.252  68.373  1.00  0.00    -0.362 C  
HETATM    2  N   UNL     1     -11.319  15.056  69.205  1.00  0.00    -0.278 NA 
HETATM    3  C   UNL     1     -12.443  15.267  70.121  1.00  0.00    -0.334 C  
ENDROOT
BRANCH   2   4
HETATM    4  C   UNL     1     -11.528  13.882  68.333  1.00  0.00    -0.311 C  
BRANCH   4   5
HETATM    5  C   UNL     1     -12.050  14.203  66.919  1.00  0.00    -0.466 C  
BRANCH   5   6
HETATM    6  C   UNL     1     -11.228  13.533  65.856  1.00  0.00    -0.310 A  
HETATM    7  C   UNL     1     -10.813  14.105  64.667  1.00  0.00    -0.386 A  
HETATM    8  N   UNL     1     -10.132  13.160  63.950  1.00  0.00    -0.764 NA 
HETATM    9  C   UNL     1     -10.072  11.981  64.655  1.00  0.00    -0.264 A  
HETATM   10  H   UNL     1      -9.728  13.308  63.025  1.00  0.00     0.000 HD 
HETATM   11  C   UNL     1     -10.738  12.185  65.861  1.00  0.00    -0.302 A  
HETATM   12  C   UNL     1     -10.814  11.109  66.775  1.00  0.00    -0.322 A  
HETATM   13  C   UNL     1     -10.240   9.862  66.461  1.00  0.00    -0.292 A  
HETATM   14  C   UNL     1      -9.571   9.712  65.237  1.00  0.00    -0.347 A  
HETATM   15  C   UNL     1      -9.484  10.759  64.313  1.00  0.00    -0.307 A  
BRANCH  13  16
HETATM   16  C   UNL     1     -10.336   8.719  67.450  1.00  0.00    -0.280 C  
BRANCH  16  17
HETATM   17  S   UNL     1      -8.901   8.751  68.552  1.00  0.00    -0.138 S  
HETATM   18  O   UNL     1      -7.978   9.776  68.107  1.00  0.00    -0.099 OA 
HETATM   19  O   UNL     1      -8.453   7.402  68.818  1.00  0.00    -0.128 OA 
BRANCH  17  20
HETATM   20  N   UNL     1      -9.551   9.322  70.022  1.00  0.00    -0.194 N  
HETATM   21  C   UNL     1     -11.023   9.124  70.125  1.00  0.00    -0.239 C  
HETATM   22  C   UNL     1     -11.319   9.276  71.604  1.00  0.00    -0.467 C  
HETATM   23  C   UNL     1     -10.110   8.653  72.275  1.00  0.00    -0.363 C  
HETATM   24  C   UNL     1      -8.951   8.852  71.299  1.00  0.00    -0.243 C  
ENDBRANCH  17  20
ENDBRANCH  16  17
ENDBRANCH  13  16
ENDBRANCH   5   6
ENDBRANCH   4   5
ENDBRANCH   2   4
TORSDOF 6
ENDMDL
MODEL       70
REMARK 921   NORMALIZED FREE ENERGY PREDICTED BY IDOCK:   -5.19 KCAL/MOL
REMARK 922        TOTAL FREE ENERGY PREDICTED BY IDOCK:   -7.60 KCAL/MOL
REMARK 923 INTER-LIGAND FREE ENERGY PREDICTED BY IDOCK:   -6.94 KCAL/MOL
REMARK 924 INTRA-LIGAND FREE ENERGY PREDICTED BY IDOCK:   -0.66 KCAL/MOL
REMARK 927      BINDING AFFINITY PREDICTED BY RF-SCORE:    0.00 PKD
ROOT
HETATM    1  C   UNL     1     -12.756  13.994  65.470  1.00  0.00    -0.486 C  
HETATM    2  N   UNL     1     -12.536  12.550  65.325  1.00  0.00    -0.637 NA 
HETATM    3  C   UNL     1     -12.466  12.209  63.902  1.00  0.00    -0.478 C  
ENDROOT
BRANCH   2   4
HETATM    4  C   UNL     1     -11.305  12.168  66.048  1.00  0.00    -0.358 C  
BRANCH   4   5
HETATM    5  C   UNL     1     -11.465  12.020  67.574  1.00  0.00    -0.403 C  
BRANCH   5   6
HETATM    6  C   UNL     1     -10.225  11.462  68.212  1.00  0.00    -0.204 A  
HETATM    7  C   UNL     1      -8.924  11.693  67.802  1.00  0.00    -0.170 A  
HETATM    8  N   UNL     1      -8.086  10.970  68.605  1.00  0.00    -0.142 NA 
HETATM    9  C   UNL     1      -8.810  10.284  69.551  1.00  0.00    -0.148 A  
HETATM   10  H   UNL     1      -7.070  10.944  68.514  1.00  0.00     0.000 HD 
HETATM   11  C   UNL     1     -10.154  10.581  69.341  1.00  0.00    -0.233 A  
HETATM   12  C   UNL     1     -11.112   9.991  70.197  1.00  0.00    -0.371 A  
HETATM   13  C   UNL     1     -10.711   9.116  71.226  1.00  0.00    -0.401 A  
HETATM   14  C   UNL     1      -9.343   8.859  71.401  1.00  0.00    -0.338 A  
HETATM   15  C   UNL     1      -8.374   9.426  70.566  1.00  0.00    -0.233 A  
BRANCH  13  16
HETATM   16  C   UNL     1     -11.752   8.490  72.130  1.00  0.00    -0.378 C  
BRANCH  16  17
HETATM   17  S   UNL     1     -12.245   6.883  71.463  1.00  0.00    -0.379 S  
HETATM   18  O   UNL     1     -11.766   6.762  70.100  1.00  0.00    -0.357 OA 
HETATM   19  O   UNL     1     -13.625   6.610  71.801  1.00  0.00    -0.198 OA 
BRANCH  17  20
HETATM   20  N   UNL     1     -11.317   5.781  72.377  1.00  0.00    -0.293 N  
HETATM   21  C   UNL     1     -10.316   5.043  71.559  1.00  0.00    -0.182 C  
HETATM   22  C   UNL     1      -9.344   4.478  72.576  1.00  0.00    -0.160 C  
HETATM   23  C   UNL     1      -9.266   5.561  73.634  1.00  0.00    -0.133 C  
HETATM   24  C   UNL     1     -10.618   6.272  73.594  1.00  0.00    -0.263 C  
ENDBRANCH  17  20
ENDBRANCH  16  17
ENDBRANCH  13  16
ENDBRANCH   5   6
ENDBRANCH   4   5
ENDBRANCH   2   4
TORSDOF 6
ENDMDL
MODEL       71
REMARK 921   NORMALIZED FREE ENERGY PREDICTED BY IDOCK:   -5.17 KCAL/MOL
REMARK 922        TOTAL FREE ENERGY PREDICTED BY IDOCK:   -7.57 KCAL/MOL
REMARK 923 INTER-LIGAND FREE ENERGY PREDICTED BY IDOCK:   -6.59 KCAL/MOL
REMARK 924 INTRA-LIGAND FREE ENERGY PREDICTED BY IDOCK:   -0.98 KCAL/MOL
REMARK 927      BINDING AFFINITY PREDICTED BY RF-SCORE:    0.00 PKD
ROOT
HETATM    1  C   UNL     1     -11.773  14.531  67.581  1.00  0.00    -0.382 C  
HETATM    2  N   UNL     1     -12.065  13.224  66.979  1.00  0.00    -0.357 NA 
HETATM    3  C   UNL     1     -11.241  13.045  65.781  1.00  0.00    -0.289 C  
ENDROOT
BRANCH   2   4
HETATM    4  C   UNL     1     -11.827  12.162  67.979  1.00  0.00    -0.285 C  
BRANCH   4   5
HETATM    5  C   UNL     1     -11.607  12.660  69.421  1.00  0.00    -0.369 C  
BRANCH   5   6
HETATM    6  C   UNL     1     -12.092  11.664  70.434  1.00  0.00    -0.462 A  
HETATM    7  C   UNL     1     -13.156  11.836  71.301  1.00  0.00    -0.141 A  
HETATM    8  N   UNL     1     -13.246  10.729  72.097  1.00  0.00    -0.591 NA 
HETATM    9  C   UNL     1     -12.274   9.818  71.756  1.00  0.00    -0.367 A  
HETATM   10  H   UNL     1     -13.936  10.597  72.837  1.00  0.00     0.000 HD 
HETATM   11  C   UNL     1     -11.540  10.369  70.708  1.00  0.00    -0.450 A  
HETATM   12  C   UNL     1     -10.470   9.617  70.171  1.00  0.00    -0.321 A  
HETATM   13  C   UNL     1     -10.152   8.349  70.697  1.00  0.00    -0.220 A  
HETATM   14  C   UNL     1     -10.929   7.836  71.746  1.00  0.00    -0.280 A  
HETATM   15  C   UNL     1     -11.990   8.561  72.299  1.00  0.00    -0.454 A  
BRANCH  13  16
HETATM   16  C   UNL     1      -8.999   7.560  70.112  1.00  0.00    -0.147 C  
BRANCH  16  17
HETATM   17  S   UNL     1      -9.594   6.552  68.734  1.00  0.00    -0.126 S  
HETATM   18  O   UNL     1     -11.036   6.432  68.815  1.00  0.00    -0.320 OA 
HETATM   19  O   UNL     1      -8.752   5.387  68.574  1.00  0.00    -0.096 OA 
BRANCH  17  20
HETATM   20  N   UNL     1      -9.290   7.534  67.372  1.00  0.00    -0.137 N  
HETATM   21  C   UNL     1     -10.524   8.143  66.805  1.00  0.00    -0.246 C  
HETATM   22  C   UNL     1     -10.016   9.274  65.932  1.00  0.00    -0.289 C  
HETATM   23  C   UNL     1      -8.820   9.805  66.696  1.00  0.00    -0.153 C  
HETATM   24  C   UNL     1      -8.274   8.614  67.483  1.00  0.00    -0.110 C  
ENDBRANCH  17  20
ENDBRANCH  16  17
ENDBRANCH  13  16
ENDBRANCH   5   6
ENDBRANCH   4   5
ENDBRANCH   2   4
TORSDOF 6
ENDMDL
MODEL       72
REMARK 921   NORMALIZED FREE ENERGY PREDICTED BY IDOCK:   -5.17 KCAL/MOL
REMARK 922        TOTAL FREE ENERGY PREDICTED BY IDOCK:   -7.57 KCAL/MOL
REMARK 923 INTER-LIGAND FREE ENERGY PREDICTED BY IDOCK:   -7.24 KCAL/MOL
REMARK 924 INTRA-LIGAND FREE ENERGY PREDICTED BY IDOCK:   -0.33 KCAL/MOL
REMARK 927      BINDING AFFINITY PREDICTED BY RF-SCORE:    0.00 PKD
ROOT
HETATM    1  C   UNL     1     -12.406  14.297  64.433  1.00  0.00    -0.391 C  
HETATM    2  N   UNL     1     -12.715  12.906  64.786  1.00  0.00    -0.706 NA 
HETATM    3  C   UNL     1     -12.524  12.052  63.612  1.00  0.00    -0.525 C  
ENDROOT
BRANCH   2   4
HETATM    4  C   UNL     1     -11.863  12.489  65.919  1.00  0.00    -0.430 C  
BRANCH   4   5
HETATM    5  C   UNL     1     -10.361  12.369  65.597  1.00  0.00    -0.284 C  
BRANCH   5   6
HETATM    6  C   UNL     1      -9.507  12.774  66.763  1.00  0.00    -0.243 A  
HETATM    7  C   UNL     1      -8.569  11.982  67.401  1.00  0.00    -0.171 A  
HETATM    8  N   UNL     1      -8.042  12.693  68.443  1.00  0.00    -0.206 NA 
HETATM    9  C   UNL     1      -8.599  13.949  68.491  1.00  0.00    -0.137 A  
HETATM   10  H   UNL     1      -7.337  12.341  69.091  1.00  0.00     0.000 HD 
HETATM   11  C   UNL     1      -9.513  14.037  67.443  1.00  0.00    -0.225 A  
HETATM   12  C   UNL     1     -10.225  15.247  67.276  1.00  0.00    -0.248 A  
HETATM   13  C   UNL     1     -10.020  16.326  68.158  1.00  0.00    -0.239 A  
HETATM   14  C   UNL     1      -9.080  16.189  69.190  1.00  0.00    -0.243 A  
HETATM   15  C   UNL     1      -8.365  15.002  69.381  1.00  0.00    -0.141 A  
BRANCH  13  16
HETATM   16  C   UNL     1     -10.796  17.613  67.965  1.00  0.00    -0.234 C  
BRANCH  16  17
HETATM   17  S   UNL     1     -10.119  18.522  66.556  1.00  0.00    -0.420 S  
HETATM   18  O   UNL     1     -10.753  19.824  66.476  1.00  0.00    -0.469 OA 
HETATM   19  O   UNL     1     -10.038  17.655  65.401  1.00  0.00    -0.482 OA 
BRANCH  17  20
HETATM   20  N   UNL     1      -8.507  18.823  67.023  1.00  0.00    -0.274 N  
HETATM   21  C   UNL     1      -7.717  19.528  65.975  1.00  0.00    -0.312 C  
HETATM   22  C   UNL     1      -6.513  20.073  66.717  1.00  0.00    -0.222 C  
HETATM   23  C   UNL     1      -7.074  20.462  68.071  1.00  0.00    -0.301 C  
HETATM   24  C   UNL     1      -8.254  19.522  68.311  1.00  0.00    -0.338 C  
ENDBRANCH  17  20
ENDBRANCH  16  17
ENDBRANCH  13  16
ENDBRANCH   5   6
ENDBRANCH   4   5
ENDBRANCH   2   4
TORSDOF 6
ENDMDL
MODEL       73
REMARK 921   NORMALIZED FREE ENERGY PREDICTED BY IDOCK:   -5.14 KCAL/MOL
REMARK 922        TOTAL FREE ENERGY PREDICTED BY IDOCK:   -7.54 KCAL/MOL
REMARK 923 INTER-LIGAND FREE ENERGY PREDICTED BY IDOCK:   -7.01 KCAL/MOL
REMARK 924 INTRA-LIGAND FREE ENERGY PREDICTED BY IDOCK:   -0.53 KCAL/MOL
REMARK 927      BINDING AFFINITY PREDICTED BY RF-SCORE:    0.00 PKD
ROOT
HETATM    1  C   UNL     1     -14.356  14.603  71.877  1.00  0.00    -0.571 C  
HETATM    2  N   UNL     1     -13.337  15.022  70.908  1.00  0.00    -0.398 NA 
HETATM    3  C   UNL     1     -12.337  15.853  71.582  1.00  0.00    -0.459 C  
ENDROOT
BRANCH   2   4
HETATM    4  C   UNL     1     -12.734  13.825  70.285  1.00  0.00    -0.144 C  
BRANCH   4   5
HETATM    5  C   UNL     1     -11.524  14.104  69.372  1.00  0.00    -0.337 C  
BRANCH   5   6
HETATM    6  C   UNL     1     -11.364  13.045  68.320  1.00  0.00    -0.323 A  
HETATM    7  C   UNL     1     -11.530  13.219  66.957  1.00  0.00    -0.339 A  
HETATM    8  N   UNL     1     -11.348  12.010  66.345  1.00  0.00    -0.341 NA 
HETATM    9  C   UNL     1     -11.043  11.046  67.276  1.00  0.00    -0.294 A  
HETATM   10  H   UNL     1     -11.427  11.848  65.340  1.00  0.00     0.000 HD 
HETATM   11  C   UNL     1     -11.032  11.665  68.524  1.00  0.00    -0.264 A  
HETATM   12  C   UNL     1     -10.739  10.876  69.661  1.00  0.00    -0.232 A  
HETATM   13  C   UNL     1     -10.479   9.498  69.527  1.00  0.00    -0.234 A  
HETATM   14  C   UNL     1     -10.491   8.927  68.246  1.00  0.00    -0.243 A  
HETATM   15  C   UNL     1     -10.782   9.683  67.106  1.00  0.00    -0.258 A  
BRANCH  13  16
HETATM   16  C   UNL     1     -10.171   8.669  70.757  1.00  0.00    -0.204 C  
BRANCH  16  17
HETATM   17  S   UNL     1     -11.622   7.683  71.200  1.00  0.00    -0.283 S  
HETATM   18  O   UNL     1     -11.670   6.498  70.366  1.00  0.00    -0.393 OA 
HETATM   19  O   UNL     1     -12.776   8.542  71.350  1.00  0.00    -0.312 OA 
BRANCH  17  20
HETATM   20  N   UNL     1     -11.251   7.127  72.769  1.00  0.00    -0.286 N  
HETATM   21  C   UNL     1     -11.368   5.649  72.907  1.00  0.00    -0.273 C  
HETATM   22  C   UNL     1     -10.603   5.329  74.176  1.00  0.00    -0.301 C  
HETATM   23  C   UNL     1      -9.446   6.308  74.151  1.00  0.00    -0.195 C  
HETATM   24  C   UNL     1      -9.956   7.526  73.382  1.00  0.00    -0.323 C  
ENDBRANCH  17  20
ENDBRANCH  16  17
ENDBRANCH  13  16
ENDBRANCH   5   6
ENDBRANCH   4   5
ENDBRANCH   2   4
TORSDOF 6
ENDMDL
MODEL       74
REMARK 921   NORMALIZED FREE ENERGY PREDICTED BY IDOCK:   -5.14 KCAL/MOL
REMARK 922        TOTAL FREE ENERGY PREDICTED BY IDOCK:   -7.53 KCAL/MOL
REMARK 923 INTER-LIGAND FREE ENERGY PREDICTED BY IDOCK:   -7.22 KCAL/MOL
REMARK 924 INTRA-LIGAND FREE ENERGY PREDICTED BY IDOCK:   -0.31 KCAL/MOL
REMARK 927      BINDING AFFINITY PREDICTED BY RF-SCORE:    0.00 PKD
ROOT
HETATM    1  C   UNL     1     -10.380   8.936  66.856  1.00  0.00    -0.262 C  
HETATM    2  N   UNL     1     -11.060  10.045  67.536  1.00  0.00    -0.218 NA 
HETATM    3  C   UNL     1     -10.859   9.925  68.982  1.00  0.00    -0.215 C  
ENDROOT
BRANCH   2   4
HETATM    4  C   UNL     1     -10.548  11.328  67.010  1.00  0.00    -0.246 C  
BRANCH   4   5
HETATM    5  C   UNL     1     -10.421  11.400  65.476  1.00  0.00    -0.322 C  
BRANCH   5   6
HETATM    6  C   UNL     1     -11.007  12.668  64.927  1.00  0.00    -0.326 A  
HETATM    7  C   UNL     1     -11.938  12.762  63.909  1.00  0.00    -0.480 A  
HETATM    8  N   UNL     1     -12.179  14.085  63.666  1.00  0.00    -1.021 NA 
HETATM    9  C   UNL     1     -11.440  14.867  64.522  1.00  0.00    -0.325 A  
HETATM   10  H   UNL     1     -12.816  14.441  62.953  1.00  0.00     0.000 HD 
HETATM   11  C   UNL     1     -10.703  14.009  65.334  1.00  0.00    -0.344 A  
HETATM   12  C   UNL     1      -9.853  14.577  66.312  1.00  0.00    -0.322 A  
HETATM   13  C   UNL     1      -9.750  15.976  66.444  1.00  0.00    -0.307 A  
HETATM   14  C   UNL     1     -10.522  16.795  65.608  1.00  0.00    -0.284 A  
HETATM   15  C   UNL     1     -11.368  16.260  64.630  1.00  0.00    -0.237 A  
BRANCH  13  16
HETATM   16  C   UNL     1      -8.831  16.566  67.494  1.00  0.00    -0.191 C  
BRANCH  16  17
HETATM   17  S   UNL     1      -7.204  16.877  66.768  1.00  0.00    -0.268 S  
HETATM   18  O   UNL     1      -7.366  17.609  65.527  1.00  0.00    -0.425 OA 
HETATM   19  O   UNL     1      -6.397  15.679  66.833  1.00  0.00    -0.250 OA 
BRANCH  17  20
HETATM   20  N   UNL     1      -6.493  17.976  67.861  1.00  0.00    -0.186 N  
HETATM   21  C   UNL     1      -5.747  19.073  67.184  1.00  0.00    -0.166 C  
HETATM   22  C   UNL     1      -5.582  20.131  68.257  1.00  0.00    -0.252 C  
HETATM   23  C   UNL     1      -6.878  20.049  69.040  1.00  0.00    -0.302 C  
HETATM   24  C   UNL     1      -7.348  18.602  68.904  1.00  0.00    -0.273 C  
ENDBRANCH  17  20
ENDBRANCH  16  17
ENDBRANCH  13  16
ENDBRANCH   5   6
ENDBRANCH   4   5
ENDBRANCH   2   4
TORSDOF 6
ENDMDL
MODEL       75
REMARK 921   NORMALIZED FREE ENERGY PREDICTED BY IDOCK:   -5.14 KCAL/MOL
REMARK 922        TOTAL FREE ENERGY PREDICTED BY IDOCK:   -7.53 KCAL/MOL
REMARK 923 INTER-LIGAND FREE ENERGY PREDICTED BY IDOCK:   -7.27 KCAL/MOL
REMARK 924 INTRA-LIGAND FREE ENERGY PREDICTED BY IDOCK:   -0.25 KCAL/MOL
REMARK 927      BINDING AFFINITY PREDICTED BY RF-SCORE:    0.00 PKD
ROOT
HETATM    1  C   UNL     1     -12.317  12.066  63.662  1.00  0.00    -0.539 C  
HETATM    2  N   UNL     1     -11.762  12.771  64.824  1.00  0.00    -0.335 NA 
HETATM    3  C   UNL     1     -12.676  13.842  65.226  1.00  0.00    -0.439 C  
ENDROOT
BRANCH   2   4
HETATM    4  C   UNL     1     -11.527  11.803  65.915  1.00  0.00    -0.207 C  
BRANCH   4   5
HETATM    5  C   UNL     1     -10.166  11.081  65.866  1.00  0.00    -0.309 C  
BRANCH   5   6
HETATM    6  C   UNL     1      -9.239  11.566  66.942  1.00  0.00    -0.181 A  
HETATM    7  C   UNL     1      -8.675  10.792  67.941  1.00  0.00    -0.129 A  
HETATM    8  N   UNL     1      -7.935  11.608  68.751  1.00  0.00    -0.273 NA 
HETATM    9  C   UNL     1      -7.981  12.903  68.291  1.00  0.00    -0.151 A  
HETATM   10  H   UNL     1      -7.422  11.300  69.577  1.00  0.00     0.000 HD 
HETATM   11  C   UNL     1      -8.781  12.909  67.150  1.00  0.00    -0.205 A  
HETATM   12  C   UNL     1      -8.986  14.138  66.482  1.00  0.00    -0.140 A  
HETATM   13  C   UNL     1      -8.404  15.324  66.972  1.00  0.00    -0.267 A  
HETATM   14  C   UNL     1      -7.599  15.261  68.118  1.00  0.00    -0.118 A  
HETATM   15  C   UNL     1      -7.382  14.059  68.801  1.00  0.00    -0.127 A  
BRANCH  13  16
HETATM   16  C   UNL     1      -8.639  16.632  66.245  1.00  0.00    -0.324 C  
BRANCH  16  17
HETATM   17  S   UNL     1     -10.415  16.952  66.133  1.00  0.00    -0.219 S  
HETATM   18  O   UNL     1     -11.122  16.042  67.013  1.00  0.00    -0.222 OA 
HETATM   19  O   UNL     1     -10.802  17.111  64.749  1.00  0.00    -0.834 OA 
BRANCH  17  20
HETATM   20  N   UNL     1     -10.579  18.496  66.841  1.00  0.00    -0.389 N  
HETATM   21  C   UNL     1     -10.093  18.548  68.247  1.00  0.00    -0.390 C  
HETATM   22  C   UNL     1      -9.916  20.027  68.528  1.00  0.00    -0.454 C  
HETATM   23  C   UNL     1      -9.420  20.584  67.208  1.00  0.00    -0.559 C  
HETATM   24  C   UNL     1     -10.007  19.671  66.132  1.00  0.00    -0.463 C  
ENDBRANCH  17  20
ENDBRANCH  16  17
ENDBRANCH  13  16
ENDBRANCH   5   6
ENDBRANCH   4   5
ENDBRANCH   2   4
TORSDOF 6
ENDMDL
MODEL       76
REMARK 921   NORMALIZED FREE ENERGY PREDICTED BY IDOCK:   -5.13 KCAL/MOL
REMARK 922        TOTAL FREE ENERGY PREDICTED BY IDOCK:   -7.52 KCAL/MOL
REMARK 923 INTER-LIGAND FREE ENERGY PREDICTED BY IDOCK:   -7.14 KCAL/MOL
REMARK 924 INTRA-LIGAND FREE ENERGY PREDICTED BY IDOCK:   -0.38 KCAL/MOL
REMARK 927      BINDING AFFINITY PREDICTED BY RF-SCORE:    0.00 PKD
ROOT
HETATM    1  C   UNL     1      -9.092   8.320  68.977  1.00  0.00    -0.147 C  
HETATM    2  N   UNL     1      -9.011   7.477  67.779  1.00  0.00    -0.131 NA 
HETATM    3  C   UNL     1      -9.996   6.397  67.875  1.00  0.00    -0.131 C  
ENDROOT
BRANCH   2   4
HETATM    4  C   UNL     1      -9.221   8.313  66.578  1.00  0.00    -0.187 C  
BRANCH   4   5
HETATM    5  C   UNL     1     -10.448   9.244  66.638  1.00  0.00    -0.237 C  
BRANCH   5   6
HETATM    6  C   UNL     1     -10.308  10.411  65.704  1.00  0.00    -0.260 A  
HETATM    7  C   UNL     1      -9.685  10.395  64.469  1.00  0.00    -0.330 A  
HETATM    8  N   UNL     1      -9.722  11.661  63.953  1.00  0.00    -0.419 NA 
HETATM    9  C   UNL     1     -10.379  12.506  64.815  1.00  0.00    -0.307 A  
HETATM   10  H   UNL     1      -9.321  11.937  63.057  1.00  0.00     0.000 HD 
HETATM   11  C   UNL     1     -10.771  11.751  65.918  1.00  0.00    -0.328 A  
HETATM   12  C   UNL     1     -11.474  12.400  66.959  1.00  0.00    -0.423 A  
HETATM   13  C   UNL     1     -11.756  13.778  66.881  1.00  0.00    -0.424 A  
HETATM   14  C   UNL     1     -11.349  14.491  65.743  1.00  0.00    -0.336 A  
HETATM   15  C   UNL     1     -10.648  13.874  64.701  1.00  0.00    -0.432 A  
BRANCH  13  16
HETATM   16  C   UNL     1     -12.507  14.457  68.007  1.00  0.00     0.245 C  
BRANCH  16  17
HETATM   17  S   UNL     1     -11.670  14.128  69.577  1.00  0.00    -0.330 S  
HETATM   18  O   UNL     1     -10.287  14.554  69.481  1.00  0.00    -0.142 OA 
HETATM   19  O   UNL     1     -12.018  12.809  70.055  1.00  0.00    -0.332 OA 
BRANCH  17  20
HETATM   20  N   UNL     1     -12.414  15.223  70.653  1.00  0.00    -0.376 N  
HETATM   21  C   UNL     1     -13.594  14.642  71.352  1.00  0.00    -0.404 C  
HETATM   22  C   UNL     1     -13.826  15.569  72.528  1.00  0.00    -0.669 C  
HETATM   23  C   UNL     1     -12.425  15.965  72.952  1.00  0.00    -0.582 C  
HETATM   24  C   UNL     1     -11.577  15.894  71.682  1.00  0.00    -0.461 C  
ENDBRANCH  17  20
ENDBRANCH  16  17
ENDBRANCH  13  16
ENDBRANCH   5   6
ENDBRANCH   4   5
ENDBRANCH   2   4
TORSDOF 6
ENDMDL
MODEL       77
REMARK 921   NORMALIZED FREE ENERGY PREDICTED BY IDOCK:   -5.13 KCAL/MOL
REMARK 922        TOTAL FREE ENERGY PREDICTED BY IDOCK:   -7.51 KCAL/MOL
REMARK 923 INTER-LIGAND FREE ENERGY PREDICTED BY IDOCK:   -6.83 KCAL/MOL
REMARK 924 INTRA-LIGAND FREE ENERGY PREDICTED BY IDOCK:   -0.69 KCAL/MOL
REMARK 927      BINDING AFFINITY PREDICTED BY RF-SCORE:    0.00 PKD
ROOT
HETATM    1  C   UNL     1     -11.913   6.913  72.031  1.00  0.00    -0.306 C  
HETATM    2  N   UNL     1     -12.721   7.935  71.356  1.00  0.00    -0.315 NA 
HETATM    3  C   UNL     1     -14.142   7.619  71.522  1.00  0.00    -0.421 C  
ENDROOT
BRANCH   2   4
HETATM    4  C   UNL     1     -12.382   9.266  71.903  1.00  0.00    -0.382 C  
BRANCH   4   5
HETATM    5  C   UNL     1     -13.520  10.303  71.851  1.00  0.00    -0.403 C  
BRANCH   5   6
HETATM    6  C   UNL     1     -13.015  11.667  71.479  1.00  0.00    -0.463 A  
HETATM    7  C   UNL     1     -13.078  12.801  72.268  1.00  0.00    -0.295 A  
HETATM    8  N   UNL     1     -12.562  13.849  71.557  1.00  0.00    -0.347 NA 
HETATM    9  C   UNL     1     -12.137  13.421  70.321  1.00  0.00    -0.349 A  
HETATM   10  H   UNL     1     -12.500  14.809  71.896  1.00  0.00     0.000 HD 
HETATM   11  C   UNL     1     -12.396  12.054  70.245  1.00  0.00    -0.275 A  
HETATM   12  C   UNL     1     -12.044  11.371  69.058  1.00  0.00    -0.316 A  
HETATM   13  C   UNL     1     -11.461  12.065  67.979  1.00  0.00    -0.392 A  
HETATM   14  C   UNL     1     -11.212  13.439  68.112  1.00  0.00    -0.304 A  
HETATM   15  C   UNL     1     -11.553  14.140  69.274  1.00  0.00    -0.350 A  
BRANCH  13  16
HETATM   16  C   UNL     1     -11.095  11.317  66.714  1.00  0.00    -0.250 C  
BRANCH  16  17
HETATM   17  S   UNL     1      -9.675  10.244  67.034  1.00  0.00    -0.182 S  
HETATM   18  O   UNL     1      -8.888  10.800  68.117  1.00  0.00    -0.125 OA 
HETATM   19  O   UNL     1      -9.062   9.851  65.785  1.00  0.00    -0.150 OA 
BRANCH  17  20
HETATM   20  N   UNL     1     -10.390   8.829  67.664  1.00  0.00    -0.241 N  
HETATM   21  C   UNL     1     -10.316   7.672  66.730  1.00  0.00    -0.273 C  
HETATM   22  C   UNL     1     -10.586   6.465  67.607  1.00  0.00    -0.340 C  
HETATM   23  C   UNL     1      -9.914   6.820  68.919  1.00  0.00    -0.159 C  
HETATM   24  C   UNL     1      -9.958   8.345  69.002  1.00  0.00    -0.190 C  
ENDBRANCH  17  20
ENDBRANCH  16  17
ENDBRANCH  13  16
ENDBRANCH   5   6
ENDBRANCH   4   5
ENDBRANCH   2   4
TORSDOF 6
ENDMDL
MODEL       78
REMARK 921   NORMALIZED FREE ENERGY PREDICTED BY IDOCK:   -5.12 KCAL/MOL
REMARK 922        TOTAL FREE ENERGY PREDICTED BY IDOCK:   -7.51 KCAL/MOL
REMARK 923 INTER-LIGAND FREE ENERGY PREDICTED BY IDOCK:   -7.04 KCAL/MOL
REMARK 924 INTRA-LIGAND FREE ENERGY PREDICTED BY IDOCK:   -0.47 KCAL/MOL
REMARK 927      BINDING AFFINITY PREDICTED BY RF-SCORE:    0.00 PKD
ROOT
HETATM    1  C   UNL     1     -12.548  15.439  70.099  1.00  0.00    -0.293 C  
HETATM    2  N   UNL     1     -11.855  15.825  68.864  1.00  0.00    -0.389 NA 
HETATM    3  C   UNL     1     -10.737  16.713  69.191  1.00  0.00    -0.342 C  
ENDROOT
BRANCH   2   4
HETATM    4  C   UNL     1     -11.407  14.608  68.155  1.00  0.00    -0.302 C  
BRANCH   4   5
HETATM    5  C   UNL     1     -12.182  14.285  66.862  1.00  0.00    -0.366 C  
BRANCH   5   6
HETATM    6  C   UNL     1     -11.315  13.586  65.854  1.00  0.00    -0.321 A  
HETATM    7  C   UNL     1     -10.833  14.131  64.678  1.00  0.00    -0.386 A  
HETATM    8  N   UNL     1     -10.130  13.166  64.013  1.00  0.00    -0.768 NA 
HETATM    9  C   UNL     1     -10.121  11.999  64.741  1.00  0.00    -0.257 A  
HETATM   10  H   UNL     1      -9.677  13.293  63.108  1.00  0.00     0.000 HD 
HETATM   11  C   UNL     1     -10.845  12.233  65.907  1.00  0.00    -0.306 A  
HETATM   12  C   UNL     1     -10.982  11.174  66.834  1.00  0.00    -0.333 A  
HETATM   13  C   UNL     1     -10.408   9.914  66.571  1.00  0.00    -0.259 A  
HETATM   14  C   UNL     1      -9.680   9.735  65.386  1.00  0.00    -0.383 A  
HETATM   15  C   UNL     1      -9.532  10.764  64.450  1.00  0.00    -0.300 A  
BRANCH  13  16
HETATM   16  C   UNL     1     -10.569   8.790  67.574  1.00  0.00    -0.228 C  
BRANCH  16  17
HETATM   17  S   UNL     1      -9.592   9.154  69.052  1.00  0.00    -0.159 S  
HETATM   18  O   UNL     1     -10.264  10.176  69.831  1.00  0.00    -0.242 OA 
HETATM   19  O   UNL     1      -8.194   9.273  68.703  1.00  0.00    -0.110 OA 
BRANCH  17  20
HETATM   20  N   UNL     1      -9.721   7.720  69.967  1.00  0.00    -0.175 N  
HETATM   21  C   UNL     1     -11.015   7.607  70.696  1.00  0.00    -0.249 C  
HETATM   22  C   UNL     1     -11.111   6.140  71.065  1.00  0.00    -0.359 C  
HETATM   23  C   UNL     1     -10.493   5.433  69.874  1.00  0.00    -0.378 C  
HETATM   24  C   UNL     1      -9.479   6.417  69.293  1.00  0.00    -0.135 C  
ENDBRANCH  17  20
ENDBRANCH  16  17
ENDBRANCH  13  16
ENDBRANCH   5   6
ENDBRANCH   4   5
ENDBRANCH   2   4
TORSDOF 6
ENDMDL
MODEL       79
REMARK 921   NORMALIZED FREE ENERGY PREDICTED BY IDOCK:   -5.12 KCAL/MOL
REMARK 922        TOTAL FREE ENERGY PREDICTED BY IDOCK:   -7.50 KCAL/MOL
REMARK 923 INTER-LIGAND FREE ENERGY PREDICTED BY IDOCK:   -6.95 KCAL/MOL
REMARK 924 INTRA-LIGAND FREE ENERGY PREDICTED BY IDOCK:   -0.55 KCAL/MOL
REMARK 927      BINDING AFFINITY PREDICTED BY RF-SCORE:    0.00 PKD
ROOT
HETATM    1  C   UNL     1      -8.688  20.229  67.272  1.00  0.00    -0.352 C  
HETATM    2  N   UNL     1      -8.851  19.378  66.087  1.00  0.00    -0.422 NA 
HETATM    3  C   UNL     1      -7.720  18.451  65.994  1.00  0.00    -0.165 C  
ENDROOT
BRANCH   2   4
HETATM    4  C   UNL     1     -10.144  18.668  66.170  1.00  0.00    -0.369 C  
BRANCH   4   5
HETATM    5  C   UNL     1     -10.041  17.148  66.402  1.00  0.00    -0.326 C  
BRANCH   5   6
HETATM    6  C   UNL     1     -10.526  16.759  67.768  1.00  0.00    -0.335 A  
HETATM    7  C   UNL     1     -10.576  17.581  68.880  1.00  0.00    -0.193 A  
HETATM    8  N   UNL     1     -11.028  16.844  69.939  1.00  0.00    -0.358 NA 
HETATM    9  C   UNL     1     -11.298  15.556  69.542  1.00  0.00    -0.313 A  
HETATM   10  H   UNL     1     -11.147  17.200  70.888  1.00  0.00     0.000 HD 
HETATM   11  C   UNL     1     -11.006  15.472  68.182  1.00  0.00    -0.312 A  
HETATM   12  C   UNL     1     -11.205  14.234  67.530  1.00  0.00    -0.322 A  
HETATM   13  C   UNL     1     -11.674  13.115  68.246  1.00  0.00    -0.384 A  
HETATM   14  C   UNL     1     -11.963  13.256  69.611  1.00  0.00    -0.376 A  
HETATM   15  C   UNL     1     -11.772  14.468  70.282  1.00  0.00    -0.356 A  
BRANCH  13  16
HETATM   16  C   UNL     1     -11.877  11.795  67.530  1.00  0.00    -0.154 C  
BRANCH  16  17
HETATM   17  S   UNL     1     -10.271  11.018  67.228  1.00  0.00    -0.208 S  
HETATM   18  O   UNL     1     -10.432   9.577  67.215  1.00  0.00    -0.246 OA 
HETATM   19  O   UNL     1      -9.255  11.653  68.038  1.00  0.00    -0.165 OA 
BRANCH  17  20
HETATM   20  N   UNL     1      -9.922  11.457  65.617  1.00  0.00    -0.229 N  
HETATM   21  C   UNL     1      -9.369  10.333  64.813  1.00  0.00    -0.260 C  
HETATM   22  C   UNL     1      -9.540  10.780  63.375  1.00  0.00    -0.375 C  
HETATM   23  C   UNL     1     -10.857  11.532  63.391  1.00  0.00    -0.423 C  
HETATM   24  C   UNL     1     -10.989  12.098  64.804  1.00  0.00    -0.310 C  
ENDBRANCH  17  20
ENDBRANCH  16  17
ENDBRANCH  13  16
ENDBRANCH   5   6
ENDBRANCH   4   5
ENDBRANCH   2   4
TORSDOF 6
ENDMDL
MODEL       80
REMARK 921   NORMALIZED FREE ENERGY PREDICTED BY IDOCK:   -5.10 KCAL/MOL
REMARK 922        TOTAL FREE ENERGY PREDICTED BY IDOCK:   -7.47 KCAL/MOL
REMARK 923 INTER-LIGAND FREE ENERGY PREDICTED BY IDOCK:   -6.83 KCAL/MOL
REMARK 924 INTRA-LIGAND FREE ENERGY PREDICTED BY IDOCK:   -0.64 KCAL/MOL
REMARK 927      BINDING AFFINITY PREDICTED BY RF-SCORE:    0.00 PKD
ROOT
HETATM    1  C   UNL     1      -8.509   6.257  69.172  1.00  0.00    -0.120 C  
HETATM    2  N   UNL     1      -9.877   6.369  68.653  1.00  0.00    -0.139 NA 
HETATM    3  C   UNL     1     -10.817   5.829  69.638  1.00  0.00    -0.348 C  
ENDROOT
BRANCH   2   4
HETATM    4  C   UNL     1     -10.162   7.784  68.333  1.00  0.00    -0.200 C  
BRANCH   4   5
HETATM    5  C   UNL     1      -8.950   8.599  67.842  1.00  0.00    -0.142 C  
BRANCH   5   6
HETATM    6  C   UNL     1      -9.032   8.889  66.371  1.00  0.00    -0.193 A  
HETATM    7  C   UNL     1      -8.416   8.169  65.364  1.00  0.00    -0.147 A  
HETATM    8  N   UNL     1      -8.690   8.778  64.171  1.00  0.00    -0.415 NA 
HETATM    9  C   UNL     1      -9.496   9.874  64.371  1.00  0.00    -0.239 A  
HETATM   10  H   UNL     1      -8.346   8.463  63.263  1.00  0.00     0.000 HD 
HETATM   11  C   UNL     1      -9.739   9.965  65.739  1.00  0.00    -0.332 A  
HETATM   12  C   UNL     1     -10.554  11.022  66.206  1.00  0.00    -0.295 A  
HETATM   13  C   UNL     1     -11.090  11.963  65.305  1.00  0.00    -0.354 A  
HETATM   14  C   UNL     1     -10.823  11.820  63.935  1.00  0.00    -0.468 A  
HETATM   15  C   UNL     1     -10.017  10.785  63.447  1.00  0.00    -0.385 A  
BRANCH  13  16
HETATM   16  C   UNL     1     -11.957  13.092  65.824  1.00  0.00    -0.429 C  
BRANCH  16  17
HETATM   17  S   UNL     1     -10.960  14.591  65.993  1.00  0.00    -0.332 S  
HETATM   18  O   UNL     1     -11.331  15.533  64.954  1.00  0.00    -0.379 OA 
HETATM   19  O   UNL     1      -9.577  14.241  66.229  1.00  0.00    -0.289 OA 
BRANCH  17  20
HETATM   20  N   UNL     1     -11.522  15.271  67.453  1.00  0.00    -0.292 N  
HETATM   21  C   UNL     1     -11.927  14.247  68.455  1.00  0.00    -0.317 C  
HETATM   22  C   UNL     1     -11.966  15.004  69.768  1.00  0.00    -0.366 C  
HETATM   23  C   UNL     1     -10.814  15.982  69.650  1.00  0.00    -0.329 C  
HETATM   24  C   UNL     1     -10.667  16.263  68.156  1.00  0.00    -0.322 C  
ENDBRANCH  17  20
ENDBRANCH  16  17
ENDBRANCH  13  16
ENDBRANCH   5   6
ENDBRANCH   4   5
ENDBRANCH   2   4
TORSDOF 6
ENDMDL
MODEL       81
REMARK 921   NORMALIZED FREE ENERGY PREDICTED BY IDOCK:   -5.09 KCAL/MOL
REMARK 922        TOTAL FREE ENERGY PREDICTED BY IDOCK:   -7.46 KCAL/MOL
REMARK 923 INTER-LIGAND FREE ENERGY PREDICTED BY IDOCK:   -6.65 KCAL/MOL
REMARK 924 INTRA-LIGAND FREE ENERGY PREDICTED BY IDOCK:   -0.81 KCAL/MOL
REMARK 927      BINDING AFFINITY PREDICTED BY RF-SCORE:    0.00 PKD
ROOT
HETATM    1  C   UNL     1      -6.277  14.110  68.097  1.00  0.00    -0.133 C  
HETATM    2  N   UNL     1      -6.824  14.582  69.374  1.00  0.00    -0.141 NA 
HETATM    3  C   UNL     1      -6.164  13.879  70.476  1.00  0.00    -0.087 C  
ENDROOT
BRANCH   2   4
HETATM    4  C   UNL     1      -6.651  16.047  69.468  1.00  0.00    -0.201 C  
BRANCH   4   5
HETATM    5  C   UNL     1      -6.291  16.748  68.143  1.00  0.00    -0.143 C  
BRANCH   5   6
HETATM    6  C   UNL     1      -7.434  17.567  67.618  1.00  0.00    -0.195 A  
HETATM    7  C   UNL     1      -7.635  18.918  67.836  1.00  0.00    -0.259 A  
HETATM    8  N   UNL     1      -8.809  19.281  67.237  1.00  0.00    -0.287 NA 
HETATM    9  C   UNL     1      -9.375  18.197  66.608  1.00  0.00    -0.297 A  
HETATM   10  H   UNL     1      -9.208  20.220  67.254  1.00  0.00     0.000 HD 
HETATM   11  C   UNL     1      -8.531  17.109  66.817  1.00  0.00    -0.264 A  
HETATM   12  C   UNL     1      -8.897  15.861  66.261  1.00  0.00    -0.386 A  
HETATM   13  C   UNL     1     -10.092  15.727  65.527  1.00  0.00    -0.383 A  
HETATM   14  C   UNL     1     -10.901  16.857  65.337  1.00  0.00    -0.113 A  
HETATM   15  C   UNL     1     -10.566  18.103  65.879  1.00  0.00    -0.247 A  
BRANCH  13  16
HETATM   16  C   UNL     1     -10.469  14.382  64.943  1.00  0.00    -0.423 C  
BRANCH  16  17
HETATM   17  S   UNL     1     -11.840  13.675  65.888  1.00  0.00    -0.402 S  
HETATM   18  O   UNL     1     -13.077  13.870  65.157  1.00  0.00    -0.773 OA 
HETATM   19  O   UNL     1     -11.724  14.048  67.281  1.00  0.00    -0.346 OA 
BRANCH  17  20
HETATM   20  N   UNL     1     -11.530  11.998  65.830  1.00  0.00    -0.341 N  
HETATM   21  C   UNL     1     -10.580  11.618  64.749  1.00  0.00    -0.304 C  
HETATM   22  C   UNL     1     -10.114  10.227  65.132  1.00  0.00    -0.355 C  
HETATM   23  C   UNL     1     -10.040  10.281  66.645  1.00  0.00    -0.281 C  
HETATM   24  C   UNL     1     -11.087  11.310  67.071  1.00  0.00    -0.293 C  
ENDBRANCH  17  20
ENDBRANCH  16  17
ENDBRANCH  13  16
ENDBRANCH   5   6
ENDBRANCH   4   5
ENDBRANCH   2   4
TORSDOF 6
ENDMDL
MODEL       82
REMARK 921   NORMALIZED FREE ENERGY PREDICTED BY IDOCK:   -5.07 KCAL/MOL
REMARK 922        TOTAL FREE ENERGY PREDICTED BY IDOCK:   -7.43 KCAL/MOL
REMARK 923 INTER-LIGAND FREE ENERGY PREDICTED BY IDOCK:   -6.80 KCAL/MOL
REMARK 924 INTRA-LIGAND FREE ENERGY PREDICTED BY IDOCK:   -0.63 KCAL/MOL
REMARK 927      BINDING AFFINITY PREDICTED BY RF-SCORE:    0.00 PKD
ROOT
HETATM    1  C   UNL     1     -10.432   3.958  64.391  1.00  0.00    -0.224 C  
HETATM    2  N   UNL     1      -9.444   4.260  65.433  1.00  0.00    -0.164 NA 
HETATM    3  C   UNL     1      -8.616   5.390  65.005  1.00  0.00    -0.142 C  
ENDROOT
BRANCH   2   4
HETATM    4  C   UNL     1     -10.144   4.535  66.705  1.00  0.00    -0.209 C  
BRANCH   4   5
HETATM    5  C   UNL     1     -10.837   5.909  66.784  1.00  0.00    -0.347 C  
BRANCH   5   6
HETATM    6  C   UNL     1     -10.701   6.524  68.147  1.00  0.00    -0.347 A  
HETATM    7  C   UNL     1     -10.864   5.871  69.356  1.00  0.00    -0.352 A  
HETATM    8  N   UNL     1     -10.708   6.784  70.362  1.00  0.00    -0.230 NA 
HETATM    9  C   UNL     1     -10.423   8.023  69.839  1.00  0.00    -0.233 A  
HETATM   10  H   UNL     1     -10.792   6.575  71.357  1.00  0.00     0.000 HD 
HETATM   11  C   UNL     1     -10.399   7.892  68.453  1.00  0.00    -0.235 A  
HETATM   12  C   UNL     1     -10.122   9.041  67.676  1.00  0.00    -0.271 A  
HETATM   13  C   UNL     1      -9.891  10.285  68.296  1.00  0.00    -0.161 A  
HETATM   14  C   UNL     1      -9.917  10.360  69.696  1.00  0.00    -0.209 A  
HETATM   15  C   UNL     1     -10.192   9.240  70.488  1.00  0.00    -0.309 A  
BRANCH  13  16
HETATM   16  C   UNL     1      -9.601  11.506  67.447  1.00  0.00    -0.168 C  
BRANCH  16  17
HETATM   17  S   UNL     1     -11.126  12.446  67.199  1.00  0.00    -0.297 S  
HETATM   18  O   UNL     1     -10.955  13.785  67.729  1.00  0.00    -0.249 OA 
HETATM   19  O   UNL     1     -12.269  11.637  67.557  1.00  0.00    -0.501 OA 
BRANCH  17  20
HETATM   20  N   UNL     1     -11.200  12.629  65.504  1.00  0.00    -0.292 N  
HETATM   21  C   UNL     1     -10.548  11.510  64.768  1.00  0.00    -0.305 C  
HETATM   22  C   UNL     1     -11.088  11.627  63.356  1.00  0.00    -0.422 C  
HETATM   23  C   UNL     1     -12.521  12.077  63.559  1.00  0.00    -0.654 C  
HETATM   24  C   UNL     1     -12.522  12.865  64.867  1.00  0.00    -0.478 C  
ENDBRANCH  17  20
ENDBRANCH  16  17
ENDBRANCH  13  16
ENDBRANCH   5   6
ENDBRANCH   4   5
ENDBRANCH   2   4
TORSDOF 6
ENDMDL
MODEL       83
REMARK 921   NORMALIZED FREE ENERGY PREDICTED BY IDOCK:   -5.07 KCAL/MOL
REMARK 922        TOTAL FREE ENERGY PREDICTED BY IDOCK:   -7.43 KCAL/MOL
REMARK 923 INTER-LIGAND FREE ENERGY PREDICTED BY IDOCK:   -6.79 KCAL/MOL
REMARK 924 INTRA-LIGAND FREE ENERGY PREDICTED BY IDOCK:   -0.65 KCAL/MOL
REMARK 927      BINDING AFFINITY PREDICTED BY RF-SCORE:    0.00 PKD
ROOT
HETATM    1  C   UNL     1     -10.958   6.110  67.102  1.00  0.00    -0.331 C  
HETATM    2  N   UNL     1      -9.890   5.651  67.998  1.00  0.00    -0.126 NA 
HETATM    3  C   UNL     1      -8.725   6.526  67.855  1.00  0.00    -0.116 C  
ENDROOT
BRANCH   2   4
HETATM    4  C   UNL     1     -10.396   5.623  69.386  1.00  0.00    -0.273 C  
BRANCH   4   5
HETATM    5  C   UNL     1      -9.634   6.525  70.377  1.00  0.00    -0.173 C  
BRANCH   5   6
HETATM    6  C   UNL     1     -10.560   7.442  71.122  1.00  0.00    -0.235 A  
HETATM    7  C   UNL     1     -11.062   7.235  72.394  1.00  0.00    -0.275 A  
HETATM    8  N   UNL     1     -11.907   8.266  72.696  1.00  0.00    -0.480 NA 
HETATM    9  C   UNL     1     -11.953   9.163  71.655  1.00  0.00    -0.367 A  
HETATM   10  H   UNL     1     -12.427   8.357  73.569  1.00  0.00     0.000 HD 
HETATM   11  C   UNL     1     -11.110   8.682  70.656  1.00  0.00    -0.282 A  
HETATM   12  C   UNL     1     -10.983   9.436  69.467  1.00  0.00    -0.193 A  
HETATM   13  C   UNL     1     -11.704  10.634  69.298  1.00  0.00    -0.336 A  
HETATM   14  C   UNL     1     -12.531  11.080  70.340  1.00  0.00    -0.397 A  
HETATM   15  C   UNL     1     -12.679  10.352  71.525  1.00  0.00    -0.564 A  
BRANCH  13  16
HETATM   16  C   UNL     1     -11.558  11.426  68.015  1.00  0.00    -0.286 C  
BRANCH  16  17
HETATM   17  S   UNL     1     -10.342  12.744  68.252  1.00  0.00    -0.245 S  
HETATM   18  O   UNL     1      -9.042  12.156  68.508  1.00  0.00    -0.172 OA 
HETATM   19  O   UNL     1     -10.886  13.768  69.116  1.00  0.00    -0.237 OA 
BRANCH  17  20
HETATM   20  N   UNL     1     -10.230  13.454  66.705  1.00  0.00    -0.255 N  
HETATM   21  C   UNL     1     -11.559  13.739  66.097  1.00  0.00    -0.352 C  
HETATM   22  C   UNL     1     -11.258  14.725  64.985  1.00  0.00    -0.399 C  
HETATM   23  C   UNL     1     -10.143  15.578  65.557  1.00  0.00    -0.406 C  
HETATM   24  C   UNL     1      -9.397  14.674  66.537  1.00  0.00    -0.288 C  
ENDBRANCH  17  20
ENDBRANCH  16  17
ENDBRANCH  13  16
ENDBRANCH   5   6
ENDBRANCH   4   5
ENDBRANCH   2   4
TORSDOF 6
ENDMDL
MODEL       84
REMARK 921   NORMALIZED FREE ENERGY PREDICTED BY IDOCK:   -5.07 KCAL/MOL
REMARK 922        TOTAL FREE ENERGY PREDICTED BY IDOCK:   -7.43 KCAL/MOL
REMARK 923 INTER-LIGAND FREE ENERGY PREDICTED BY IDOCK:   -6.87 KCAL/MOL
REMARK 924 INTRA-LIGAND FREE ENERGY PREDICTED BY IDOCK:   -0.56 KCAL/MOL
REMARK 927      BINDING AFFINITY PREDICTED BY RF-SCORE:    0.00 PKD
ROOT
HETATM    1  C   UNL     1      -9.408  19.496  69.027  1.00  0.00    -0.280 C  
HETATM    2  N   UNL     1      -9.732  20.037  67.702  1.00  0.00    -0.382 NA 
HETATM    3  C   UNL     1      -8.494  20.280  66.960  1.00  0.00    -0.319 C  
ENDROOT
BRANCH   2   4
HETATM    4  C   UNL     1     -10.626  19.096  66.996  1.00  0.00    -0.457 C  
BRANCH   4   5
HETATM    5  C   UNL     1     -10.455  17.615  67.387  1.00  0.00    -0.356 C  
BRANCH   5   6
HETATM    6  C   UNL     1     -10.779  16.697  66.244  1.00  0.00    -0.119 A  
HETATM    7  C   UNL     1     -10.805  17.040  64.905  1.00  0.00     0.098 A  
HETATM    8  N   UNL     1     -11.192  15.943  64.187  1.00  0.00    -1.005 NA 
HETATM    9  C   UNL     1     -11.401  14.875  65.027  1.00  0.00    -0.398 A  
HETATM   10  H   UNL     1     -11.309  15.921  63.173  1.00  0.00     0.000 HD 
HETATM   11  C   UNL     1     -11.138  15.310  66.323  1.00  0.00    -0.273 A  
HETATM   12  C   UNL     1     -11.281  14.385  67.383  1.00  0.00    -0.337 A  
HETATM   13  C   UNL     1     -11.692  13.062  67.126  1.00  0.00    -0.439 A  
HETATM   14  C   UNL     1     -11.934  12.672  65.801  1.00  0.00    -0.503 A  
HETATM   15  C   UNL     1     -11.804  13.568  64.734  1.00  0.00    -0.412 A  
BRANCH  13  16
HETATM   16  C   UNL     1     -11.845  12.086  68.274  1.00  0.00    -0.287 C  
BRANCH  16  17
HETATM   17  S   UNL     1     -10.528  10.848  68.195  1.00  0.00    -0.196 S  
HETATM   18  O   UNL     1     -10.907   9.805  67.262  1.00  0.00    -0.265 OA 
HETATM   19  O   UNL     1     -10.068  10.531  69.529  1.00  0.00    -0.222 OA 
BRANCH  17  20
HETATM   20  N   UNL     1      -9.246  11.690  67.449  1.00  0.00    -0.166 N  
HETATM   21  C   UNL     1      -8.273  12.254  68.425  1.00  0.00    -0.146 C  
HETATM   22  C   UNL     1      -7.042  12.556  67.594  1.00  0.00    -0.139 C  
HETATM   23  C   UNL     1      -7.005  11.424  66.587  1.00  0.00    -0.102 C  
HETATM   24  C   UNL     1      -8.461  11.003  66.390  1.00  0.00    -0.164 C  
ENDBRANCH  17  20
ENDBRANCH  16  17
ENDBRANCH  13  16
ENDBRANCH   5   6
ENDBRANCH   4   5
ENDBRANCH   2   4
TORSDOF 6
ENDMDL
MODEL       85
REMARK 921   NORMALIZED FREE ENERGY PREDICTED BY IDOCK:   -5.06 KCAL/MOL
REMARK 922        TOTAL FREE ENERGY PREDICTED BY IDOCK:   -7.42 KCAL/MOL
REMARK 923 INTER-LIGAND FREE ENERGY PREDICTED BY IDOCK:   -6.55 KCAL/MOL
REMARK 924 INTRA-LIGAND FREE ENERGY PREDICTED BY IDOCK:   -0.87 KCAL/MOL
REMARK 927      BINDING AFFINITY PREDICTED BY RF-SCORE:    0.00 PKD
ROOT
HETATM    1  C   UNL     1     -12.151  15.979  72.897  1.00  0.00    -0.520 C  
HETATM    2  N   UNL     1     -12.541  16.062  71.485  1.00  0.00    -0.392 NA 
HETATM    3  C   UNL     1     -11.339  16.094  70.649  1.00  0.00    -0.370 C  
ENDROOT
BRANCH   2   4
HETATM    4  C   UNL     1     -13.417  14.918  71.153  1.00  0.00    -0.411 C  
BRANCH   4   5
HETATM    5  C   UNL     1     -12.764  13.829  70.279  1.00  0.00    -0.208 C  
BRANCH   5   6
HETATM    6  C   UNL     1     -12.778  12.489  70.957  1.00  0.00    -0.316 A  
HETATM    7  C   UNL     1     -13.441  12.176  72.130  1.00  0.00    -0.278 A  
HETATM    8  N   UNL     1     -13.167  10.875  72.445  1.00  0.00    -0.448 NA 
HETATM    9  C   UNL     1     -12.353  10.316  71.488  1.00  0.00    -0.390 A  
HETATM   10  H   UNL     1     -13.516  10.388  73.271  1.00  0.00     0.000 HD 
HETATM   11  C   UNL     1     -12.101  11.298  70.533  1.00  0.00    -0.481 A  
HETATM   12  C   UNL     1     -11.279  10.966  69.432  1.00  0.00    -0.335 A  
HETATM   13  C   UNL     1     -10.723   9.677  69.316  1.00  0.00    -0.246 A  
HETATM   14  C   UNL     1     -11.017   8.721  70.300  1.00  0.00    -0.255 A  
HETATM   15  C   UNL     1     -11.823   9.024  71.402  1.00  0.00    -0.395 A  
BRANCH  13  16
HETATM   16  C   UNL     1      -9.841   9.342  68.131  1.00  0.00    -0.162 C  
BRANCH  16  17
HETATM   17  S   UNL     1      -8.251  10.186  68.302  1.00  0.00    -0.112 S  
HETATM   18  O   UNL     1      -7.228   9.427  67.609  1.00  0.00    -0.082 OA 
HETATM   19  O   UNL     1      -8.066  10.620  69.669  1.00  0.00    -0.106 OA 
BRANCH  17  20
HETATM   20  N   UNL     1      -8.466  11.611  67.389  1.00  0.00    -0.144 N  
HETATM   21  C   UNL     1      -9.541  11.491  66.365  1.00  0.00    -0.209 C  
HETATM   22  C   UNL     1      -9.862  12.924  65.990  1.00  0.00    -0.256 C  
HETATM   23  C   UNL     1      -9.715  13.676  67.298  1.00  0.00    -0.243 C  
HETATM   24  C   UNL     1      -8.681  12.895  68.107  1.00  0.00    -0.190 C  
ENDBRANCH  17  20
ENDBRANCH  16  17
ENDBRANCH  13  16
ENDBRANCH   5   6
ENDBRANCH   4   5
ENDBRANCH   2   4
TORSDOF 6
ENDMDL
MODEL       86
REMARK 921   NORMALIZED FREE ENERGY PREDICTED BY IDOCK:   -5.05 KCAL/MOL
REMARK 922        TOTAL FREE ENERGY PREDICTED BY IDOCK:   -7.41 KCAL/MOL
REMARK 923 INTER-LIGAND FREE ENERGY PREDICTED BY IDOCK:   -8.02 KCAL/MOL
REMARK 924 INTRA-LIGAND FREE ENERGY PREDICTED BY IDOCK:    0.61 KCAL/MOL
REMARK 927      BINDING AFFINITY PREDICTED BY RF-SCORE:    0.00 PKD
ROOT
HETATM    1  C   UNL     1     -11.707   9.775  70.529  1.00  0.00    -0.268 C  
HETATM    2  N   UNL     1     -12.967  10.416  70.925  1.00  0.00    -0.394 NA 
HETATM    3  C   UNL     1     -13.774   9.467  71.695  1.00  0.00    -0.291 C  
ENDROOT
BRANCH   2   4
HETATM    4  C   UNL     1     -12.670  11.643  71.693  1.00  0.00    -0.270 C  
BRANCH   4   5
HETATM    5  C   UNL     1     -13.468  12.890  71.266  1.00  0.00     0.116 C  
BRANCH   5   6
HETATM    6  C   UNL     1     -12.576  14.081  71.067  1.00  0.00    -0.437 A  
HETATM    7  C   UNL     1     -12.112  14.926  72.059  1.00  0.00    -0.359 A  
HETATM    8  N   UNL     1     -11.374  15.915  71.471  1.00  0.00    -0.360 NA 
HETATM    9  C   UNL     1     -11.324  15.726  70.110  1.00  0.00    -0.355 A  
HETATM   10  H   UNL     1     -10.925  16.683  71.970  1.00  0.00     0.000 HD 
HETATM   11  C   UNL     1     -12.058  14.577  69.825  1.00  0.00    -0.380 A  
HETATM   12  C   UNL     1     -12.159  14.163  68.476  1.00  0.00    -0.312 A  
HETATM   13  C   UNL     1     -11.541  14.908  67.452  1.00  0.00    -0.347 A  
HETATM   14  C   UNL     1     -10.805  16.051  67.794  1.00  0.00    -0.324 A  
HETATM   15  C   UNL     1     -10.692  16.485  69.120  1.00  0.00    -0.335 A  
BRANCH  13  16
HETATM   16  C   UNL     1     -11.663  14.452  66.013  1.00  0.00    -0.375 C  
BRANCH  16  17
HETATM   17  S   UNL     1     -11.907  12.660  65.964  1.00  0.00    -0.422 S  
HETATM   18  O   UNL     1     -13.004  12.350  65.068  1.00  0.00    -0.705 OA 
HETATM   19  O   UNL     1     -11.856  12.119  67.304  1.00  0.00    -0.530 OA 
BRANCH  17  20
HETATM   20  N   UNL     1     -10.500  12.096  65.182  1.00  0.00    -0.272 N  
HETATM   21  C   UNL     1     -10.233  10.653  65.432  1.00  0.00    -0.273 C  
HETATM   22  C   UNL     1      -9.249  10.261  64.347  1.00  0.00    -0.296 C  
HETATM   23  C   UNL     1      -9.702  11.069  63.146  1.00  0.00    -0.398 C  
HETATM   24  C   UNL     1     -10.353  12.327  63.721  1.00  0.00    -0.435 C  
ENDBRANCH  17  20
ENDBRANCH  16  17
ENDBRANCH  13  16
ENDBRANCH   5   6
ENDBRANCH   4   5
ENDBRANCH   2   4
TORSDOF 6
ENDMDL
MODEL       87
REMARK 921   NORMALIZED FREE ENERGY PREDICTED BY IDOCK:   -5.05 KCAL/MOL
REMARK 922        TOTAL FREE ENERGY PREDICTED BY IDOCK:   -7.41 KCAL/MOL
REMARK 923 INTER-LIGAND FREE ENERGY PREDICTED BY IDOCK:   -7.12 KCAL/MOL
REMARK 924 INTRA-LIGAND FREE ENERGY PREDICTED BY IDOCK:   -0.29 KCAL/MOL
REMARK 927      BINDING AFFINITY PREDICTED BY RF-SCORE:    0.00 PKD
ROOT
HETATM    1  C   UNL     1     -12.139  14.367  64.374  1.00  0.00    -0.470 C  
HETATM    2  N   UNL     1     -12.171  12.933  64.681  1.00  0.00    -0.411 NA 
HETATM    3  C   UNL     1     -12.488  12.182  63.464  1.00  0.00    -0.555 C  
ENDROOT
BRANCH   2   4
HETATM    4  C   UNL     1     -10.873  12.528  65.260  1.00  0.00    -0.286 C  
BRANCH   4   5
HETATM    5  C   UNL     1     -10.961  11.484  66.390  1.00  0.00    -0.336 C  
BRANCH   5   6
HETATM    6  C   UNL     1     -10.212  10.228  66.047  1.00  0.00    -0.298 A  
HETATM    7  C   UNL     1      -9.517   9.989  64.876  1.00  0.00    -0.293 A  
HETATM    8  N   UNL     1      -9.019   8.716  64.923  1.00  0.00    -0.420 NA 
HETATM    9  C   UNL     1      -9.354   8.120  66.116  1.00  0.00    -0.166 A  
HETATM   10  H   UNL     1      -8.476   8.274  64.181  1.00  0.00     0.000 HD 
HETATM   11  C   UNL     1     -10.092   9.045  66.849  1.00  0.00    -0.338 A  
HETATM   12  C   UNL     1     -10.558   8.667  68.130  1.00  0.00    -0.189 A  
HETATM   13  C   UNL     1     -10.290   7.381  68.638  1.00  0.00    -0.215 A  
HETATM   14  C   UNL     1      -9.533   6.490  67.862  1.00  0.00    -0.120 A  
HETATM   15  C   UNL     1      -9.063   6.837  66.591  1.00  0.00    -0.164 A  
BRANCH  13  16
HETATM   16  C   UNL     1     -10.801   6.992  70.009  1.00  0.00    -0.261 C  
BRANCH  16  17
HETATM   17  S   UNL     1      -9.942   7.961  71.272  1.00  0.00    -0.177 S  
HETATM   18  O   UNL     1      -9.066   8.920  70.627  1.00  0.00    -0.169 OA 
HETATM   19  O   UNL     1      -9.458   7.089  72.319  1.00  0.00    -0.141 OA 
BRANCH  17  20
HETATM   20  N   UNL     1     -11.194   8.881  71.977  1.00  0.00    -0.368 N  
HETATM   21  C   UNL     1     -11.600  10.047  71.144  1.00  0.00    -0.378 C  
HETATM   22  C   UNL     1     -12.952  10.450  71.698  1.00  0.00    -0.581 C  
HETATM   23  C   UNL     1     -13.595   9.127  72.064  1.00  0.00    -0.520 C  
HETATM   24  C   UNL     1     -12.438   8.188  72.403  1.00  0.00    -0.262 C  
ENDBRANCH  17  20
ENDBRANCH  16  17
ENDBRANCH  13  16
ENDBRANCH   5   6
ENDBRANCH   4   5
ENDBRANCH   2   4
TORSDOF 6
ENDMDL
MODEL       88
REMARK 921   NORMALIZED FREE ENERGY PREDICTED BY IDOCK:   -5.03 KCAL/MOL
REMARK 922        TOTAL FREE ENERGY PREDICTED BY IDOCK:   -7.39 KCAL/MOL
REMARK 923 INTER-LIGAND FREE ENERGY PREDICTED BY IDOCK:   -7.74 KCAL/MOL
REMARK 924 INTRA-LIGAND FREE ENERGY PREDICTED BY IDOCK:    0.35 KCAL/MOL
REMARK 927      BINDING AFFINITY PREDICTED BY RF-SCORE:    0.00 PKD
ROOT
HETATM    1  C   UNL     1     -12.498  15.329  74.187  1.00  0.00    -0.597 C  
HETATM    2  N   UNL     1     -12.903  16.093  73.002  1.00  0.00    -0.453 NA 
HETATM    3  C   UNL     1     -11.728  16.356  72.168  1.00  0.00    -0.368 C  
ENDROOT
BRANCH   2   4
HETATM    4  C   UNL     1     -13.945  15.343  72.270  1.00  0.00    -0.562 C  
BRANCH   4   5
HETATM    5  C   UNL     1     -13.463  14.637  70.988  1.00  0.00    -0.375 C  
BRANCH   5   6
HETATM    6  C   UNL     1     -13.176  13.182  71.227  1.00  0.00    -0.202 A  
HETATM    7  C   UNL     1     -13.625  12.429  72.296  1.00  0.00    -0.269 A  
HETATM    8  N   UNL     1     -13.109  11.168  72.181  1.00  0.00    -0.519 NA 
HETATM    9  C   UNL     1     -12.345  11.070  71.042  1.00  0.00    -0.385 A  
HETATM   10  H   UNL     1     -13.268  10.410  72.845  1.00  0.00     0.000 HD 
HETATM   11  C   UNL     1     -12.377  12.313  70.414  1.00  0.00    -0.309 A  
HETATM   12  C   UNL     1     -11.660  12.471  69.206  1.00  0.00    -0.378 A  
HETATM   13  C   UNL     1     -10.924  11.398  68.665  1.00  0.00    -0.267 A  
HETATM   14  C   UNL     1     -10.934  10.164  69.332  1.00  0.00    -0.285 A  
HETATM   15  C   UNL     1     -11.631   9.981  70.531  1.00  0.00    -0.403 A  
BRANCH  13  16
HETATM   16  C   UNL     1     -10.158  11.588  67.372  1.00  0.00    -0.191 C  
BRANCH  16  17
HETATM   17  S   UNL     1      -9.786   9.973  66.646  1.00  0.00    -0.214 S  
HETATM   18  O   UNL     1     -10.784   9.013  67.077  1.00  0.00    -0.242 OA 
HETATM   19  O   UNL     1      -8.373   9.692  66.765  1.00  0.00    -0.116 OA 
BRANCH  17  20
HETATM   20  N   UNL     1     -10.072  10.219  64.982  1.00  0.00    -0.323 N  
HETATM   21  C   UNL     1     -10.733  11.520  64.690  1.00  0.00    -0.319 C  
HETATM   22  C   UNL     1     -10.502  11.733  63.207  1.00  0.00    -0.439 C  
HETATM   23  C   UNL     1      -9.114  11.168  62.978  1.00  0.00    -0.285 C  
HETATM   24  C   UNL     1      -8.936  10.078  64.033  1.00  0.00    -0.240 C  
ENDBRANCH  17  20
ENDBRANCH  16  17
ENDBRANCH  13  16
ENDBRANCH   5   6
ENDBRANCH   4   5
ENDBRANCH   2   4
TORSDOF 6
ENDMDL
MODEL       89
REMARK 921   NORMALIZED FREE ENERGY PREDICTED BY IDOCK:   -5.03 KCAL/MOL
REMARK 922        TOTAL FREE ENERGY PREDICTED BY IDOCK:   -7.39 KCAL/MOL
REMARK 923 INTER-LIGAND FREE ENERGY PREDICTED BY IDOCK:   -6.91 KCAL/MOL
REMARK 924 INTRA-LIGAND FREE ENERGY PREDICTED BY IDOCK:   -0.47 KCAL/MOL
REMARK 927      BINDING AFFINITY PREDICTED BY RF-SCORE:    0.00 PKD
ROOT
HETATM    1  C   UNL     1      -9.593   3.563  70.587  1.00  0.00    -0.177 C  
HETATM    2  N   UNL     1      -9.314   5.002  70.506  1.00  0.00    -0.147 NA 
HETATM    3  C   UNL     1     -10.016   5.569  69.353  1.00  0.00    -0.208 C  
ENDROOT
BRANCH   2   4
HETATM    4  C   UNL     1      -9.715   5.649  71.773  1.00  0.00    -0.158 C  
BRANCH   4   5
HETATM    5  C   UNL     1      -9.369   7.147  71.878  1.00  0.00    -0.150 C  
BRANCH   5   6
HETATM    6  C   UNL     1     -10.602   7.997  71.994  1.00  0.00    -0.310 A  
HETATM    7  C   UNL     1     -11.673   7.767  72.838  1.00  0.00    -0.177 A  
HETATM    8  N   UNL     1     -12.615   8.732  72.611  1.00  0.00    -0.468 NA 
HETATM    9  C   UNL     1     -12.174   9.608  71.648  1.00  0.00    -0.402 A  
HETATM   10  H   UNL     1     -13.515   8.792  73.088  1.00  0.00     0.000 HD 
HETATM   11  C   UNL     1     -10.909   9.183  71.249  1.00  0.00    -0.402 A  
HETATM   12  C   UNL     1     -10.234   9.929  70.255  1.00  0.00    -0.322 A  
HETATM   13  C   UNL     1     -10.838  11.064  69.679  1.00  0.00    -0.241 A  
HETATM   14  C   UNL     1     -12.109  11.455  70.124  1.00  0.00    -0.439 A  
HETATM   15  C   UNL     1     -12.801  10.733  71.103  1.00  0.00    -0.513 A  
BRANCH  13  16
HETATM   16  C   UNL     1     -10.101  11.847  68.612  1.00  0.00    -0.177 C  
BRANCH  16  17
HETATM   17  S   UNL     1     -10.339  11.053  67.005  1.00  0.00    -0.239 S  
HETATM   18  O   UNL     1     -10.873   9.720  67.204  1.00  0.00    -0.235 OA 
HETATM   19  O   UNL     1      -9.184  11.282  66.165  1.00  0.00    -0.194 OA 
BRANCH  17  20
HETATM   20  N   UNL     1     -11.606  11.957  66.307  1.00  0.00    -0.319 N  
HETATM   21  C   UNL     1     -11.695  13.345  66.840  1.00  0.00    -0.389 C  
HETATM   22  C   UNL     1     -12.547  14.082  65.826  1.00  0.00    -0.512 C  
HETATM   23  C   UNL     1     -12.128  13.475  64.501  1.00  0.00    -0.460 C  
HETATM   24  C   UNL     1     -11.688  12.048  64.825  1.00  0.00    -0.275 C  
ENDBRANCH  17  20
ENDBRANCH  16  17
ENDBRANCH  13  16
ENDBRANCH   5   6
ENDBRANCH   4   5
ENDBRANCH   2   4
TORSDOF 6
ENDMDL
MODEL       90
REMARK 921   NORMALIZED FREE ENERGY PREDICTED BY IDOCK:   -5.03 KCAL/MOL
REMARK 922        TOTAL FREE ENERGY PREDICTED BY IDOCK:   -7.38 KCAL/MOL
REMARK 923 INTER-LIGAND FREE ENERGY PREDICTED BY IDOCK:   -6.78 KCAL/MOL
REMARK 924 INTRA-LIGAND FREE ENERGY PREDICTED BY IDOCK:   -0.60 KCAL/MOL
REMARK 927      BINDING AFFINITY PREDICTED BY RF-SCORE:    0.00 PKD
ROOT
HETATM    1  C   UNL     1      -8.059   5.098  74.443  1.00  0.00    -0.102 C  
HETATM    2  N   UNL     1      -7.404   6.017  73.505  1.00  0.00    -0.089 NA 
HETATM    3  C   UNL     1      -7.211   5.344  72.219  1.00  0.00    -0.088 C  
ENDROOT
BRANCH   2   4
HETATM    4  C   UNL     1      -8.221   7.242  73.373  1.00  0.00    -0.112 C  
BRANCH   4   5
HETATM    5  C   UNL     1      -8.874   7.445  71.991  1.00  0.00    -0.141 C  
BRANCH   5   6
HETATM    6  C   UNL     1     -10.372   7.428  72.076  1.00  0.00    -0.223 A  
HETATM    7  C   UNL     1     -11.153   6.371  72.507  1.00  0.00    -0.263 A  
HETATM    8  N   UNL     1     -12.467   6.728  72.388  1.00  0.00    -0.519 NA 
HETATM    9  C   UNL     1     -12.567   8.013  71.907  1.00  0.00    -0.328 A  
HETATM   10  H   UNL     1     -13.258   6.129  72.622  1.00  0.00     0.000 HD 
HETATM   11  C   UNL     1     -11.271   8.485  71.712  1.00  0.00    -0.379 A  
HETATM   12  C   UNL     1     -11.105   9.799  71.218  1.00  0.00    -0.375 A  
HETATM   13  C   UNL     1     -12.225  10.599  70.920  1.00  0.00    -0.497 A  
HETATM   14  C   UNL     1     -13.509  10.079  71.143  1.00  0.00    -0.299 A  
HETATM   15  C   UNL     1     -13.702   8.781  71.628  1.00  0.00    -0.437 A  
BRANCH  13  16
HETATM   16  C   UNL     1     -12.027  12.003  70.387  1.00  0.00    -0.291 C  
BRANCH  16  17
HETATM   17  S   UNL     1     -11.356  11.924  68.709  1.00  0.00    -0.301 S  
HETATM   18  O   UNL     1     -12.134  10.984  67.925  1.00  0.00    -0.600 OA 
HETATM   19  O   UNL     1      -9.913  11.847  68.757  1.00  0.00    -0.184 OA 
BRANCH  17  20
HETATM   20  N   UNL     1     -11.717  13.464  68.071  1.00  0.00    -0.336 N  
HETATM   21  C   UNL     1     -10.610  14.444  68.250  1.00  0.00    -0.243 C  
HETATM   22  C   UNL     1     -10.933  15.556  67.272  1.00  0.00    -0.303 C  
HETATM   23  C   UNL     1     -11.527  14.825  66.084  1.00  0.00    -0.311 C  
HETATM   24  C   UNL     1     -12.172  13.565  66.659  1.00  0.00    -0.358 C  
ENDBRANCH  17  20
ENDBRANCH  16  17
ENDBRANCH  13  16
ENDBRANCH   5   6
ENDBRANCH   4   5
ENDBRANCH   2   4
TORSDOF 6
ENDMDL
MODEL       91
REMARK 921   NORMALIZED FREE ENERGY PREDICTED BY IDOCK:   -4.99 KCAL/MOL
REMARK 922        TOTAL FREE ENERGY PREDICTED BY IDOCK:   -7.33 KCAL/MOL
REMARK 923 INTER-LIGAND FREE ENERGY PREDICTED BY IDOCK:   -6.63 KCAL/MOL
REMARK 924 INTRA-LIGAND FREE ENERGY PREDICTED BY IDOCK:   -0.70 KCAL/MOL
REMARK 927      BINDING AFFINITY PREDICTED BY RF-SCORE:    0.00 PKD
ROOT
HETATM    1  C   UNL     1     -11.312  16.030  70.123  1.00  0.00    -0.365 C  
HETATM    2  N   UNL     1     -11.052  14.685  69.594  1.00  0.00    -0.262 NA 
HETATM    3  C   UNL     1     -12.060  13.756  70.111  1.00  0.00    -0.359 C  
ENDROOT
BRANCH   2   4
HETATM    4  C   UNL     1     -11.048  14.734  68.117  1.00  0.00    -0.278 C  
BRANCH   4   5
HETATM    5  C   UNL     1     -12.148  13.899  67.434  1.00  0.00    -0.380 C  
BRANCH   5   6
HETATM    6  C   UNL     1     -11.817  13.608  65.999  1.00  0.00    -0.415 A  
HETATM    7  C   UNL     1     -12.120  14.411  64.914  1.00  0.00    -0.436 A  
HETATM    8  N   UNL     1     -11.699  13.777  63.778  1.00  0.00    -0.668 NA 
HETATM    9  C   UNL     1     -11.103  12.579  64.096  1.00  0.00    -0.376 A  
HETATM   10  H   UNL     1     -11.812  14.140  62.832  1.00  0.00     0.000 HD 
HETATM   11  C   UNL     1     -11.149  12.449  65.482  1.00  0.00    -0.338 A  
HETATM   12  C   UNL     1     -10.591  11.287  66.065  1.00  0.00    -0.314 A  
HETATM   13  C   UNL     1     -10.018  10.286  65.256  1.00  0.00    -0.387 A  
HETATM   14  C   UNL     1      -9.988  10.472  63.866  1.00  0.00    -0.348 A  
HETATM   15  C   UNL     1     -10.536  11.609  63.263  1.00  0.00    -0.438 A  
BRANCH  13  16
HETATM   16  C   UNL     1      -9.429   9.047  65.898  1.00  0.00    -0.249 C  
BRANCH  16  17
HETATM   17  S   UNL     1      -7.670   9.311  66.222  1.00  0.00    -0.096 S  
HETATM   18  O   UNL     1      -7.332  10.692  65.942  1.00  0.00    -0.144 OA 
HETATM   19  O   UNL     1      -6.896   8.222  65.667  1.00  0.00    -0.064 OA 
BRANCH  17  20
HETATM   20  N   UNL     1      -7.556   9.144  67.916  1.00  0.00    -0.085 N  
HETATM   21  C   UNL     1      -7.044  10.369  68.590  1.00  0.00    -0.076 C  
HETATM   22  C   UNL     1      -7.424  10.183  70.045  1.00  0.00    -0.171 C  
HETATM   23  C   UNL     1      -8.770   9.489  69.976  1.00  0.00    -0.242 C  
HETATM   24  C   UNL     1      -8.754   8.693  68.672  1.00  0.00    -0.138 C  
ENDBRANCH  17  20
ENDBRANCH  16  17
ENDBRANCH  13  16
ENDBRANCH   5   6
ENDBRANCH   4   5
ENDBRANCH   2   4
TORSDOF 6
ENDMDL
MODEL       92
REMARK 921   NORMALIZED FREE ENERGY PREDICTED BY IDOCK:   -4.96 KCAL/MOL
REMARK 922        TOTAL FREE ENERGY PREDICTED BY IDOCK:   -7.28 KCAL/MOL
REMARK 923 INTER-LIGAND FREE ENERGY PREDICTED BY IDOCK:   -6.50 KCAL/MOL
REMARK 924 INTRA-LIGAND FREE ENERGY PREDICTED BY IDOCK:   -0.79 KCAL/MOL
REMARK 927      BINDING AFFINITY PREDICTED BY RF-SCORE:    0.00 PKD
ROOT
HETATM    1  C   UNL     1      -8.773   9.044  64.397  1.00  0.00    -0.118 C  
HETATM    2  N   UNL     1      -8.765  10.511  64.371  1.00  0.00    -0.186 NA 
HETATM    3  C   UNL     1      -9.832  10.988  63.487  1.00  0.00    -0.359 C  
ENDROOT
BRANCH   2   4
HETATM    4  C   UNL     1      -8.916  11.025  65.748  1.00  0.00    -0.195 C  
BRANCH   4   5
HETATM    5  C   UNL     1      -9.471  10.010  66.766  1.00  0.00    -0.209 C  
BRANCH   5   6
HETATM    6  C   UNL     1     -10.551  10.609  67.619  1.00  0.00    -0.288 A  
HETATM    7  C   UNL     1     -11.391  11.648  67.259  1.00  0.00    -0.305 A  
HETATM    8  N   UNL     1     -12.198  11.937  68.324  1.00  0.00    -0.365 NA 
HETATM    9  C   UNL     1     -11.922  11.092  69.373  1.00  0.00    -0.349 A  
HETATM   10  H   UNL     1     -12.904  12.674  68.338  1.00  0.00     0.000 HD 
HETATM   11  C   UNL     1     -10.902  10.239  68.960  1.00  0.00    -0.265 A  
HETATM   12  C   UNL     1     -10.434   9.264  69.870  1.00  0.00    -0.247 A  
HETATM   13  C   UNL     1     -10.982   9.173  71.165  1.00  0.00    -0.390 A  
HETATM   14  C   UNL     1     -12.014  10.050  71.528  1.00  0.00    -0.438 A  
HETATM   15  C   UNL     1     -12.493  11.027  70.648  1.00  0.00    -0.465 A  
BRANCH  13  16
HETATM   16  C   UNL     1     -10.464   8.125  72.129  1.00  0.00    -0.284 C  
BRANCH  16  17
HETATM   17  S   UNL     1     -11.424   6.603  71.940  1.00  0.00    -0.307 S  
HETATM   18  O   UNL     1     -12.733   6.925  71.407  1.00  0.00    -0.370 OA 
HETATM   19  O   UNL     1     -11.274   5.776  73.117  1.00  0.00    -0.265 OA 
BRANCH  17  20
HETATM   20  N   UNL     1     -10.607   5.781  70.688  1.00  0.00    -0.261 N  
HETATM   21  C   UNL     1     -11.223   5.997  69.350  1.00  0.00    -0.327 C  
HETATM   22  C   UNL     1     -10.146   5.573  68.370  1.00  0.00    -0.234 C  
HETATM   23  C   UNL     1      -8.861   6.023  69.037  1.00  0.00    -0.121 C  
HETATM   24  C   UNL     1      -9.141   5.981  70.538  1.00  0.00    -0.149 C  
ENDBRANCH  17  20
ENDBRANCH  16  17
ENDBRANCH  13  16
ENDBRANCH   5   6
ENDBRANCH   4   5
ENDBRANCH   2   4
TORSDOF 6
ENDMDL
MODEL       93
REMARK 921   NORMALIZED FREE ENERGY PREDICTED BY IDOCK:   -4.94 KCAL/MOL
REMARK 922        TOTAL FREE ENERGY PREDICTED BY IDOCK:   -7.27 KCAL/MOL
REMARK 923 INTER-LIGAND FREE ENERGY PREDICTED BY IDOCK:   -6.73 KCAL/MOL
REMARK 924 INTRA-LIGAND FREE ENERGY PREDICTED BY IDOCK:   -0.53 KCAL/MOL
REMARK 927      BINDING AFFINITY PREDICTED BY RF-SCORE:    0.00 PKD
ROOT
HETATM    1  C   UNL     1     -10.102   7.280  70.359  1.00  0.00    -0.192 C  
HETATM    2  N   UNL     1     -10.660   8.577  69.958  1.00  0.00    -0.225 NA 
HETATM    3  C   UNL     1     -10.765   9.445  71.133  1.00  0.00    -0.347 C  
ENDROOT
BRANCH   2   4
HETATM    4  C   UNL     1      -9.811   9.170  68.904  1.00  0.00    -0.174 C  
BRANCH   4   5
HETATM    5  C   UNL     1      -9.579  10.688  69.030  1.00  0.00    -0.207 C  
BRANCH   5   6
HETATM    6  C   UNL     1     -10.343  11.457  67.991  1.00  0.00    -0.204 A  
HETATM    7  C   UNL     1     -11.533  11.069  67.403  1.00  0.00    -0.135 A  
HETATM    8  N   UNL     1     -11.880  12.010  66.474  1.00  0.00    -0.605 NA 
HETATM    9  C   UNL     1     -10.951  13.023  66.454  1.00  0.00    -0.281 A  
HETATM   10  H   UNL     1     -12.709  11.966  65.881  1.00  0.00     0.000 HD 
HETATM   11  C   UNL     1      -9.980  12.713  67.403  1.00  0.00    -0.204 A  
HETATM   12  C   UNL     1      -8.903  13.612  67.577  1.00  0.00    -0.205 A  
HETATM   13  C   UNL     1      -8.814  14.783  66.798  1.00  0.00    -0.281 A  
HETATM   14  C   UNL     1      -9.825  15.053  65.863  1.00  0.00    -0.369 A  
HETATM   15  C   UNL     1     -10.899  14.179  65.668  1.00  0.00    -0.306 A  
BRANCH  13  16
HETATM   16  C   UNL     1      -7.651  15.732  66.996  1.00  0.00    -0.222 C  
BRANCH  16  17
HETATM   17  S   UNL     1      -8.086  16.973  68.237  1.00  0.00    -0.237 S  
HETATM   18  O   UNL     1      -6.879  17.625  68.707  1.00  0.00    -0.215 OA 
HETATM   19  O   UNL     1      -9.053  16.427  69.164  1.00  0.00    -0.250 OA 
BRANCH  17  20
HETATM   20  N   UNL     1      -8.924  18.152  67.333  1.00  0.00    -0.255 N  
HETATM   21  C   UNL     1     -10.364  18.254  67.701  1.00  0.00    -0.396 C  
HETATM   22  C   UNL     1     -10.800  19.591  67.135  1.00  0.00    -0.555 C  
HETATM   23  C   UNL     1      -9.585  20.475  67.332  1.00  0.00    -0.578 C  
HETATM   24  C   UNL     1      -8.381  19.535  67.285  1.00  0.00    -0.293 C  
ENDBRANCH  17  20
ENDBRANCH  16  17
ENDBRANCH  13  16
ENDBRANCH   5   6
ENDBRANCH   4   5
ENDBRANCH   2   4
TORSDOF 6
ENDMDL
MODEL       94
REMARK 921   NORMALIZED FREE ENERGY PREDICTED BY IDOCK:   -4.93 KCAL/MOL
REMARK 922        TOTAL FREE ENERGY PREDICTED BY IDOCK:   -7.25 KCAL/MOL
REMARK 923 INTER-LIGAND FREE ENERGY PREDICTED BY IDOCK:   -6.58 KCAL/MOL
REMARK 924 INTRA-LIGAND FREE ENERGY PREDICTED BY IDOCK:   -0.68 KCAL/MOL
REMARK 927      BINDING AFFINITY PREDICTED BY RF-SCORE:    0.00 PKD
ROOT
HETATM    1  C   UNL     1      -9.595   6.537  71.355  1.00  0.00    -0.165 C  
HETATM    2  N   UNL     1      -9.552   7.243  70.070  1.00  0.00    -0.168 NA 
HETATM    3  C   UNL     1     -10.597   6.715  69.189  1.00  0.00    -0.244 C  
ENDROOT
BRANCH   2   4
HETATM    4  C   UNL     1      -9.707   8.694  70.304  1.00  0.00    -0.174 C  
BRANCH   4   5
HETATM    5  C   UNL     1     -10.949   9.332  69.653  1.00  0.00    -0.192 C  
BRANCH   5   6
HETATM    6  C   UNL     1     -11.829  10.002  70.669  1.00  0.00    -0.411 A  
HETATM    7  C   UNL     1     -12.431   9.392  71.754  1.00  0.00    -0.391 A  
HETATM    8  N   UNL     1     -13.189  10.324  72.406  1.00  0.00    -0.541 NA 
HETATM    9  C   UNL     1     -13.079  11.545  71.783  1.00  0.00    -0.398 A  
HETATM   10  H   UNL     1     -13.754  10.140  73.235  1.00  0.00     0.000 HD 
HETATM   11  C   UNL     1     -12.223  11.381  70.697  1.00  0.00    -0.484 A  
HETATM   12  C   UNL     1     -11.945  12.506  69.887  1.00  0.00    -0.371 A  
HETATM   13  C   UNL     1     -12.533  13.754  70.171  1.00  0.00    -0.332 A  
HETATM   14  C   UNL     1     -13.379  13.868  71.283  1.00  0.00    -0.314 A  
HETATM   15  C   UNL     1     -13.675  12.771  72.099  1.00  0.00    -0.454 A  
BRANCH  13  16
HETATM   16  C   UNL     1     -12.226  14.947  69.289  1.00  0.00    -0.186 C  
BRANCH  16  17
HETATM   17  S   UNL     1     -10.734  15.775  69.889  1.00  0.00    -0.351 S  
HETATM   18  O   UNL     1     -10.548  15.469  71.294  1.00  0.00    -0.064 OA 
HETATM   19  O   UNL     1     -10.697  17.138  69.406  1.00  0.00    -0.288 OA 
BRANCH  17  20
HETATM   20  N   UNL     1      -9.479  14.959  69.070  1.00  0.00    -0.211 N  
HETATM   21  C   UNL     1      -9.780  14.723  67.631  1.00  0.00    -0.213 C  
HETATM   22  C   UNL     1      -8.431  14.408  67.014  1.00  0.00    -0.206 C  
HETATM   23  C   UNL     1      -7.475  15.311  67.769  1.00  0.00    -0.178 C  
HETATM   24  C   UNL     1      -8.099  15.507  69.149  1.00  0.00    -0.244 C  
ENDBRANCH  17  20
ENDBRANCH  16  17
ENDBRANCH  13  16
ENDBRANCH   5   6
ENDBRANCH   4   5
ENDBRANCH   2   4
TORSDOF 6
ENDMDL
MODEL       95
REMARK 921   NORMALIZED FREE ENERGY PREDICTED BY IDOCK:   -4.93 KCAL/MOL
REMARK 922        TOTAL FREE ENERGY PREDICTED BY IDOCK:   -7.25 KCAL/MOL
REMARK 923 INTER-LIGAND FREE ENERGY PREDICTED BY IDOCK:   -6.71 KCAL/MOL
REMARK 924 INTRA-LIGAND FREE ENERGY PREDICTED BY IDOCK:   -0.54 KCAL/MOL
REMARK 927      BINDING AFFINITY PREDICTED BY RF-SCORE:    0.00 PKD
ROOT
HETATM    1  C   UNL     1     -10.658  18.910  67.776  1.00  0.00    -0.398 C  
HETATM    2  N   UNL     1      -9.833  19.396  66.664  1.00  0.00    -0.346 NA 
HETATM    3  C   UNL     1     -10.701  19.901  65.598  1.00  0.00    -0.272 C  
ENDROOT
BRANCH   2   4
HETATM    4  C   UNL     1      -8.905  20.434  67.161  1.00  0.00    -0.327 C  
BRANCH   4   5
HETATM    5  C   UNL     1      -7.409  20.088  67.032  1.00  0.00    -0.288 C  
BRANCH   5   6
HETATM    6  C   UNL     1      -6.962  19.139  68.107  1.00  0.00    -0.280 A  
HETATM    7  C   UNL     1      -6.270  19.478  69.256  1.00  0.00    -0.293 A  
HETATM    8  N   UNL     1      -6.005  18.331  69.952  1.00  0.00    -0.231 NA 
HETATM    9  C   UNL     1      -6.528  17.244  69.293  1.00  0.00    -0.243 A  
HETATM   10  H   UNL     1      -5.492  18.289  70.833  1.00  0.00     0.000 HD 
HETATM   11  C   UNL     1      -7.147  17.717  68.138  1.00  0.00    -0.219 A  
HETATM   12  C   UNL     1      -7.770  16.782  67.280  1.00  0.00    -0.200 A  
HETATM   13  C   UNL     1      -7.750  15.407  67.586  1.00  0.00    -0.180 A  
HETATM   14  C   UNL     1      -7.123  14.984  68.767  1.00  0.00    -0.114 A  
HETATM   15  C   UNL     1      -6.495  15.887  69.632  1.00  0.00    -0.186 A  
BRANCH  13  16
HETATM   16  C   UNL     1      -8.419  14.419  66.653  1.00  0.00     0.071 C  
BRANCH  16  17
HETATM   17  S   UNL     1     -10.098  14.980  66.281  1.00  0.00    -0.301 S  
HETATM   18  O   UNL     1     -10.055  15.927  65.184  1.00  0.00    -0.451 OA 
HETATM   19  O   UNL     1     -10.800  15.283  67.508  1.00  0.00    -0.289 OA 
BRANCH  17  20
HETATM   20  N   UNL     1     -10.845  13.582  65.652  1.00  0.00    -0.284 N  
HETATM   21  C   UNL     1     -12.332  13.642  65.705  1.00  0.00    -0.478 C  
HETATM   22  C   UNL     1     -12.785  12.562  64.741  1.00  0.00    -0.415 C  
HETATM   23  C   UNL     1     -11.755  12.622  63.630  1.00  0.00    -0.597 C  
HETATM   24  C   UNL     1     -10.470  13.122  64.289  1.00  0.00    -0.389 C  
ENDBRANCH  17  20
ENDBRANCH  16  17
ENDBRANCH  13  16
ENDBRANCH   5   6
ENDBRANCH   4   5
ENDBRANCH   2   4
TORSDOF 6
ENDMDL
MODEL       96
REMARK 921   NORMALIZED FREE ENERGY PREDICTED BY IDOCK:   -4.89 KCAL/MOL
REMARK 922        TOTAL FREE ENERGY PREDICTED BY IDOCK:   -7.19 KCAL/MOL
REMARK 923 INTER-LIGAND FREE ENERGY PREDICTED BY IDOCK:   -6.59 KCAL/MOL
REMARK 924 INTRA-LIGAND FREE ENERGY PREDICTED BY IDOCK:   -0.60 KCAL/MOL
REMARK 927      BINDING AFFINITY PREDICTED BY RF-SCORE:    0.00 PKD
ROOT
HETATM    1  C   UNL     1     -10.642  16.956  65.670  1.00  0.00    -0.221 C  
HETATM    2  N   UNL     1     -10.349  15.546  65.954  1.00  0.00    -0.323 NA 
HETATM    3  C   UNL     1      -8.962  15.419  66.405  1.00  0.00    -0.316 C  
ENDROOT
BRANCH   2   4
HETATM    4  C   UNL     1     -11.307  15.041  66.960  1.00  0.00    -0.318 C  
BRANCH   4   5
HETATM    5  C   UNL     1     -12.316  14.001  66.436  1.00  0.00    -0.468 C  
BRANCH   5   6
HETATM    6  C   UNL     1     -11.849  13.365  65.159  1.00  0.00    -0.375 A  
HETATM    7  C   UNL     1     -12.247  13.715  63.882  1.00  0.00    -0.374 A  
HETATM    8  N   UNL     1     -11.638  12.871  62.995  1.00  0.00    -0.754 NA 
HETATM    9  C   UNL     1     -10.828  11.984  63.664  1.00  0.00    -0.446 A  
HETATM   10  H   UNL     1     -11.767  12.896  61.983  1.00  0.00     0.000 HD 
HETATM   11  C   UNL     1     -10.927  12.275  65.022  1.00  0.00    -0.344 A  
HETATM   12  C   UNL     1     -10.177  11.494  65.931  1.00  0.00    -0.286 A  
HETATM   13  C   UNL     1      -9.363  10.441  65.468  1.00  0.00    -0.244 A  
HETATM   14  C   UNL     1      -9.291  10.197  64.089  1.00  0.00    -0.340 A  
HETATM   15  C   UNL     1     -10.025  10.952  63.168  1.00  0.00    -0.368 A  
BRANCH  13  16
HETATM   16  C   UNL     1      -8.571   9.612  66.457  1.00  0.00    -0.127 C  
BRANCH  16  17
HETATM   17  S   UNL     1      -9.419   8.041  66.746  1.00  0.00    -0.218 S  
HETATM   18  O   UNL     1      -8.980   7.071  65.762  1.00  0.00    -0.115 OA 
HETATM   19  O   UNL     1     -10.824   8.277  66.994  1.00  0.00    -0.245 OA 
BRANCH  17  20
HETATM   20  N   UNL     1      -8.768   7.514  68.233  1.00  0.00    -0.124 N  
HETATM   21  C   UNL     1      -8.988   8.483  69.342  1.00  0.00    -0.149 C  
HETATM   22  C   UNL     1      -8.748   7.673  70.600  1.00  0.00    -0.140 C  
HETATM   23  C   UNL     1      -9.303   6.305  70.254  1.00  0.00    -0.170 C  
HETATM   24  C   UNL     1      -9.144   6.169  68.741  1.00  0.00    -0.126 C  
ENDBRANCH  17  20
ENDBRANCH  16  17
ENDBRANCH  13  16
ENDBRANCH   5   6
ENDBRANCH   4   5
ENDBRANCH   2   4
TORSDOF 6
ENDMDL
MODEL       97
REMARK 921   NORMALIZED FREE ENERGY PREDICTED BY IDOCK:   -4.88 KCAL/MOL
REMARK 922        TOTAL FREE ENERGY PREDICTED BY IDOCK:   -7.18 KCAL/MOL
REMARK 923 INTER-LIGAND FREE ENERGY PREDICTED BY IDOCK:   -7.51 KCAL/MOL
REMARK 924 INTRA-LIGAND FREE ENERGY PREDICTED BY IDOCK:    0.32 KCAL/MOL
REMARK 927      BINDING AFFINITY PREDICTED BY RF-SCORE:    0.00 PKD
ROOT
HETATM    1  C   UNL     1      -9.482  19.603  68.102  1.00  0.00    -0.360 C  
HETATM    2  N   UNL     1      -8.856  18.928  66.959  1.00  0.00    -0.287 NA 
HETATM    3  C   UNL     1      -7.684  18.180  67.417  1.00  0.00    -0.217 C  
ENDROOT
BRANCH   2   4
HETATM    4  C   UNL     1      -9.851  18.054  66.304  1.00  0.00    -0.307 C  
BRANCH   4   5
HETATM    5  C   UNL     1      -9.552  16.544  66.392  1.00  0.00    -0.309 C  
BRANCH   5   6
HETATM    6  C   UNL     1     -10.440  15.746  65.483  1.00  0.00    -0.425 A  
HETATM    7  C   UNL     1     -11.312  16.258  64.539  1.00  0.00    -0.202 A  
HETATM    8  N   UNL     1     -11.975  15.216  63.954  1.00  0.00    -0.927 NA 
HETATM    9  C   UNL     1     -11.540  14.022  64.480  1.00  0.00    -0.391 A  
HETATM   10  H   UNL     1     -12.689  15.310  63.232  1.00  0.00     0.000 HD 
HETATM   11  C   UNL     1     -10.568  14.318  65.433  1.00  0.00    -0.367 A  
HETATM   12  C   UNL     1      -9.958  13.246  66.123  1.00  0.00    -0.295 A  
HETATM   13  C   UNL     1     -10.338  11.915  65.858  1.00  0.00    -0.277 A  
HETATM   14  C   UNL     1     -11.314  11.671  64.881  1.00  0.00    -0.252 A  
HETATM   15  C   UNL     1     -11.937  12.713  64.186  1.00  0.00    -0.501 A  
BRANCH  13  16
HETATM   16  C   UNL     1      -9.676  10.780  66.611  1.00  0.00    -0.190 C  
BRANCH  16  17
HETATM   17  S   UNL     1      -9.469  11.244  68.347  1.00  0.00    -0.195 S  
HETATM   18  O   UNL     1      -9.169  12.660  68.431  1.00  0.00    -0.195 OA 
HETATM   19  O   UNL     1      -8.655  10.262  69.027  1.00  0.00    -0.141 OA 
BRANCH  17  20
HETATM   20  N   UNL     1     -11.040  11.068  68.988  1.00  0.00    -0.223 N  
HETATM   21  C   UNL     1     -11.108  10.084  70.103  1.00  0.00    -0.310 C  
HETATM   22  C   UNL     1     -12.423  10.391  70.793  1.00  0.00    -0.461 C  
HETATM   23  C   UNL     1     -12.534  11.900  70.695  1.00  0.00    -0.347 C  
HETATM   24  C   UNL     1     -11.774  12.285  69.426  1.00  0.00    -0.330 C  
ENDBRANCH  17  20
ENDBRANCH  16  17
ENDBRANCH  13  16
ENDBRANCH   5   6
ENDBRANCH   4   5
ENDBRANCH   2   4
TORSDOF 6
ENDMDL
MODEL       98
REMARK 921   NORMALIZED FREE ENERGY PREDICTED BY IDOCK:   -4.87 KCAL/MOL
REMARK 922        TOTAL FREE ENERGY PREDICTED BY IDOCK:   -7.17 KCAL/MOL
REMARK 923 INTER-LIGAND FREE ENERGY PREDICTED BY IDOCK:   -6.68 KCAL/MOL
REMARK 924 INTRA-LIGAND FREE ENERGY PREDICTED BY IDOCK:   -0.49 KCAL/MOL
REMARK 927      BINDING AFFINITY PREDICTED BY RF-SCORE:    0.00 PKD
ROOT
HETATM    1  C   UNL     1     -10.771  15.066  65.236  1.00  0.00    -0.389 C  
HETATM    2  N   UNL     1      -9.940  14.279  66.155  1.00  0.00    -0.302 NA 
HETATM    3  C   UNL     1      -8.820  15.098  66.622  1.00  0.00    -0.286 C  
ENDROOT
BRANCH   2   4
HETATM    4  C   UNL     1     -10.776  13.794  67.274  1.00  0.00    -0.283 C  
BRANCH   4   5
HETATM    5  C   UNL     1     -11.740  12.645  66.918  1.00  0.00    -0.453 C  
BRANCH   5   6
HETATM    6  C   UNL     1     -11.002  11.418  66.465  1.00  0.00    -0.328 A  
HETATM    7  C   UNL     1     -10.643  11.118  65.164  1.00  0.00    -0.253 A  
HETATM    8  N   UNL     1     -10.034   9.894  65.157  1.00  0.00    -0.362 NA 
HETATM    9  C   UNL     1      -9.964   9.391  66.435  1.00  0.00    -0.276 A  
HETATM   10  H   UNL     1      -9.681   9.422  64.324  1.00  0.00     0.000 HD 
HETATM   11  C   UNL     1     -10.551  10.329  67.281  1.00  0.00    -0.324 A  
HETATM   12  C   UNL     1     -10.603  10.042  68.665  1.00  0.00    -0.239 A  
HETATM   13  C   UNL     1     -10.083   8.832  69.165  1.00  0.00    -0.203 A  
HETATM   14  C   UNL     1      -9.493   7.927  68.271  1.00  0.00    -0.149 A  
HETATM   15  C   UNL     1      -9.432   8.183  66.897  1.00  0.00    -0.244 A  
BRANCH  13  16
HETATM   16  C   UNL     1     -10.152   8.541  70.650  1.00  0.00    -0.192 C  
BRANCH  16  17
HETATM   17  S   UNL     1     -11.712   7.709  71.032  1.00  0.00    -0.271 S  
HETATM   18  O   UNL     1     -11.876   6.569  70.152  1.00  0.00    -0.416 OA 
HETATM   19  O   UNL     1     -12.765   8.686  71.198  1.00  0.00    -0.247 OA 
BRANCH  17  20
HETATM   20  N   UNL     1     -11.436   7.057  72.584  1.00  0.00    -0.246 N  
HETATM   21  C   UNL     1     -11.190   5.588  72.564  1.00  0.00    -0.274 C  
HETATM   22  C   UNL     1     -10.556   5.297  73.910  1.00  0.00    -0.335 C  
HETATM   23  C   UNL     1      -9.696   6.518  74.171  1.00  0.00    -0.291 C  
HETATM   24  C   UNL     1     -10.387   7.669  73.441  1.00  0.00    -0.314 C  
ENDBRANCH  17  20
ENDBRANCH  16  17
ENDBRANCH  13  16
ENDBRANCH   5   6
ENDBRANCH   4   5
ENDBRANCH   2   4
TORSDOF 6
ENDMDL
MODEL       99
REMARK 921   NORMALIZED FREE ENERGY PREDICTED BY IDOCK:   -4.82 KCAL/MOL
REMARK 922        TOTAL FREE ENERGY PREDICTED BY IDOCK:   -7.10 KCAL/MOL
REMARK 923 INTER-LIGAND FREE ENERGY PREDICTED BY IDOCK:   -6.59 KCAL/MOL
REMARK 924 INTRA-LIGAND FREE ENERGY PREDICTED BY IDOCK:   -0.51 KCAL/MOL
REMARK 927      BINDING AFFINITY PREDICTED BY RF-SCORE:    0.00 PKD
ROOT
HETATM    1  C   UNL     1     -13.942  13.645  72.332  1.00  0.00    -0.548 C  
HETATM    2  N   UNL     1     -13.907  15.064  71.959  1.00  0.00    -0.422 NA 
HETATM    3  C   UNL     1     -13.402  15.851  73.086  1.00  0.00    -0.587 C  
ENDROOT
BRANCH   2   4
HETATM    4  C   UNL     1     -13.075  15.230  70.749  1.00  0.00    -0.414 C  
BRANCH   4   5
HETATM    5  C   UNL     1     -12.343  13.957  70.280  1.00  0.00    -0.413 C  
BRANCH   5   6
HETATM    6  C   UNL     1     -11.791  14.111  68.892  1.00  0.00    -0.382 A  
HETATM    7  C   UNL     1     -11.613  15.303  68.214  1.00  0.00    -0.341 A  
HETATM    8  N   UNL     1     -11.138  15.019  66.964  1.00  0.00    -0.330 NA 
HETATM    9  C   UNL     1     -10.979  13.662  66.813  1.00  0.00    -0.292 A  
HETATM   10  H   UNL     1     -10.932  15.715  66.246  1.00  0.00     0.000 HD 
HETATM   11  C   UNL     1     -11.368  13.064  68.009  1.00  0.00    -0.327 A  
HETATM   12  C   UNL     1     -11.294  11.655  68.108  1.00  0.00    -0.358 A  
HETATM   13  C   UNL     1     -10.850  10.883  67.017  1.00  0.00    -0.323 A  
HETATM   14  C   UNL     1     -10.460  11.536  65.838  1.00  0.00    -0.303 A  
HETATM   15  C   UNL     1     -10.527  12.928  65.711  1.00  0.00    -0.293 A  
BRANCH  13  16
HETATM   16  C   UNL     1     -10.782   9.375  67.141  1.00  0.00    -0.163 C  
BRANCH  16  17
HETATM   17  S   UNL     1      -9.062   8.833  67.005  1.00  0.00    -0.137 S  
HETATM   18  O   UNL     1      -8.216   9.726  67.773  1.00  0.00    -0.113 OA 
HETATM   19  O   UNL     1      -8.754   8.507  65.630  1.00  0.00    -0.166 OA 
BRANCH  17  20
HETATM   20  N   UNL     1      -9.052   7.350  67.847  1.00  0.00    -0.130 N  
HETATM   21  C   UNL     1      -7.693   6.948  68.304  1.00  0.00    -0.113 C  
HETATM   22  C   UNL     1      -7.951   5.893  69.362  1.00  0.00    -0.102 C  
HETATM   23  C   UNL     1      -9.207   6.383  70.055  1.00  0.00    -0.159 C  
HETATM   24  C   UNL     1      -9.975   7.177  69.000  1.00  0.00    -0.174 C  
ENDBRANCH  17  20
ENDBRANCH  16  17
ENDBRANCH  13  16
ENDBRANCH   5   6
ENDBRANCH   4   5
ENDBRANCH   2   4
TORSDOF 6
ENDMDL
MODEL      100
REMARK 921   NORMALIZED FREE ENERGY PREDICTED BY IDOCK:   -4.82 KCAL/MOL
REMARK 922        TOTAL FREE ENERGY PREDICTED BY IDOCK:   -7.09 KCAL/MOL
REMARK 923 INTER-LIGAND FREE ENERGY PREDICTED BY IDOCK:   -6.71 KCAL/MOL
REMARK 924 INTRA-LIGAND FREE ENERGY PREDICTED BY IDOCK:   -0.39 KCAL/MOL
REMARK 927      BINDING AFFINITY PREDICTED BY RF-SCORE:    0.00 PKD
ROOT
HETATM    1  C   UNL     1     -11.944   9.723  70.596  1.00  0.00    -0.259 C  
HETATM    2  N   UNL     1     -13.167  10.339  71.125  1.00  0.00    -0.374 NA 
HETATM    3  C   UNL     1     -14.009   9.306  71.731  1.00  0.00    -0.260 C  
ENDROOT
BRANCH   2   4
HETATM    4  C   UNL     1     -12.802  11.395  72.093  1.00  0.00     0.030 C  
BRANCH   4   5
HETATM    5  C   UNL     1     -13.658  12.674  72.016  1.00  0.00    -0.426 C  
BRANCH   5   6
HETATM    6  C   UNL     1     -12.809  13.908  71.921  1.00  0.00    -0.411 A  
HETATM    7  C   UNL     1     -12.397  14.698  72.979  1.00  0.00    -0.235 A  
HETATM    8  N   UNL     1     -11.686  15.752  72.478  1.00  0.00    -0.462 NA 
HETATM    9  C   UNL     1     -11.602  15.661  71.108  1.00  0.00    -0.412 A  
HETATM   10  H   UNL     1     -11.277  16.500  73.039  1.00  0.00     0.000 HD 
HETATM   11  C   UNL     1     -12.285  14.508  70.728  1.00  0.00    -0.403 A  
HETATM   12  C   UNL     1     -12.343  14.187  69.352  1.00  0.00    -0.246 A  
HETATM   13  C   UNL     1     -11.733  15.023  68.396  1.00  0.00    -0.341 A  
HETATM   14  C   UNL     1     -11.049  16.166  68.833  1.00  0.00    -0.347 A  
HETATM   15  C   UNL     1     -10.980  16.510  70.188  1.00  0.00    -0.215 A  
BRANCH  13  16
HETATM   16  C   UNL     1     -11.810  14.665  66.926  1.00  0.00    -0.326 C  
BRANCH  16  17
HETATM   17  S   UNL     1     -11.235  12.967  66.687  1.00  0.00    -0.319 S  
HETATM   18  O   UNL     1     -10.820  12.791  65.309  1.00  0.00    -0.281 OA 
HETATM   19  O   UNL     1     -12.150  12.042  67.319  1.00  0.00    -0.572 OA 
BRANCH  17  20
HETATM   20  N   UNL     1      -9.802  12.906  67.610  1.00  0.00    -0.207 N  
HETATM   21  C   UNL     1      -9.369  11.516  67.923  1.00  0.00    -0.171 C  
HETATM   22  C   UNL     1      -7.918  11.661  68.338  1.00  0.00    -0.140 C  
HETATM   23  C   UNL     1      -7.397  12.762  67.435  1.00  0.00    -0.135 C  
HETATM   24  C   UNL     1      -8.606  13.643  67.124  1.00  0.00    -0.192 C  
ENDBRANCH  17  20
ENDBRANCH  16  17
ENDBRANCH  13  16
ENDBRANCH   5   6
ENDBRANCH   4   5
ENDBRANCH   2   4
TORSDOF 6
ENDMDL
MODEL      101
REMARK 921   NORMALIZED FREE ENERGY PREDICTED BY IDOCK:   -4.80 KCAL/MOL
REMARK 922        TOTAL FREE ENERGY PREDICTED BY IDOCK:   -7.08 KCAL/MOL
REMARK 923 INTER-LIGAND FREE ENERGY PREDICTED BY IDOCK:   -6.57 KCAL/MOL
REMARK 924 INTRA-LIGAND FREE ENERGY PREDICTED BY IDOCK:   -0.51 KCAL/MOL
REMARK 927      BINDING AFFINITY PREDICTED BY RF-SCORE:    0.00 PKD
ROOT
HETATM    1  C   UNL     1     -11.873  13.056  64.011  1.00  0.00    -0.445 C  
HETATM    2  N   UNL     1     -11.071  12.081  64.758  1.00  0.00    -0.308 NA 
HETATM    3  C   UNL     1     -10.374  11.201  63.818  1.00  0.00    -0.386 C  
ENDROOT
BRANCH   2   4
HETATM    4  C   UNL     1     -10.132  12.799  65.646  1.00  0.00    -0.270 C  
BRANCH   4   5
HETATM    5  C   UNL     1      -9.719  12.032  66.916  1.00  0.00    -0.213 C  
BRANCH   5   6
HETATM    6  C   UNL     1     -10.712  12.217  68.027  1.00  0.00    -0.242 A  
HETATM    7  C   UNL     1     -11.551  13.303  68.197  1.00  0.00    -0.338 A  
HETATM    8  N   UNL     1     -12.263  13.121  69.349  1.00  0.00    -0.206 NA 
HETATM    9  C   UNL     1     -11.925  11.922  69.932  1.00  0.00    -0.325 A  
HETATM   10  H   UNL     1     -12.947  13.779  69.723  1.00  0.00     0.000 HD 
HETATM   11  C   UNL     1     -10.964  11.324  69.121  1.00  0.00    -0.292 A  
HETATM   12  C   UNL     1     -10.449  10.065  69.508  1.00  0.00    -0.260 A  
HETATM   13  C   UNL     1     -10.893   9.445  70.693  1.00  0.00    -0.346 A  
HETATM   14  C   UNL     1     -11.872  10.085  71.468  1.00  0.00    -0.406 A  
HETATM   15  C   UNL     1     -12.395  11.332  71.110  1.00  0.00    -0.429 A  
BRANCH  13  16
HETATM   16  C   UNL     1     -10.327   8.098  71.094  1.00  0.00    -0.198 C  
BRANCH  16  17
HETATM   17  S   UNL     1     -11.401   6.781  70.474  1.00  0.00    -0.365 S  
HETATM   18  O   UNL     1     -11.252   6.678  69.036  1.00  0.00    -0.269 OA 
HETATM   19  O   UNL     1     -12.707   6.879  71.088  1.00  0.00    -0.369 OA 
BRANCH  17  20
HETATM   20  N   UNL     1     -10.692   5.367  71.113  1.00  0.00    -0.208 N  
HETATM   21  C   UNL     1      -9.804   4.670  70.142  1.00  0.00    -0.236 C  
HETATM   22  C   UNL     1      -8.967   3.742  71.000  1.00  0.00    -0.158 C  
HETATM   23  C   UNL     1      -8.740   4.539  72.269  1.00  0.00    -0.126 C  
HETATM   24  C   UNL     1      -9.955   5.456  72.401  1.00  0.00    -0.171 C  
ENDBRANCH  17  20
ENDBRANCH  16  17
ENDBRANCH  13  16
ENDBRANCH   5   6
ENDBRANCH   4   5
ENDBRANCH   2   4
TORSDOF 6
ENDMDL
MODEL      102
REMARK 921   NORMALIZED FREE ENERGY PREDICTED BY IDOCK:   -4.80 KCAL/MOL
REMARK 922        TOTAL FREE ENERGY PREDICTED BY IDOCK:   -7.07 KCAL/MOL
REMARK 923 INTER-LIGAND FREE ENERGY PREDICTED BY IDOCK:   -6.98 KCAL/MOL
REMARK 924 INTRA-LIGAND FREE ENERGY PREDICTED BY IDOCK:   -0.09 KCAL/MOL
REMARK 927      BINDING AFFINITY PREDICTED BY RF-SCORE:    0.00 PKD
ROOT
HETATM    1  C   UNL     1     -11.768  15.328  69.356  1.00  0.00    -0.341 C  
HETATM    2  N   UNL     1     -11.611  15.823  67.984  1.00  0.00    -0.277 NA 
HETATM    3  C   UNL     1     -10.668  16.943  67.975  1.00  0.00    -0.364 C  
ENDROOT
BRANCH   2   4
HETATM    4  C   UNL     1     -11.165  14.715  67.113  1.00  0.00    -0.344 C  
BRANCH   4   5
HETATM    5  C   UNL     1     -12.282  14.033  66.301  1.00  0.00    -0.493 C  
BRANCH   5   6
HETATM    6  C   UNL     1     -11.733  13.267  65.132  1.00  0.00    -0.358 A  
HETATM    7  C   UNL     1     -12.062  13.462  63.803  1.00  0.00    -0.456 A  
HETATM    8  N   UNL     1     -11.392  12.536  63.053  1.00  0.00    -0.706 NA 
HETATM    9  C   UNL     1     -10.609  11.747  63.862  1.00  0.00    -0.393 A  
HETATM   10  H   UNL     1     -11.463  12.444  62.040  1.00  0.00     0.000 HD 
HETATM   11  C   UNL     1     -10.790  12.187  65.171  1.00  0.00    -0.343 A  
HETATM   12  C   UNL     1     -10.083  11.529  66.203  1.00  0.00    -0.266 A  
HETATM   13  C   UNL     1      -9.229  10.447  65.908  1.00  0.00    -0.205 A  
HETATM   14  C   UNL     1      -9.074  10.050  64.572  1.00  0.00    -0.285 A  
HETATM   15  C   UNL     1      -9.765  10.682  63.532  1.00  0.00    -0.389 A  
BRANCH  13  16
HETATM   16  C   UNL     1      -8.483   9.751  67.028  1.00  0.00    -0.117 C  
BRANCH  16  17
HETATM   17  S   UNL     1      -9.668   9.058  68.205  1.00  0.00    -0.157 S  
HETATM   18  O   UNL     1     -11.001   9.524  67.875  1.00  0.00    -0.229 OA 
HETATM   19  O   UNL     1      -9.148   9.163  69.550  1.00  0.00    -0.144 OA 
BRANCH  17  20
HETATM   20  N   UNL     1      -9.658   7.393  67.833  1.00  0.00    -0.139 N  
HETATM   21  C   UNL     1     -10.968   6.901  67.324  1.00  0.00    -0.336 C  
HETATM   22  C   UNL     1     -10.640   5.577  66.663  1.00  0.00    -0.365 C  
HETATM   23  C   UNL     1      -9.278   5.817  66.042  1.00  0.00    -0.155 C  
HETATM   24  C   UNL     1      -8.606   6.870  66.922  1.00  0.00    -0.116 C  
ENDBRANCH  17  20
ENDBRANCH  16  17
ENDBRANCH  13  16
ENDBRANCH   5   6
ENDBRANCH   4   5
ENDBRANCH   2   4
TORSDOF 6
ENDMDL
MODEL      103
REMARK 921   NORMALIZED FREE ENERGY PREDICTED BY IDOCK:   -4.77 KCAL/MOL
REMARK 922        TOTAL FREE ENERGY PREDICTED BY IDOCK:   -7.03 KCAL/MOL
REMARK 923 INTER-LIGAND FREE ENERGY PREDICTED BY IDOCK:   -6.23 KCAL/MOL
REMARK 924 INTRA-LIGAND FREE ENERGY PREDICTED BY IDOCK:   -0.80 KCAL/MOL
REMARK 927      BINDING AFFINITY PREDICTED BY RF-SCORE:    0.00 PKD
ROOT
HETATM    1  C   UNL     1      -7.676   6.133  72.212  1.00  0.00    -0.100 C  
HETATM    2  N   UNL     1      -8.635   6.919  71.428  1.00  0.00    -0.120 NA 
HETATM    3  C   UNL     1      -9.006   6.173  70.224  1.00  0.00    -0.153 C  
ENDROOT
BRANCH   2   4
HETATM    4  C   UNL     1      -9.809   7.236  72.268  1.00  0.00    -0.154 C  
BRANCH   4   5
HETATM    5  C   UNL     1     -11.167   7.173  71.541  1.00  0.00    -0.273 C  
BRANCH   5   6
HETATM    6  C   UNL     1     -11.955   8.437  71.723  1.00  0.00    -0.380 A  
HETATM    7  C   UNL     1     -13.038   8.608  72.567  1.00  0.00    -0.289 A  
HETATM    8  N   UNL     1     -13.510   9.881  72.409  1.00  0.00    -0.625 NA 
HETATM    9  C   UNL     1     -12.744  10.561  71.491  1.00  0.00    -0.452 A  
HETATM   10  H   UNL     1     -14.315  10.271  72.901  1.00  0.00     0.000 HD 
HETATM   11  C   UNL     1     -11.753   9.688  71.051  1.00  0.00    -0.433 A  
HETATM   12  C   UNL     1     -10.825  10.156  70.092  1.00  0.00    -0.368 A  
HETATM   13  C   UNL     1     -10.916  11.470  69.590  1.00  0.00    -0.129 A  
HETATM   14  C   UNL     1     -11.928  12.312  70.075  1.00  0.00    -0.379 A  
HETATM   15  C   UNL     1     -12.861  11.873  71.020  1.00  0.00    -0.291 A  
BRANCH  13  16
HETATM   16  C   UNL     1      -9.916  11.952  68.560  1.00  0.00    -0.192 C  
BRANCH  16  17
HETATM   17  S   UNL     1     -10.604  11.737  66.901  1.00  0.00    -0.246 S  
HETATM   18  O   UNL     1     -10.039  12.735  66.015  1.00  0.00    -0.260 OA 
HETATM   19  O   UNL     1     -12.033  11.528  66.983  1.00  0.00    -0.556 OA 
BRANCH  17  20
HETATM   20  N   UNL     1      -9.946  10.246  66.397  1.00  0.00    -0.219 N  
HETATM   21  C   UNL     1      -8.488  10.127  66.678  1.00  0.00    -0.126 C  
HETATM   22  C   UNL     1      -8.207   8.642  66.572  1.00  0.00    -0.107 C  
HETATM   23  C   UNL     1      -9.457   8.000  67.140  1.00  0.00    -0.207 C  
HETATM   24  C   UNL     1     -10.589   8.988  66.858  1.00  0.00    -0.173 C  
ENDBRANCH  17  20
ENDBRANCH  16  17
ENDBRANCH  13  16
ENDBRANCH   5   6
ENDBRANCH   4   5
ENDBRANCH   2   4
TORSDOF 6
ENDMDL
MODEL      104
REMARK 921   NORMALIZED FREE ENERGY PREDICTED BY IDOCK:   -4.76 KCAL/MOL
REMARK 922        TOTAL FREE ENERGY PREDICTED BY IDOCK:   -7.02 KCAL/MOL
REMARK 923 INTER-LIGAND FREE ENERGY PREDICTED BY IDOCK:   -6.23 KCAL/MOL
REMARK 924 INTRA-LIGAND FREE ENERGY PREDICTED BY IDOCK:   -0.79 KCAL/MOL
REMARK 927      BINDING AFFINITY PREDICTED BY RF-SCORE:    0.00 PKD
ROOT
HETATM    1  C   UNL     1     -11.088  16.015  64.807  1.00  0.00    -0.365 C  
HETATM    2  N   UNL     1      -9.997  15.521  65.656  1.00  0.00    -0.351 NA 
HETATM    3  C   UNL     1      -9.754  16.475  66.740  1.00  0.00    -0.258 C  
ENDROOT
BRANCH   2   4
HETATM    4  C   UNL     1     -10.344  14.178  66.165  1.00  0.00    -0.300 C  
BRANCH   4   5
HETATM    5  C   UNL     1     -11.789  14.030  66.681  1.00  0.00    -0.443 C  
BRANCH   5   6
HETATM    6  C   UNL     1     -11.835  13.371  68.029  1.00  0.00    -0.392 A  
HETATM    7  C   UNL     1     -12.132  13.990  69.229  1.00  0.00    -0.338 A  
HETATM    8  N   UNL     1     -12.019  13.066  70.230  1.00  0.00    -0.490 NA 
HETATM    9  C   UNL     1     -11.674  11.842  69.709  1.00  0.00    -0.335 A  
HETATM   10  H   UNL     1     -12.170  13.258  71.221  1.00  0.00     0.000 HD 
HETATM   11  C   UNL     1     -11.562  11.995  68.329  1.00  0.00    -0.394 A  
HETATM   12  C   UNL     1     -11.214  10.864  67.556  1.00  0.00    -0.364 A  
HETATM   13  C   UNL     1     -10.974   9.621  68.174  1.00  0.00    -0.185 A  
HETATM   14  C   UNL     1     -11.110   9.518  69.566  1.00  0.00    -0.168 A  
HETATM   15  C   UNL     1     -11.450  10.622  70.356  1.00  0.00    -0.422 A  
BRANCH  13  16
HETATM   16  C   UNL     1     -10.596   8.421  67.329  1.00  0.00    -0.257 C  
BRANCH  16  17
HETATM   17  S   UNL     1      -8.820   8.112  67.476  1.00  0.00    -0.135 S  
HETATM   18  O   UNL     1      -8.183   9.261  68.090  1.00  0.00    -0.117 OA 
HETATM   19  O   UNL     1      -8.315   7.542  66.247  1.00  0.00    -0.120 OA 
BRANCH  17  20
HETATM   20  N   UNL     1      -8.736   6.864  68.636  1.00  0.00    -0.123 N  
HETATM   21  C   UNL     1      -8.241   7.332  69.960  1.00  0.00    -0.132 C  
HETATM   22  C   UNL     1      -8.646   6.231  70.921  1.00  0.00    -0.135 C  
HETATM   23  C   UNL     1      -9.988   5.768  70.387  1.00  0.00    -0.257 C  
HETATM   24  C   UNL     1      -9.945   6.036  68.883  1.00  0.00    -0.154 C  
ENDBRANCH  17  20
ENDBRANCH  16  17
ENDBRANCH  13  16
ENDBRANCH   5   6
ENDBRANCH   4   5
ENDBRANCH   2   4
TORSDOF 6
ENDMDL
MODEL      105
REMARK 921   NORMALIZED FREE ENERGY PREDICTED BY IDOCK:   -4.75 KCAL/MOL
REMARK 922        TOTAL FREE ENERGY PREDICTED BY IDOCK:   -7.01 KCAL/MOL
REMARK 923 INTER-LIGAND FREE ENERGY PREDICTED BY IDOCK:   -6.28 KCAL/MOL
REMARK 924 INTRA-LIGAND FREE ENERGY PREDICTED BY IDOCK:   -0.72 KCAL/MOL
REMARK 927      BINDING AFFINITY PREDICTED BY RF-SCORE:    0.00 PKD
ROOT
HETATM    1  C   UNL     1      -7.797  10.547  66.296  1.00  0.00    -0.141 C  
HETATM    2  N   UNL     1      -7.772  10.606  64.830  1.00  0.00    -0.009 NA 
HETATM    3  C   UNL     1      -6.815   9.622  64.320  1.00  0.00    -0.112 C  
ENDROOT
BRANCH   2   4
HETATM    4  C   UNL     1      -9.135  10.376  64.309  1.00  0.00    -0.238 C  
BRANCH   4   5
HETATM    5  C   UNL     1     -10.275  10.722  65.287  1.00  0.00    -0.351 C  
BRANCH   5   6
HETATM    6  C   UNL     1     -11.173  11.793  64.740  1.00  0.00    -0.333 A  
HETATM    7  C   UNL     1     -12.319  11.592  63.992  1.00  0.00    -0.091 A  
HETATM    8  N   UNL     1     -12.824  12.814  63.642  1.00  0.00    -0.698 NA 
HETATM    9  C   UNL     1     -12.043  13.818  64.165  1.00  0.00    -0.433 A  
HETATM   10  H   UNL     1     -13.659  12.959  63.074  1.00  0.00     0.000 HD 
HETATM   11  C   UNL     1     -11.006  13.212  64.870  1.00  0.00    -0.337 A  
HETATM   12  C   UNL     1     -10.057  14.042  65.510  1.00  0.00    -0.343 A  
HETATM   13  C   UNL     1     -10.157  15.444  65.421  1.00  0.00    -0.394 A  
HETATM   14  C   UNL     1     -11.227  16.004  64.707  1.00  0.00    -0.348 A  
HETATM   15  C   UNL     1     -12.178  15.206  64.061  1.00  0.00    -0.070 A  
BRANCH  13  16
HETATM   16  C   UNL     1      -9.128  16.316  66.109  1.00  0.00    -0.341 C  
BRANCH  16  17
HETATM   17  S   UNL     1      -9.862  17.073  67.579  1.00  0.00    -0.265 S  
HETATM   18  O   UNL     1     -10.833  16.162  68.153  1.00  0.00    -0.303 OA 
HETATM   19  O   UNL     1     -10.197  18.454  67.309  1.00  0.00    -0.338 OA 
BRANCH  17  20
HETATM   20  N   UNL     1      -8.563  17.119  68.684  1.00  0.00    -0.264 N  
HETATM   21  C   UNL     1      -7.947  15.783  68.915  1.00  0.00    -0.197 C  
HETATM   22  C   UNL     1      -6.603  16.095  69.543  1.00  0.00    -0.200 C  
HETATM   23  C   UNL     1      -6.165  17.363  68.836  1.00  0.00    -0.198 C  
HETATM   24  C   UNL     1      -7.456  18.082  68.446  1.00  0.00    -0.278 C  
ENDBRANCH  17  20
ENDBRANCH  16  17
ENDBRANCH  13  16
ENDBRANCH   5   6
ENDBRANCH   4   5
ENDBRANCH   2   4
TORSDOF 6
ENDMDL
MODEL      106
REMARK 921   NORMALIZED FREE ENERGY PREDICTED BY IDOCK:   -4.74 KCAL/MOL
REMARK 922        TOTAL FREE ENERGY PREDICTED BY IDOCK:   -6.99 KCAL/MOL
REMARK 923 INTER-LIGAND FREE ENERGY PREDICTED BY IDOCK:   -6.29 KCAL/MOL
REMARK 924 INTRA-LIGAND FREE ENERGY PREDICTED BY IDOCK:   -0.70 KCAL/MOL
REMARK 927      BINDING AFFINITY PREDICTED BY RF-SCORE:    0.00 PKD
ROOT
HETATM    1  C   UNL     1     -10.104   8.516  71.910  1.00  0.00    -0.297 C  
HETATM    2  N   UNL     1     -11.078   7.444  71.670  1.00  0.00    -0.234 NA 
HETATM    3  C   UNL     1     -12.379   8.032  71.343  1.00  0.00    -0.306 C  
ENDROOT
BRANCH   2   4
HETATM    4  C   UNL     1     -10.580   6.565  70.592  1.00  0.00    -0.233 C  
BRANCH   4   5
HETATM    5  C   UNL     1     -11.517   6.429  69.376  1.00  0.00    -0.374 C  
BRANCH   5   6
HETATM    6  C   UNL     1     -10.785   6.639  68.082  1.00  0.00    -0.320 A  
HETATM    7  C   UNL     1     -10.497   5.666  67.142  1.00  0.00    -0.270 A  
HETATM    8  N   UNL     1      -9.777   6.242  66.133  1.00  0.00    -0.375 NA 
HETATM    9  C   UNL     1      -9.603   7.583  66.380  1.00  0.00    -0.125 A  
HETATM   10  H   UNL     1      -9.419   5.747  65.315  1.00  0.00     0.000 HD 
HETATM   11  C   UNL     1     -10.234   7.867  67.588  1.00  0.00    -0.289 A  
HETATM   12  C   UNL     1     -10.199   9.197  68.066  1.00  0.00    -0.258 A  
HETATM   13  C   UNL     1      -9.528  10.201  67.340  1.00  0.00    -0.175 A  
HETATM   14  C   UNL     1      -8.918   9.864  66.123  1.00  0.00    -0.177 A  
HETATM   15  C   UNL     1      -8.934   8.555  65.629  1.00  0.00    -0.209 A  
BRANCH  13  16
HETATM   16  C   UNL     1      -9.497  11.620  67.870  1.00  0.00    -0.181 C  
BRANCH  16  17
HETATM   17  S   UNL     1     -10.703  12.627  66.975  1.00  0.00    -0.249 S  
HETATM   18  O   UNL     1     -11.972  11.929  66.931  1.00  0.00    -0.614 OA 
HETATM   19  O   UNL     1     -10.101  13.168  65.776  1.00  0.00    -0.286 OA 
BRANCH  17  20
HETATM   20  N   UNL     1     -10.945  13.959  68.013  1.00  0.00    -0.245 N  
HETATM   21  C   UNL     1      -9.719  14.342  68.766  1.00  0.00    -0.190 C  
HETATM   22  C   UNL     1     -10.008  15.746  69.262  1.00  0.00    -0.262 C  
HETATM   23  C   UNL     1     -10.800  16.368  68.129  1.00  0.00    -0.346 C  
HETATM   24  C   UNL     1     -11.526  15.207  67.450  1.00  0.00    -0.277 C  
ENDBRANCH  17  20
ENDBRANCH  16  17
ENDBRANCH  13  16
ENDBRANCH   5   6
ENDBRANCH   4   5
ENDBRANCH   2   4
TORSDOF 6
ENDMDL
MODEL      107
REMARK 921   NORMALIZED FREE ENERGY PREDICTED BY IDOCK:   -4.71 KCAL/MOL
REMARK 922        TOTAL FREE ENERGY PREDICTED BY IDOCK:   -6.95 KCAL/MOL
REMARK 923 INTER-LIGAND FREE ENERGY PREDICTED BY IDOCK:   -6.30 KCAL/MOL
REMARK 924 INTRA-LIGAND FREE ENERGY PREDICTED BY IDOCK:   -0.65 KCAL/MOL
REMARK 927      BINDING AFFINITY PREDICTED BY RF-SCORE:    0.00 PKD
ROOT
HETATM    1  C   UNL     1     -12.327  14.336  66.084  1.00  0.00    -0.387 C  
HETATM    2  N   UNL     1     -12.341  12.878  65.915  1.00  0.00    -0.540 NA 
HETATM    3  C   UNL     1     -11.520  12.514  64.759  1.00  0.00    -0.323 C  
ENDROOT
BRANCH   2   4
HETATM    4  C   UNL     1     -11.863  12.238  67.158  1.00  0.00    -0.258 C  
BRANCH   4   5
HETATM    5  C   UNL     1     -10.844  11.099  66.956  1.00  0.00    -0.338 C  
BRANCH   5   6
HETATM    6  C   UNL     1      -9.612  11.299  67.791  1.00  0.00    -0.181 A  
HETATM    7  C   UNL     1      -9.084  10.393  68.693  1.00  0.00    -0.157 A  
HETATM    8  N   UNL     1      -7.994  10.964  69.287  1.00  0.00    -0.315 NA 
HETATM    9  C   UNL     1      -7.779  12.223  68.777  1.00  0.00    -0.016 A  
HETATM   10  H   UNL     1      -7.421  10.520  70.006  1.00  0.00     0.000 HD 
HETATM   11  C   UNL     1      -8.770  12.459  67.827  1.00  0.00    -0.176 A  
HETATM   12  C   UNL     1      -8.766  13.700  67.150  1.00  0.00    -0.224 A  
HETATM   13  C   UNL     1      -7.790  14.673  67.444  1.00  0.00    -0.225 A  
HETATM   14  C   UNL     1      -6.809  14.381  68.402  1.00  0.00    -0.106 A  
HETATM   15  C   UNL     1      -6.791  13.163  69.090  1.00  0.00    -0.062 A  
BRANCH  13  16
HETATM   16  C   UNL     1      -7.805  15.999  66.711  1.00  0.00    -0.253 C  
BRANCH  16  17
HETATM   17  S   UNL     1      -8.069  17.341  67.895  1.00  0.00    -0.215 S  
HETATM   18  O   UNL     1      -6.787  17.792  68.400  1.00  0.00    -0.205 OA 
HETATM   19  O   UNL     1      -9.152  17.004  68.791  1.00  0.00    -0.265 OA 
BRANCH  17  20
HETATM   20  N   UNL     1      -8.652  18.613  66.919  1.00  0.00    -0.273 N  
HETATM   21  C   UNL     1     -10.036  18.378  66.421  1.00  0.00    -0.386 C  
HETATM   22  C   UNL     1     -10.510  19.747  65.974  1.00  0.00    -0.609 C  
HETATM   23  C   UNL     1      -9.886  20.688  66.986  1.00  0.00    -0.449 C  
HETATM   24  C   UNL     1      -8.602  20.001  67.448  1.00  0.00    -0.341 C  
ENDBRANCH  17  20
ENDBRANCH  16  17
ENDBRANCH  13  16
ENDBRANCH   5   6
ENDBRANCH   4   5
ENDBRANCH   2   4
TORSDOF 6
ENDMDL
MODEL      108
REMARK 921   NORMALIZED FREE ENERGY PREDICTED BY IDOCK:   -4.70 KCAL/MOL
REMARK 922        TOTAL FREE ENERGY PREDICTED BY IDOCK:   -6.94 KCAL/MOL
REMARK 923 INTER-LIGAND FREE ENERGY PREDICTED BY IDOCK:   -6.92 KCAL/MOL
REMARK 924 INTRA-LIGAND FREE ENERGY PREDICTED BY IDOCK:   -0.02 KCAL/MOL
REMARK 927      BINDING AFFINITY PREDICTED BY RF-SCORE:    0.00 PKD
ROOT
HETATM    1  C   UNL     1     -10.526  17.251  66.466  1.00  0.00    -0.260 C  
HETATM    2  N   UNL     1     -10.509  15.936  67.118  1.00  0.00    -0.309 NA 
HETATM    3  C   UNL     1      -9.223  15.744  67.793  1.00  0.00    -0.197 C  
ENDROOT
BRANCH   2   4
HETATM    4  C   UNL     1     -11.647  15.841  68.055  1.00  0.00    -0.210 C  
BRANCH   4   5
HETATM    5  C   UNL     1     -11.308  16.148  69.527  1.00  0.00    -0.321 C  
BRANCH   5   6
HETATM    6  C   UNL     1     -11.934  15.154  70.462  1.00  0.00    -0.371 A  
HETATM    7  C   UNL     1     -12.525  15.441  71.679  1.00  0.00    -0.381 A  
HETATM    8  N   UNL     1     -12.927  14.266  72.250  1.00  0.00    -0.361 NA 
HETATM    9  C   UNL     1     -12.633  13.209  71.419  1.00  0.00    -0.256 A  
HETATM   10  H   UNL     1     -13.381  14.184  73.160  1.00  0.00     0.000 HD 
HETATM   11  C   UNL     1     -12.021  13.734  70.284  1.00  0.00    -0.397 A  
HETATM   12  C   UNL     1     -11.619  12.838  69.266  1.00  0.00    -0.372 A  
HETATM   13  C   UNL     1     -11.825  11.452  69.410  1.00  0.00    -0.419 A  
HETATM   14  C   UNL     1     -12.456  10.977  70.569  1.00  0.00    -0.432 A  
HETATM   15  C   UNL     1     -12.860  11.840  71.594  1.00  0.00    -0.433 A  
BRANCH  13  16
HETATM   16  C   UNL     1     -11.383  10.508  68.311  1.00  0.00    -0.264 C  
BRANCH  16  17
HETATM   17  S   UNL     1      -9.617  10.733  67.993  1.00  0.00    -0.167 S  
HETATM   18  O   UNL     1      -8.963   9.438  67.983  1.00  0.00    -0.128 OA 
HETATM   19  O   UNL     1      -9.107  11.825  68.792  1.00  0.00    -0.110 OA 
BRANCH  17  20
HETATM   20  N   UNL     1      -9.578  11.281  66.378  1.00  0.00    -0.193 N  
HETATM   21  C   UNL     1      -9.872  10.206  65.390  1.00  0.00    -0.307 C  
HETATM   22  C   UNL     1     -10.215  10.953  64.116  1.00  0.00    -0.424 C  
HETATM   23  C   UNL     1     -10.958  12.179  64.610  1.00  0.00    -0.359 C  
HETATM   24  C   UNL     1     -10.400  12.462  66.004  1.00  0.00    -0.251 C  
ENDBRANCH  17  20
ENDBRANCH  16  17
ENDBRANCH  13  16
ENDBRANCH   5   6
ENDBRANCH   4   5
ENDBRANCH   2   4
TORSDOF 6
ENDMDL
MODEL      109
REMARK 921   NORMALIZED FREE ENERGY PREDICTED BY IDOCK:   -4.70 KCAL/MOL
REMARK 922        TOTAL FREE ENERGY PREDICTED BY IDOCK:   -6.94 KCAL/MOL
REMARK 923 INTER-LIGAND FREE ENERGY PREDICTED BY IDOCK:   -6.51 KCAL/MOL
REMARK 924 INTRA-LIGAND FREE ENERGY PREDICTED BY IDOCK:   -0.43 KCAL/MOL
REMARK 927      BINDING AFFINITY PREDICTED BY RF-SCORE:    0.00 PKD
ROOT
HETATM    1  C   UNL     1     -10.325  19.163  68.071  1.00  0.00    -0.393 C  
HETATM    2  N   UNL     1      -9.753  19.263  66.723  1.00  0.00    -0.322 NA 
HETATM    3  C   UNL     1     -10.755  19.819  65.811  1.00  0.00    -0.370 C  
ENDROOT
BRANCH   2   4
HETATM    4  C   UNL     1      -8.529  20.089  66.773  1.00  0.00    -0.324 C  
BRANCH   4   5
HETATM    5  C   UNL     1      -7.306  19.488  66.052  1.00  0.00    -0.308 C  
BRANCH   5   6
HETATM    6  C   UNL     1      -6.729  18.326  66.809  1.00  0.00    -0.217 A  
HETATM    7  C   UNL     1      -5.556  18.334  67.541  1.00  0.00    -0.145 A  
HETATM    8  N   UNL     1      -5.349  17.076  68.035  1.00  0.00    -0.117 NA 
HETATM    9  C   UNL     1      -6.377  16.243  67.661  1.00  0.00    -0.157 A  
HETATM   10  H   UNL     1      -4.547  16.795  68.600  1.00  0.00     0.000 HD 
HETATM   11  C   UNL     1      -7.267  17.000  66.901  1.00  0.00    -0.244 A  
HETATM   12  C   UNL     1      -8.423  16.364  66.393  1.00  0.00    -0.364 A  
HETATM   13  C   UNL     1      -8.655  14.997  66.642  1.00  0.00    -0.246 A  
HETATM   14  C   UNL     1      -7.733  14.283  67.422  1.00  0.00    -0.194 A  
HETATM   15  C   UNL     1      -6.579  14.887  67.933  1.00  0.00    -0.173 A  
BRANCH  13  16
HETATM   16  C   UNL     1      -9.897  14.332  66.086  1.00  0.00    -0.316 C  
BRANCH  16  17
HETATM   17  S   UNL     1     -11.226  14.409  67.311  1.00  0.00    -0.337 S  
HETATM   18  O   UNL     1     -12.498  14.184  66.653  1.00  0.00    -0.426 OA 
HETATM   19  O   UNL     1     -11.024  15.542  68.187  1.00  0.00    -0.287 OA 
BRANCH  17  20
HETATM   20  N   UNL     1     -10.952  13.026  68.271  1.00  0.00    -0.248 N  
HETATM   21  C   UNL     1     -11.847  12.955  69.459  1.00  0.00    -0.320 C  
HETATM   22  C   UNL     1     -11.760  11.509  69.907  1.00  0.00    -0.420 C  
HETATM   23  C   UNL     1     -11.654  10.739  68.605  1.00  0.00    -0.342 C  
HETATM   24  C   UNL     1     -10.974  11.689  67.620  1.00  0.00    -0.239 C  
ENDBRANCH  17  20
ENDBRANCH  16  17
ENDBRANCH  13  16
ENDBRANCH   5   6
ENDBRANCH   4   5
ENDBRANCH   2   4
TORSDOF 6
ENDMDL
MODEL      110
REMARK 921   NORMALIZED FREE ENERGY PREDICTED BY IDOCK:   -4.68 KCAL/MOL
REMARK 922        TOTAL FREE ENERGY PREDICTED BY IDOCK:   -6.91 KCAL/MOL
REMARK 923 INTER-LIGAND FREE ENERGY PREDICTED BY IDOCK:   -6.37 KCAL/MOL
REMARK 924 INTRA-LIGAND FREE ENERGY PREDICTED BY IDOCK:   -0.54 KCAL/MOL
REMARK 927      BINDING AFFINITY PREDICTED BY RF-SCORE:    0.00 PKD
ROOT
HETATM    1  C   UNL     1      -9.847  19.939  66.834  1.00  0.00    -0.414 C  
HETATM    2  N   UNL     1      -9.394  18.807  66.017  1.00  0.00    -0.475 NA 
HETATM    3  C   UNL     1      -8.097  18.338  66.511  1.00  0.00    -0.269 C  
ENDROOT
BRANCH   2   4
HETATM    4  C   UNL     1     -10.418  17.741  66.049  1.00  0.00    -0.286 C  
BRANCH   4   5
HETATM    5  C   UNL     1      -9.949  16.404  66.654  1.00  0.00    -0.281 C  
BRANCH   5   6
HETATM    6  C   UNL     1     -10.599  16.133  67.980  1.00  0.00    -0.304 A  
HETATM    7  C   UNL     1     -10.838  17.063  68.975  1.00  0.00    -0.206 A  
HETATM    8  N   UNL     1     -11.397  16.418  70.042  1.00  0.00    -0.409 NA 
HETATM    9  C   UNL     1     -11.552  15.081  69.761  1.00  0.00    -0.304 A  
HETATM   10  H   UNL     1     -11.661  16.864  70.921  1.00  0.00     0.000 HD 
HETATM   11  C   UNL     1     -11.073  14.871  68.470  1.00  0.00    -0.275 A  
HETATM   12  C   UNL     1     -11.124  13.561  67.941  1.00  0.00    -0.288 A  
HETATM   13  C   UNL     1     -11.635  12.498  68.711  1.00  0.00    -0.366 A  
HETATM   14  C   UNL     1     -12.115  12.765  70.002  1.00  0.00    -0.355 A  
HETATM   15  C   UNL     1     -12.073  14.051  70.551  1.00  0.00    -0.424 A  
BRANCH  13  16
HETATM   16  C   UNL     1     -11.678  11.100  68.129  1.00  0.00    -0.232 C  
BRANCH  16  17
HETATM   17  S   UNL     1     -10.166  10.213  68.574  1.00  0.00    -0.184 S  
HETATM   18  O   UNL     1     -10.201   9.884  69.985  1.00  0.00    -0.244 OA 
HETATM   19  O   UNL     1      -9.018  10.866  67.983  1.00  0.00    -0.137 OA 
BRANCH  17  20
HETATM   20  N   UNL     1     -10.328   8.728  67.751  1.00  0.00    -0.228 N  
HETATM   21  C   UNL     1      -9.329   8.552  66.661  1.00  0.00    -0.189 C  
HETATM   22  C   UNL     1      -9.351   7.065  66.368  1.00  0.00    -0.182 C  
HETATM   23  C   UNL     1      -9.561   6.437  67.732  1.00  0.00    -0.123 C  
HETATM   24  C   UNL     1     -10.343   7.469  68.543  1.00  0.00    -0.199 C  
ENDBRANCH  17  20
ENDBRANCH  16  17
ENDBRANCH  13  16
ENDBRANCH   5   6
ENDBRANCH   4   5
ENDBRANCH   2   4
TORSDOF 6
ENDMDL
MODEL      111
REMARK 921   NORMALIZED FREE ENERGY PREDICTED BY IDOCK:   -4.67 KCAL/MOL
REMARK 922        TOTAL FREE ENERGY PREDICTED BY IDOCK:   -6.89 KCAL/MOL
REMARK 923 INTER-LIGAND FREE ENERGY PREDICTED BY IDOCK:   -6.38 KCAL/MOL
REMARK 924 INTRA-LIGAND FREE ENERGY PREDICTED BY IDOCK:   -0.52 KCAL/MOL
REMARK 927      BINDING AFFINITY PREDICTED BY RF-SCORE:    0.00 PKD
ROOT
HETATM    1  C   UNL     1      -8.921   6.583  70.571  1.00  0.00    -0.152 C  
HETATM    2  N   UNL     1      -9.020   8.044  70.671  1.00  0.00    -0.146 NA 
HETATM    3  C   UNL     1      -8.136   8.520  71.737  1.00  0.00    -0.141 C  
ENDROOT
BRANCH   2   4
HETATM    4  C   UNL     1      -8.687   8.647  69.364  1.00  0.00    -0.139 C  
BRANCH   4   5
HETATM    5  C   UNL     1      -8.674  10.188  69.340  1.00  0.00    -0.186 C  
BRANCH   5   6
HETATM    6  C   UNL     1      -9.919  10.747  68.715  1.00  0.00    -0.201 A  
HETATM    7  C   UNL     1     -11.124  10.083  68.566  1.00  0.00    -0.167 A  
HETATM    8  N   UNL     1     -11.991  10.909  67.907  1.00  0.00    -0.735 NA 
HETATM    9  C   UNL     1     -11.387  12.115  67.637  1.00  0.00    -0.314 A  
HETATM   10  H   UNL     1     -12.948  10.666  67.651  1.00  0.00     0.000 HD 
HETATM   11  C   UNL     1     -10.091  12.050  68.143  1.00  0.00    -0.200 A  
HETATM   12  C   UNL     1      -9.256  13.181  67.991  1.00  0.00    -0.211 A  
HETATM   13  C   UNL     1      -9.726  14.335  67.333  1.00  0.00    -0.235 A  
HETATM   14  C   UNL     1     -11.043  14.352  66.852  1.00  0.00    -0.325 A  
HETATM   15  C   UNL     1     -11.889  13.245  66.985  1.00  0.00    -0.442 A  
BRANCH  13  16
HETATM   16  C   UNL     1      -8.815  15.535  67.176  1.00  0.00    -0.212 C  
BRANCH  16  17
HETATM   17  S   UNL     1      -8.793  16.483  68.716  1.00  0.00    -0.251 S  
HETATM   18  O   UNL     1      -7.472  16.405  69.308  1.00  0.00    -0.236 OA 
HETATM   19  O   UNL     1      -9.980  16.197  69.489  1.00  0.00    -0.250 OA 
BRANCH  17  20
HETATM   20  N   UNL     1      -8.964  18.095  68.183  1.00  0.00    -0.283 N  
HETATM   21  C   UNL     1      -7.951  18.483  67.163  1.00  0.00    -0.242 C  
HETATM   22  C   UNL     1      -8.522  19.734  66.526  1.00  0.00    -0.380 C  
HETATM   23  C   UNL     1     -10.015  19.471  66.499  1.00  0.00    -0.518 C  
HETATM   24  C   UNL     1     -10.290  18.546  67.683  1.00  0.00    -0.410 C  
ENDBRANCH  17  20
ENDBRANCH  16  17
ENDBRANCH  13  16
ENDBRANCH   5   6
ENDBRANCH   4   5
ENDBRANCH   2   4
TORSDOF 6
ENDMDL
MODEL      112
REMARK 921   NORMALIZED FREE ENERGY PREDICTED BY IDOCK:   -4.67 KCAL/MOL
REMARK 922        TOTAL FREE ENERGY PREDICTED BY IDOCK:   -6.89 KCAL/MOL
REMARK 923 INTER-LIGAND FREE ENERGY PREDICTED BY IDOCK:   -6.66 KCAL/MOL
REMARK 924 INTRA-LIGAND FREE ENERGY PREDICTED BY IDOCK:   -0.23 KCAL/MOL
REMARK 927      BINDING AFFINITY PREDICTED BY RF-SCORE:    0.00 PKD
ROOT
HETATM    1  C   UNL     1     -12.910  13.598  66.098  1.00  0.00    -0.086 C  
HETATM    2  N   UNL     1     -12.843  13.592  64.632  1.00  0.00    -0.677 NA 
HETATM    3  C   UNL     1     -11.879  14.600  64.185  1.00  0.00    -0.241 C  
ENDROOT
BRANCH   2   4
HETATM    4  C   UNL     1     -12.484  12.236  64.166  1.00  0.00    -0.434 C  
BRANCH   4   5
HETATM    5  C   UNL     1     -10.996  12.037  63.821  1.00  0.00    -0.492 C  
BRANCH   5   6
HETATM    6  C   UNL     1     -10.229  11.456  64.973  1.00  0.00    -0.333 A  
HETATM    7  C   UNL     1     -10.097  10.111  65.268  1.00  0.00    -0.274 A  
HETATM    8  N   UNL     1      -9.370   9.992  66.420  1.00  0.00    -0.162 NA 
HETATM    9  C   UNL     1      -9.001  11.235  66.879  1.00  0.00    -0.162 A  
HETATM   10  H   UNL     1      -9.136   9.109  66.873  1.00  0.00     0.000 HD 
HETATM   11  C   UNL     1      -9.514  12.175  65.987  1.00  0.00    -0.215 A  
HETATM   12  C   UNL     1      -9.266  13.543  66.241  1.00  0.00    -0.070 A  
HETATM   13  C   UNL     1      -8.531  13.939  67.376  1.00  0.00    -0.208 A  
HETATM   14  C   UNL     1      -8.029  12.952  68.237  1.00  0.00    -0.151 A  
HETATM   15  C   UNL     1      -8.262  11.591  68.011  1.00  0.00    -0.143 A  
BRANCH  13  16
HETATM   16  C   UNL     1      -8.280  15.410  67.634  1.00  0.00    -0.157 C  
BRANCH  16  17
HETATM   17  S   UNL     1      -9.816  16.201  68.172  1.00  0.00    -0.231 S  
HETATM   18  O   UNL     1      -9.896  16.156  69.619  1.00  0.00    -0.241 OA 
HETATM   19  O   UNL     1     -10.915  15.757  67.345  1.00  0.00    -0.320 OA 
BRANCH  17  20
HETATM   20  N   UNL     1      -9.569  17.842  67.775  1.00  0.00    -0.267 N  
HETATM   21  C   UNL     1     -10.464  18.318  66.684  1.00  0.00    -0.360 C  
HETATM   22  C   UNL     1     -10.406  19.830  66.786  1.00  0.00    -0.604 C  
HETATM   23  C   UNL     1     -10.316  20.083  68.278  1.00  0.00    -0.494 C  
HETATM   24  C   UNL     1      -9.619  18.855  68.862  1.00  0.00    -0.342 C  
ENDBRANCH  17  20
ENDBRANCH  16  17
ENDBRANCH  13  16
ENDBRANCH   5   6
ENDBRANCH   4   5
ENDBRANCH   2   4
TORSDOF 6
ENDMDL
MODEL      113
REMARK 921   NORMALIZED FREE ENERGY PREDICTED BY IDOCK:   -4.66 KCAL/MOL
REMARK 922        TOTAL FREE ENERGY PREDICTED BY IDOCK:   -6.88 KCAL/MOL
REMARK 923 INTER-LIGAND FREE ENERGY PREDICTED BY IDOCK:   -6.37 KCAL/MOL
REMARK 924 INTRA-LIGAND FREE ENERGY PREDICTED BY IDOCK:   -0.51 KCAL/MOL
REMARK 927      BINDING AFFINITY PREDICTED BY RF-SCORE:    0.00 PKD
ROOT
HETATM    1  C   UNL     1     -11.258  15.811  68.000  1.00  0.00    -0.338 C  
HETATM    2  N   UNL     1     -11.946  14.786  67.207  1.00  0.00    -0.304 NA 
HETATM    3  C   UNL     1     -11.227  14.581  65.948  1.00  0.00    -0.331 C  
ENDROOT
BRANCH   2   4
HETATM    4  C   UNL     1     -12.045  13.542  67.998  1.00  0.00    -0.262 C  
BRANCH   4   5
HETATM    5  C   UNL     1     -11.315  13.571  69.355  1.00  0.00    -0.293 C  
BRANCH   5   6
HETATM    6  C   UNL     1     -12.104  12.877  70.427  1.00  0.00    -0.385 A  
HETATM    7  C   UNL     1     -12.948  13.484  71.340  1.00  0.00    -0.339 A  
HETATM    8  N   UNL     1     -13.437  12.523  72.179  1.00  0.00    -0.513 NA 
HETATM    9  C   UNL     1     -12.949  11.288  71.823  1.00  0.00    -0.414 A  
HETATM   10  H   UNL     1     -14.073  12.697  72.958  1.00  0.00     0.000 HD 
HETATM   11  C   UNL     1     -12.119  11.473  70.720  1.00  0.00    -0.410 A  
HETATM   12  C   UNL     1     -11.490  10.339  70.157  1.00  0.00    -0.383 A  
HETATM   13  C   UNL     1     -11.690   9.060  70.713  1.00  0.00    -0.286 A  
HETATM   14  C   UNL     1     -12.544   8.927  71.818  1.00  0.00    -0.420 A  
HETATM   15  C   UNL     1     -13.176  10.033  72.397  1.00  0.00    -0.263 A  
BRANCH  13  16
HETATM   16  C   UNL     1     -11.003   7.857  70.100  1.00  0.00    -0.233 C  
BRANCH  16  17
HETATM   17  S   UNL     1      -9.339   7.694  70.790  1.00  0.00    -0.161 S  
HETATM   18  O   UNL     1      -9.353   8.110  72.179  1.00  0.00    -0.163 OA 
HETATM   19  O   UNL     1      -8.365   8.219  69.859  1.00  0.00    -0.120 OA 
BRANCH  17  20
HETATM   20  N   UNL     1      -9.092   6.006  70.817  1.00  0.00    -0.152 N  
HETATM   21  C   UNL     1      -9.918   5.280  69.813  1.00  0.00    -0.236 C  
HETATM   22  C   UNL     1      -9.256   3.921  69.696  1.00  0.00    -0.221 C  
HETATM   23  C   UNL     1      -7.779   4.231  69.838  1.00  0.00    -0.053 C  
HETATM   24  C   UNL     1      -7.704   5.485  70.708  1.00  0.00    -0.091 C  
ENDBRANCH  17  20
ENDBRANCH  16  17
ENDBRANCH  13  16
ENDBRANCH   5   6
ENDBRANCH   4   5
ENDBRANCH   2   4
TORSDOF 6
ENDMDL
MODEL      114
REMARK 921   NORMALIZED FREE ENERGY PREDICTED BY IDOCK:   -4.66 KCAL/MOL
REMARK 922        TOTAL FREE ENERGY PREDICTED BY IDOCK:   -6.88 KCAL/MOL
REMARK 923 INTER-LIGAND FREE ENERGY PREDICTED BY IDOCK:   -6.68 KCAL/MOL
REMARK 924 INTRA-LIGAND FREE ENERGY PREDICTED BY IDOCK:   -0.20 KCAL/MOL
REMARK 927      BINDING AFFINITY PREDICTED BY RF-SCORE:    0.00 PKD
ROOT
HETATM    1  C   UNL     1      -7.477   9.486  67.684  1.00  0.00    -0.091 C  
HETATM    2  N   UNL     1      -7.027  10.534  66.761  1.00  0.00    -0.098 NA 
HETATM    3  C   UNL     1      -5.789  11.130  67.269  1.00  0.00    -0.063 C  
ENDROOT
BRANCH   2   4
HETATM    4  C   UNL     1      -6.850   9.955  65.413  1.00  0.00    -0.112 C  
BRANCH   4   5
HETATM    5  C   UNL     1      -8.037   9.113  64.904  1.00  0.00    -0.133 C  
BRANCH   5   6
HETATM    6  C   UNL     1      -9.050   9.956  64.185  1.00  0.00    -0.294 A  
HETATM    7  C   UNL     1      -9.205  10.052  62.814  1.00  0.00    -0.290 A  
HETATM    8  N   UNL     1     -10.196  10.957  62.555  1.00  0.00    -0.700 NA 
HETATM    9  C   UNL     1     -10.714  11.444  63.732  1.00  0.00    -0.403 A  
HETATM   10  H   UNL     1     -10.507  11.232  61.623  1.00  0.00     0.000 HD 
HETATM   11  C   UNL     1     -10.026  10.826  64.774  1.00  0.00    -0.382 A  
HETATM   12  C   UNL     1     -10.379  11.162  66.102  1.00  0.00    -0.302 A  
HETATM   13  C   UNL     1     -11.393  12.107  66.356  1.00  0.00    -0.411 A  
HETATM   14  C   UNL     1     -12.062  12.691  65.270  1.00  0.00    -0.519 A  
HETATM   15  C   UNL     1     -11.731  12.380  63.947  1.00  0.00    -0.529 A  
BRANCH  13  16
HETATM   16  C   UNL     1     -11.754  12.456  67.784  1.00  0.00    -0.350 C  
BRANCH  16  17
HETATM   17  S   UNL     1     -11.567  14.238  68.037  1.00  0.00    -0.350 S  
HETATM   18  O   UNL     1     -12.263  14.626  69.248  1.00  0.00    -0.288 OA 
HETATM   19  O   UNL     1     -11.781  14.938  66.790  1.00  0.00    -0.335 OA 
BRANCH  17  20
HETATM   20  N   UNL     1      -9.906  14.410  68.386  1.00  0.00    -0.228 N  
HETATM   21  C   UNL     1      -9.112  14.888  67.221  1.00  0.00    -0.201 C  
HETATM   22  C   UNL     1      -7.813  15.380  67.829  1.00  0.00    -0.158 C  
HETATM   23  C   UNL     1      -8.247  15.993  69.146  1.00  0.00    -0.241 C  
HETATM   24  C   UNL     1      -9.503  15.228  69.560  1.00  0.00    -0.201 C  
ENDBRANCH  17  20
ENDBRANCH  16  17
ENDBRANCH  13  16
ENDBRANCH   5   6
ENDBRANCH   4   5
ENDBRANCH   2   4
TORSDOF 6
ENDMDL
MODEL      115
REMARK 921   NORMALIZED FREE ENERGY PREDICTED BY IDOCK:   -4.65 KCAL/MOL
REMARK 922        TOTAL FREE ENERGY PREDICTED BY IDOCK:   -6.86 KCAL/MOL
REMARK 923 INTER-LIGAND FREE ENERGY PREDICTED BY IDOCK:   -6.13 KCAL/MOL
REMARK 924 INTRA-LIGAND FREE ENERGY PREDICTED BY IDOCK:   -0.74 KCAL/MOL
REMARK 927      BINDING AFFINITY PREDICTED BY RF-SCORE:    0.00 PKD
ROOT
HETATM    1  C   UNL     1     -12.707  13.791  65.806  1.00  0.00    -0.446 C  
HETATM    2  N   UNL     1     -12.632  14.232  64.408  1.00  0.00    -0.679 NA 
HETATM    3  C   UNL     1     -11.754  15.401  64.313  1.00  0.00    -0.206 C  
ENDROOT
BRANCH   2   4
HETATM    4  C   UNL     1     -12.157  13.113  63.568  1.00  0.00    -0.514 C  
BRANCH   4   5
HETATM    5  C   UNL     1     -12.018  11.763  64.298  1.00  0.00    -0.277 C  
BRANCH   5   6
HETATM    6  C   UNL     1     -10.600  11.269  64.291  1.00  0.00    -0.422 A  
HETATM    7  C   UNL     1      -9.655  11.517  63.312  1.00  0.00    -0.346 A  
HETATM    8  N   UNL     1      -8.507  10.854  63.644  1.00  0.00    -0.370 NA 
HETATM    9  C   UNL     1      -8.669  10.191  64.837  1.00  0.00    -0.181 A  
HETATM   10  H   UNL     1      -7.652  10.852  63.086  1.00  0.00     0.000 HD 
HETATM   11  C   UNL     1      -9.967  10.441  65.277  1.00  0.00    -0.376 A  
HETATM   12  C   UNL     1     -10.384   9.864  66.498  1.00  0.00    -0.259 A  
HETATM   13  C   UNL     1      -9.507   9.047  67.240  1.00  0.00    -0.189 A  
HETATM   14  C   UNL     1      -8.207   8.836  66.758  1.00  0.00    -0.108 A  
HETATM   15  C   UNL     1      -7.770   9.391  65.550  1.00  0.00    -0.099 A  
BRANCH  13  16
HETATM   16  C   UNL     1      -9.973   8.434  68.544  1.00  0.00    -0.187 C  
BRANCH  16  17
HETATM   17  S   UNL     1     -10.649   6.786  68.231  1.00  0.00    -0.237 S  
HETATM   18  O   UNL     1     -11.045   6.687  66.840  1.00  0.00    -0.400 OA 
HETATM   19  O   UNL     1     -11.551   6.411  69.297  1.00  0.00    -0.354 OA 
BRANCH  17  20
HETATM   20  N   UNL     1      -9.289   5.769  68.395  1.00  0.00    -0.119 N  
HETATM   21  C   UNL     1      -8.721   5.339  67.087  1.00  0.00    -0.107 C  
HETATM   22  C   UNL     1      -7.331   4.840  67.429  1.00  0.00    -0.074 C  
HETATM   23  C   UNL     1      -6.877   5.777  68.531  1.00  0.00    -0.063 C  
HETATM   24  C   UNL     1      -8.154   6.223  69.241  1.00  0.00    -0.110 C  
ENDBRANCH  17  20
ENDBRANCH  16  17
ENDBRANCH  13  16
ENDBRANCH   5   6
ENDBRANCH   4   5
ENDBRANCH   2   4
TORSDOF 6
ENDMDL
MODEL      116
REMARK 921   NORMALIZED FREE ENERGY PREDICTED BY IDOCK:   -4.64 KCAL/MOL
REMARK 922        TOTAL FREE ENERGY PREDICTED BY IDOCK:   -6.86 KCAL/MOL
REMARK 923 INTER-LIGAND FREE ENERGY PREDICTED BY IDOCK:   -6.31 KCAL/MOL
REMARK 924 INTRA-LIGAND FREE ENERGY PREDICTED BY IDOCK:   -0.55 KCAL/MOL
REMARK 927      BINDING AFFINITY PREDICTED BY RF-SCORE:    0.00 PKD
ROOT
HETATM    1  C   UNL     1     -12.907   8.783  72.098  1.00  0.00    -0.400 C  
HETATM    2  N   UNL     1     -11.472   8.552  71.897  1.00  0.00    -0.311 NA 
HETATM    3  C   UNL     1     -10.958   7.712  72.981  1.00  0.00    -0.400 C  
ENDROOT
BRANCH   2   4
HETATM    4  C   UNL     1     -11.257   7.937  70.571  1.00  0.00    -0.253 C  
BRANCH   4   5
HETATM    5  C   UNL     1      -9.861   8.170  69.961  1.00  0.00    -0.182 C  
BRANCH   5   6
HETATM    6  C   UNL     1      -9.917   8.276  68.465  1.00  0.00    -0.206 A  
HETATM    7  C   UNL     1      -9.717   7.243  67.567  1.00  0.00    -0.145 A  
HETATM    8  N   UNL     1      -9.799   7.752  66.301  1.00  0.00    -0.459 NA 
HETATM    9  C   UNL     1     -10.072   9.099  66.347  1.00  0.00    -0.274 A  
HETATM   10  H   UNL     1      -9.676   7.210  65.445  1.00  0.00     0.000 HD 
HETATM   11  C   UNL     1     -10.164   9.457  67.689  1.00  0.00    -0.281 A  
HETATM   12  C   UNL     1     -10.443  10.807  68.005  1.00  0.00    -0.225 A  
HETATM   13  C   UNL     1     -10.608  11.762  66.982  1.00  0.00    -0.267 A  
HETATM   14  C   UNL     1     -10.516  11.346  65.646  1.00  0.00    -0.316 A  
HETATM   15  C   UNL     1     -10.237  10.018  65.305  1.00  0.00    -0.196 A  
BRANCH  13  16
HETATM   16  C   UNL     1     -10.901  13.204  67.340  1.00  0.00    -0.255 C  
BRANCH  16  17
HETATM   17  S   UNL     1      -9.557  14.259  66.748  1.00  0.00    -0.290 S  
HETATM   18  O   UNL     1      -9.939  14.860  65.485  1.00  0.00    -0.341 OA 
HETATM   19  O   UNL     1      -8.290  13.579  66.903  1.00  0.00    -0.124 OA 
BRANCH  17  20
HETATM   20  N   UNL     1      -9.538  15.537  67.878  1.00  0.00    -0.206 N  
HETATM   21  C   UNL     1     -10.095  16.806  67.334  1.00  0.00    -0.276 C  
HETATM   22  C   UNL     1     -10.390  17.644  68.562  1.00  0.00    -0.370 C  
HETATM   23  C   UNL     1     -10.858  16.626  69.584  1.00  0.00    -0.282 C  
HETATM   24  C   UNL     1     -10.156  15.320  69.213  1.00  0.00    -0.252 C  
ENDBRANCH  17  20
ENDBRANCH  16  17
ENDBRANCH  13  16
ENDBRANCH   5   6
ENDBRANCH   4   5
ENDBRANCH   2   4
TORSDOF 6
ENDMDL
MODEL      117
REMARK 921   NORMALIZED FREE ENERGY PREDICTED BY IDOCK:   -4.64 KCAL/MOL
REMARK 922        TOTAL FREE ENERGY PREDICTED BY IDOCK:   -6.86 KCAL/MOL
REMARK 923 INTER-LIGAND FREE ENERGY PREDICTED BY IDOCK:   -6.35 KCAL/MOL
REMARK 924 INTRA-LIGAND FREE ENERGY PREDICTED BY IDOCK:   -0.51 KCAL/MOL
REMARK 927      BINDING AFFINITY PREDICTED BY RF-SCORE:    0.00 PKD
ROOT
HETATM    1  C   UNL     1     -12.759   7.010  71.588  1.00  0.00    -0.377 C  
HETATM    2  N   UNL     1     -11.647   7.506  72.407  1.00  0.00    -0.307 NA 
HETATM    3  C   UNL     1     -10.533   6.557  72.340  1.00  0.00    -0.205 C  
ENDROOT
BRANCH   2   4
HETATM    4  C   UNL     1     -11.257   8.852  71.938  1.00  0.00    -0.377 C  
BRANCH   4   5
HETATM    5  C   UNL     1     -11.084   8.986  70.412  1.00  0.00    -0.279 C  
BRANCH   5   6
HETATM    6  C   UNL     1      -9.783   9.645  70.055  1.00  0.00    -0.280 A  
HETATM    7  C   UNL     1      -8.595   9.535  70.755  1.00  0.00    -0.035 A  
HETATM    8  N   UNL     1      -7.660  10.321  70.142  1.00  0.00    -0.353 NA 
HETATM    9  C   UNL     1      -8.203  10.930  69.035  1.00  0.00    -0.124 A  
HETATM   10  H   UNL     1      -6.698  10.438  70.459  1.00  0.00     0.000 HD 
HETATM   11  C   UNL     1      -9.530  10.517  68.944  1.00  0.00    -0.199 A  
HETATM   12  C   UNL     1     -10.314  11.009  67.876  1.00  0.00    -0.213 A  
HETATM   13  C   UNL     1      -9.763  11.905  66.938  1.00  0.00    -0.212 A  
HETATM   14  C   UNL     1      -8.418  12.281  67.068  1.00  0.00    -0.181 A  
HETATM   15  C   UNL     1      -7.621  11.812  68.118  1.00  0.00    -0.117 A  
BRANCH  13  16
HETATM   16  C   UNL     1     -10.619  12.426  65.802  1.00  0.00    -0.256 C  
BRANCH  16  17
HETATM   17  S   UNL     1     -11.791  13.648  66.439  1.00  0.00    -0.422 S  
HETATM   18  O   UNL     1     -12.154  13.300  67.799  1.00  0.00    -0.331 OA 
HETATM   19  O   UNL     1     -12.799  13.931  65.442  1.00  0.00    -0.662 OA 
BRANCH  17  20
HETATM   20  N   UNL     1     -10.849  15.064  66.562  1.00  0.00    -0.316 N  
HETATM   21  C   UNL     1     -10.223  15.234  67.902  1.00  0.00    -0.235 C  
HETATM   22  C   UNL     1      -9.126  16.256  67.677  1.00  0.00    -0.194 C  
HETATM   23  C   UNL     1      -8.606  15.921  66.293  1.00  0.00    -0.348 C  
HETATM   24  C   UNL     1      -9.791  15.309  65.546  1.00  0.00    -0.326 C  
ENDBRANCH  17  20
ENDBRANCH  16  17
ENDBRANCH  13  16
ENDBRANCH   5   6
ENDBRANCH   4   5
ENDBRANCH   2   4
TORSDOF 6
ENDMDL
MODEL      118
REMARK 921   NORMALIZED FREE ENERGY PREDICTED BY IDOCK:   -4.64 KCAL/MOL
REMARK 922        TOTAL FREE ENERGY PREDICTED BY IDOCK:   -6.85 KCAL/MOL
REMARK 923 INTER-LIGAND FREE ENERGY PREDICTED BY IDOCK:   -6.17 KCAL/MOL
REMARK 924 INTRA-LIGAND FREE ENERGY PREDICTED BY IDOCK:   -0.68 KCAL/MOL
REMARK 927      BINDING AFFINITY PREDICTED BY RF-SCORE:    0.00 PKD
ROOT
HETATM    1  C   UNL     1     -10.507  15.095  66.639  1.00  0.00    -0.287 C  
HETATM    2  N   UNL     1     -11.771  14.397  66.900  1.00  0.00    -0.389 NA 
HETATM    3  C   UNL     1     -11.590  12.962  66.672  1.00  0.00    -0.372 C  
ENDROOT
BRANCH   2   4
HETATM    4  C   UNL     1     -12.214  14.688  68.280  1.00  0.00    -0.076 C  
BRANCH   4   5
HETATM    5  C   UNL     1     -11.324  14.094  69.389  1.00  0.00    -0.318 C  
BRANCH   5   6
HETATM    6  C   UNL     1     -12.112  13.234  70.334  1.00  0.00    -0.401 A  
HETATM    7  C   UNL     1     -13.034  13.679  71.264  1.00  0.00    -0.322 A  
HETATM    8  N   UNL     1     -13.495  12.598  71.964  1.00  0.00    -0.484 NA 
HETATM    9  C   UNL     1     -12.909  11.445  71.497  1.00  0.00    -0.403 A  
HETATM   10  H   UNL     1     -14.175  12.642  72.723  1.00  0.00     0.000 HD 
HETATM   11  C   UNL     1     -12.046  11.807  70.466  1.00  0.00    -0.439 A  
HETATM   12  C   UNL     1     -11.317  10.787  69.813  1.00  0.00    -0.372 A  
HETATM   13  C   UNL     1     -11.455   9.442  70.211  1.00  0.00    -0.223 A  
HETATM   14  C   UNL     1     -12.347   9.130  71.248  1.00  0.00    -0.382 A  
HETATM   15  C   UNL     1     -13.077  10.120  71.913  1.00  0.00    -0.571 A  
BRANCH  13  16
HETATM   16  C   UNL     1     -10.662   8.363  69.503  1.00  0.00    -0.175 C  
BRANCH  16  17
HETATM   17  S   UNL     1      -9.026   8.219  70.260  1.00  0.00    -0.144 S  
HETATM   18  O   UNL     1      -8.663   6.819  70.353  1.00  0.00    -0.148 OA 
HETATM   19  O   UNL     1      -8.934   9.096  71.406  1.00  0.00    -0.283 OA 
BRANCH  17  20
HETATM   20  N   UNL     1      -7.990   8.887  69.081  1.00  0.00    -0.103 N  
HETATM   21  C   UNL     1      -7.850  10.365  69.196  1.00  0.00    -0.134 C  
HETATM   22  C   UNL     1      -6.608  10.687  68.390  1.00  0.00    -0.055 C  
HETATM   23  C   UNL     1      -5.694   9.507  68.655  1.00  0.00    -0.040 C  
HETATM   24  C   UNL     1      -6.622   8.324  68.930  1.00  0.00    -0.053 C  
ENDBRANCH  17  20
ENDBRANCH  16  17
ENDBRANCH  13  16
ENDBRANCH   5   6
ENDBRANCH   4   5
ENDBRANCH   2   4
TORSDOF 6
ENDMDL
MODEL      119
REMARK 921   NORMALIZED FREE ENERGY PREDICTED BY IDOCK:   -4.63 KCAL/MOL
REMARK 922        TOTAL FREE ENERGY PREDICTED BY IDOCK:   -6.84 KCAL/MOL
REMARK 923 INTER-LIGAND FREE ENERGY PREDICTED BY IDOCK:   -6.71 KCAL/MOL
REMARK 924 INTRA-LIGAND FREE ENERGY PREDICTED BY IDOCK:   -0.13 KCAL/MOL
REMARK 927      BINDING AFFINITY PREDICTED BY RF-SCORE:    0.00 PKD
ROOT
HETATM    1  C   UNL     1      -8.656   5.110  69.294  1.00  0.00    -0.096 C  
HETATM    2  N   UNL     1      -8.807   5.125  70.753  1.00  0.00    -0.131 NA 
HETATM    3  C   UNL     1      -7.970   6.186  71.318  1.00  0.00    -0.113 C  
ENDROOT
BRANCH   2   4
HETATM    4  C   UNL     1     -10.234   5.303  71.095  1.00  0.00    -0.224 C  
BRANCH   4   5
HETATM    5  C   UNL     1     -11.028   6.205  70.131  1.00  0.00    -0.426 C  
BRANCH   5   6
HETATM    6  C   UNL     1     -11.848   7.224  70.870  1.00  0.00    -0.351 A  
HETATM    7  C   UNL     1     -12.808   6.956  71.829  1.00  0.00    -0.304 A  
HETATM    8  N   UNL     1     -13.363   8.142  72.224  1.00  0.00    -0.532 NA 
HETATM    9  C   UNL     1     -12.771   9.189  71.558  1.00  0.00    -0.341 A  
HETATM   10  H   UNL     1     -14.110   8.235  72.913  1.00  0.00     0.000 HD 
HETATM   11  C   UNL     1     -11.807   8.648  70.710  1.00  0.00    -0.197 A  
HETATM   12  C   UNL     1     -11.048   9.532  69.909  1.00  0.00    -0.244 A  
HETATM   13  C   UNL     1     -11.277  10.922  69.962  1.00  0.00    -0.340 A  
HETATM   14  C   UNL     1     -12.253  11.415  70.841  1.00  0.00    -0.447 A  
HETATM   15  C   UNL     1     -13.020  10.563  71.642  1.00  0.00    -0.581 A  
BRANCH  13  16
HETATM   16  C   UNL     1     -10.458  11.852  69.092  1.00  0.00     0.002 C  
BRANCH  16  17
HETATM   17  S   UNL     1     -11.564  12.896  68.113  1.00  0.00    -0.355 S  
HETATM   18  O   UNL     1     -12.406  13.670  69.005  1.00  0.00    -0.280 OA 
HETATM   19  O   UNL     1     -12.129  12.131  67.024  1.00  0.00    -0.591 OA 
BRANCH  17  20
HETATM   20  N   UNL     1     -10.503  14.019  67.391  1.00  0.00    -0.262 N  
HETATM   21  C   UNL     1     -10.253  15.216  68.241  1.00  0.00    -0.223 C  
HETATM   22  C   UNL     1      -9.004  15.840  67.650  1.00  0.00    -0.190 C  
HETATM   23  C   UNL     1      -8.176  14.645  67.223  1.00  0.00    -0.235 C  
HETATM   24  C   UNL     1      -9.183  13.542  66.900  1.00  0.00    -0.249 C  
ENDBRANCH  17  20
ENDBRANCH  16  17
ENDBRANCH  13  16
ENDBRANCH   5   6
ENDBRANCH   4   5
ENDBRANCH   2   4
TORSDOF 6
ENDMDL
MODEL      120
REMARK 921   NORMALIZED FREE ENERGY PREDICTED BY IDOCK:   -4.62 KCAL/MOL
REMARK 922        TOTAL FREE ENERGY PREDICTED BY IDOCK:   -6.83 KCAL/MOL
REMARK 923 INTER-LIGAND FREE ENERGY PREDICTED BY IDOCK:   -6.59 KCAL/MOL
REMARK 924 INTRA-LIGAND FREE ENERGY PREDICTED BY IDOCK:   -0.24 KCAL/MOL
REMARK 927      BINDING AFFINITY PREDICTED BY RF-SCORE:    0.00 PKD
ROOT
HETATM    1  C   UNL     1      -9.522   7.868  72.451  1.00  0.00    -0.192 C  
HETATM    2  N   UNL     1     -10.678   7.290  71.757  1.00  0.00    -0.217 NA 
HETATM    3  C   UNL     1     -11.552   8.368  71.287  1.00  0.00    -0.283 C  
ENDROOT
BRANCH   2   4
HETATM    4  C   UNL     1     -10.206   6.436  70.647  1.00  0.00    -0.190 C  
BRANCH   4   5
HETATM    5  C   UNL     1     -11.176   6.319  69.455  1.00  0.00    -0.500 C  
BRANCH   5   6
HETATM    6  C   UNL     1     -10.514   6.687  68.159  1.00  0.00    -0.257 A  
HETATM    7  C   UNL     1     -10.196   5.818  67.131  1.00  0.00    -0.207 A  
HETATM    8  N   UNL     1      -9.560   6.527  66.150  1.00  0.00    -0.376 NA 
HETATM    9  C   UNL     1      -9.472   7.853  66.503  1.00  0.00    -0.214 A  
HETATM   10  H   UNL     1      -9.202   6.128  65.281  1.00  0.00     0.000 HD 
HETATM   11  C   UNL     1     -10.072   7.990  67.752  1.00  0.00    -0.250 A  
HETATM   12  C   UNL     1     -10.112   9.275  68.339  1.00  0.00    -0.215 A  
HETATM   13  C   UNL     1      -9.545  10.382  67.677  1.00  0.00    -0.168 A  
HETATM   14  C   UNL     1      -8.962  10.192  66.415  1.00  0.00    -0.163 A  
HETATM   15  C   UNL     1      -8.905   8.930  65.813  1.00  0.00    -0.223 A  
BRANCH  13  16
HETATM   16  C   UNL     1      -9.592  11.751  68.323  1.00  0.00    -0.199 C  
BRANCH  16  17
HETATM   17  S   UNL     1     -11.305  12.329  68.391  1.00  0.00    -0.319 S  
HETATM   18  O   UNL     1     -11.401  13.434  69.324  1.00  0.00    -0.261 OA 
HETATM   19  O   UNL     1     -12.205  11.199  68.469  1.00  0.00    -0.600 OA 
BRANCH  17  20
HETATM   20  N   UNL     1     -11.548  13.009  66.845  1.00  0.00    -0.346 N  
HETATM   21  C   UNL     1     -10.495  13.991  66.468  1.00  0.00    -0.281 C  
HETATM   22  C   UNL     1     -10.636  14.134  64.965  1.00  0.00    -0.436 C  
HETATM   23  C   UNL     1     -11.002  12.735  64.508  1.00  0.00    -0.370 C  
HETATM   24  C   UNL     1     -11.738  12.098  65.685  1.00  0.00    -0.323 C  
ENDBRANCH  17  20
ENDBRANCH  16  17
ENDBRANCH  13  16
ENDBRANCH   5   6
ENDBRANCH   4   5
ENDBRANCH   2   4
TORSDOF 6
ENDMDL
MODEL      121
REMARK 921   NORMALIZED FREE ENERGY PREDICTED BY IDOCK:   -4.62 KCAL/MOL
REMARK 922        TOTAL FREE ENERGY PREDICTED BY IDOCK:   -6.83 KCAL/MOL
REMARK 923 INTER-LIGAND FREE ENERGY PREDICTED BY IDOCK:   -6.31 KCAL/MOL
REMARK 924 INTRA-LIGAND FREE ENERGY PREDICTED BY IDOCK:   -0.52 KCAL/MOL
REMARK 927      BINDING AFFINITY PREDICTED BY RF-SCORE:    0.00 PKD
ROOT
HETATM    1  C   UNL     1      -8.133   8.953  62.743  1.00  0.00    -0.169 C  
HETATM    2  N   UNL     1      -8.517   8.893  64.158  1.00  0.00    -0.170 NA 
HETATM    3  C   UNL     1      -7.871   7.739  64.788  1.00  0.00    -0.129 C  
ENDROOT
BRANCH   2   4
HETATM    4  C   UNL     1      -8.150  10.163  64.819  1.00  0.00    -0.153 C  
BRANCH   4   5
HETATM    5  C   UNL     1      -8.066  10.098  66.356  1.00  0.00    -0.122 C  
BRANCH   5   6
HETATM    6  C   UNL     1      -9.393  10.376  66.999  1.00  0.00    -0.176 A  
HETATM    7  C   UNL     1     -10.442   9.483  67.124  1.00  0.00    -0.253 A  
HETATM    8  N   UNL     1     -11.489  10.128  67.718  1.00  0.00    -0.604 NA 
HETATM    9  C   UNL     1     -11.143  11.427  68.010  1.00  0.00    -0.257 A  
HETATM   10  H   UNL     1     -12.397   9.707  67.918  1.00  0.00     0.000 HD 
HETATM   11  C   UNL     1      -9.831  11.611  67.583  1.00  0.00    -0.195 A  
HETATM   12  C   UNL     1      -9.236  12.880  67.774  1.00  0.00    -0.200 A  
HETATM   13  C   UNL     1      -9.964  13.929  68.369  1.00  0.00    -0.233 A  
HETATM   14  C   UNL     1     -11.280  13.687  68.791  1.00  0.00    -0.314 A  
HETATM   15  C   UNL     1     -11.894  12.443  68.610  1.00  0.00    -0.348 A  
BRANCH  13  16
HETATM   16  C   UNL     1      -9.312  15.283  68.561  1.00  0.00    -0.200 C  
BRANCH  16  17
HETATM   17  S   UNL     1      -9.576  16.296  67.086  1.00  0.00    -0.238 S  
HETATM   18  O   UNL     1     -10.989  16.314  66.764  1.00  0.00    -0.194 OA 
HETATM   19  O   UNL     1      -8.581  15.980  66.085  1.00  0.00    -0.333 OA 
BRANCH  17  20
HETATM   20  N   UNL     1      -9.206  17.872  67.625  1.00  0.00    -0.256 N  
HETATM   21  C   UNL     1      -9.156  18.869  66.520  1.00  0.00    -0.327 C  
HETATM   22  C   UNL     1      -9.255  20.210  67.221  1.00  0.00    -0.504 C  
HETATM   23  C   UNL     1     -10.205  19.941  68.371  1.00  0.00    -0.557 C  
HETATM   24  C   UNL     1     -10.023  18.464  68.717  1.00  0.00    -0.375 C  
ENDBRANCH  17  20
ENDBRANCH  16  17
ENDBRANCH  13  16
ENDBRANCH   5   6
ENDBRANCH   4   5
ENDBRANCH   2   4
TORSDOF 6
ENDMDL
MODEL      122
REMARK 921   NORMALIZED FREE ENERGY PREDICTED BY IDOCK:   -4.61 KCAL/MOL
REMARK 922        TOTAL FREE ENERGY PREDICTED BY IDOCK:   -6.82 KCAL/MOL
REMARK 923 INTER-LIGAND FREE ENERGY PREDICTED BY IDOCK:   -6.43 KCAL/MOL
REMARK 924 INTRA-LIGAND FREE ENERGY PREDICTED BY IDOCK:   -0.39 KCAL/MOL
REMARK 927      BINDING AFFINITY PREDICTED BY RF-SCORE:    0.00 PKD
ROOT
HETATM    1  C   UNL     1     -10.520  14.580  66.093  1.00  0.00    -0.298 C  
HETATM    2  N   UNL     1     -11.909  14.167  66.328  1.00  0.00    -0.394 NA 
HETATM    3  C   UNL     1     -12.515  13.754  65.061  1.00  0.00    -0.416 C  
ENDROOT
BRANCH   2   4
HETATM    4  C   UNL     1     -11.932  13.083  67.333  1.00  0.00    -0.316 C  
BRANCH   4   5
HETATM    5  C   UNL     1     -10.550  12.655  67.864  1.00  0.00    -0.232 C  
BRANCH   5   6
HETATM    6  C   UNL     1     -10.199  11.257  67.444  1.00  0.00    -0.217 A  
HETATM    7  C   UNL     1     -10.139  10.788  66.145  1.00  0.00    -0.242 A  
HETATM    8  N   UNL     1      -9.837   9.455  66.182  1.00  0.00    -0.271 NA 
HETATM    9  C   UNL     1      -9.676   9.041  67.483  1.00  0.00    -0.161 A  
HETATM   10  H   UNL     1      -9.746   8.854  65.363  1.00  0.00     0.000 HD 
HETATM   11  C   UNL     1      -9.884  10.150  68.300  1.00  0.00    -0.162 A  
HETATM   12  C   UNL     1      -9.772   9.982  69.699  1.00  0.00    -0.255 A  
HETATM   13  C   UNL     1      -9.470   8.720  70.247  1.00  0.00    -0.194 A  
HETATM   14  C   UNL     1      -9.260   7.638  69.380  1.00  0.00    -0.149 A  
HETATM   15  C   UNL     1      -9.368   7.775  67.991  1.00  0.00    -0.146 A  
BRANCH  13  16
HETATM   16  C   UNL     1      -9.358   8.559  71.748  1.00  0.00    -0.253 C  
BRANCH  16  17
HETATM   17  S   UNL     1     -10.511   7.282  72.308  1.00  0.00    -0.225 S  
HETATM   18  O   UNL     1     -10.648   7.358  73.749  1.00  0.00    -0.349 OA 
HETATM   19  O   UNL     1     -10.221   6.030  71.646  1.00  0.00    -0.193 OA 
BRANCH  17  20
HETATM   20  N   UNL     1     -12.008   7.804  71.676  1.00  0.00    -0.286 N  
HETATM   21  C   UNL     1     -13.060   6.751  71.723  1.00  0.00    -0.183 C  
HETATM   22  C   UNL     1     -14.359   7.512  71.544  1.00  0.00    -0.603 C  
HETATM   23  C   UNL     1     -14.116   8.811  72.288  1.00  0.00    -0.511 C  
HETATM   24  C   UNL     1     -12.610   9.055  72.207  1.00  0.00    -0.375 C  
ENDBRANCH  17  20
ENDBRANCH  16  17
ENDBRANCH  13  16
ENDBRANCH   5   6
ENDBRANCH   4   5
ENDBRANCH   2   4
TORSDOF 6
ENDMDL
MODEL      123
REMARK 921   NORMALIZED FREE ENERGY PREDICTED BY IDOCK:   -4.60 KCAL/MOL
REMARK 922        TOTAL FREE ENERGY PREDICTED BY IDOCK:   -6.81 KCAL/MOL
REMARK 923 INTER-LIGAND FREE ENERGY PREDICTED BY IDOCK:   -6.29 KCAL/MOL
REMARK 924 INTRA-LIGAND FREE ENERGY PREDICTED BY IDOCK:   -0.51 KCAL/MOL
REMARK 927      BINDING AFFINITY PREDICTED BY RF-SCORE:    0.00 PKD
ROOT
HETATM    1  C   UNL     1      -9.022   9.440  68.368  1.00  0.00    -0.128 C  
HETATM    2  N   UNL     1      -8.943   9.904  66.978  1.00  0.00    -0.138 NA 
HETATM    3  C   UNL     1      -8.303   8.874  66.157  1.00  0.00    -0.122 C  
ENDROOT
BRANCH   2   4
HETATM    4  C   UNL     1     -10.301  10.233  66.496  1.00  0.00    -0.211 C  
BRANCH   4   5
HETATM    5  C   UNL     1     -11.035  11.320  67.305  1.00  0.00    -0.342 C  
BRANCH   5   6
HETATM    6  C   UNL     1     -11.288  12.550  66.483  1.00  0.00    -0.387 A  
HETATM    7  C   UNL     1     -12.367  12.762  65.643  1.00  0.00    -0.382 A  
HETATM    8  N   UNL     1     -12.209  13.977  65.038  1.00  0.00    -0.412 NA 
HETATM    9  C   UNL     1     -11.056  14.582  65.480  1.00  0.00    -0.339 A  
HETATM   10  H   UNL     1     -12.854  14.378  64.356  1.00  0.00     0.000 HD 
HETATM   11  C   UNL     1     -10.461  13.719  66.397  1.00  0.00    -0.284 A  
HETATM   12  C   UNL     1      -9.247  14.118  67.003  1.00  0.00    -0.249 A  
HETATM   13  C   UNL     1      -8.655  15.353  66.672  1.00  0.00    -0.318 A  
HETATM   14  C   UNL     1      -9.300  16.189  65.750  1.00  0.00    -0.221 A  
HETATM   15  C   UNL     1     -10.500  15.818  65.133  1.00  0.00    -0.394 A  
BRANCH  13  16
HETATM   16  C   UNL     1      -7.352  15.761  67.329  1.00  0.00    -0.222 C  
BRANCH  16  17
HETATM   17  S   UNL     1      -7.659  17.108  68.496  1.00  0.00    -0.254 S  
HETATM   18  O   UNL     1      -6.613  17.121  69.499  1.00  0.00    -0.236 OA 
HETATM   19  O   UNL     1      -9.056  17.131  68.868  1.00  0.00    -0.260 OA 
BRANCH  17  20
HETATM   20  N   UNL     1      -7.408  18.507  67.552  1.00  0.00    -0.218 N  
HETATM   21  C   UNL     1      -8.615  19.374  67.462  1.00  0.00    -0.300 C  
HETATM   22  C   UNL     1      -8.081  20.710  66.984  1.00  0.00    -0.278 C  
HETATM   23  C   UNL     1      -6.736  20.824  67.674  1.00  0.00    -0.394 C  
HETATM   24  C   UNL     1      -6.254  19.388  67.872  1.00  0.00    -0.207 C  
ENDBRANCH  17  20
ENDBRANCH  16  17
ENDBRANCH  13  16
ENDBRANCH   5   6
ENDBRANCH   4   5
ENDBRANCH   2   4
TORSDOF 6
ENDMDL
MODEL      124
REMARK 921   NORMALIZED FREE ENERGY PREDICTED BY IDOCK:   -4.59 KCAL/MOL
REMARK 922        TOTAL FREE ENERGY PREDICTED BY IDOCK:   -6.79 KCAL/MOL
REMARK 923 INTER-LIGAND FREE ENERGY PREDICTED BY IDOCK:   -5.98 KCAL/MOL
REMARK 924 INTRA-LIGAND FREE ENERGY PREDICTED BY IDOCK:   -0.82 KCAL/MOL
REMARK 927      BINDING AFFINITY PREDICTED BY RF-SCORE:    0.00 PKD
ROOT
HETATM    1  C   UNL     1     -11.156   6.279  68.701  1.00  0.00    -0.325 C  
HETATM    2  N   UNL     1     -10.978   6.012  70.133  1.00  0.00    -0.341 NA 
HETATM    3  C   UNL     1      -9.622   6.395  70.534  1.00  0.00    -0.165 C  
ENDROOT
BRANCH   2   4
HETATM    4  C   UNL     1     -12.010   6.744  70.897  1.00  0.00    -0.383 C  
BRANCH   4   5
HETATM    5  C   UNL     1     -11.470   7.827  71.852  1.00  0.00    -0.320 C  
BRANCH   5   6
HETATM    6  C   UNL     1     -11.928   9.200  71.453  1.00  0.00    -0.410 A  
HETATM    7  C   UNL     1     -13.000   9.889  71.990  1.00  0.00    -0.423 A  
HETATM    8  N   UNL     1     -13.122  11.079  71.328  1.00  0.00    -0.344 NA 
HETATM    9  C   UNL     1     -12.135  11.197  70.377  1.00  0.00    -0.385 A  
HETATM   10  H   UNL     1     -13.842  11.778  71.512  1.00  0.00     0.000 HD 
HETATM   11  C   UNL     1     -11.361  10.040  70.438  1.00  0.00    -0.392 A  
HETATM   12  C   UNL     1     -10.268   9.919  69.550  1.00  0.00    -0.243 A  
HETATM   13  C   UNL     1      -9.984  10.940  68.621  1.00  0.00    -0.196 A  
HETATM   14  C   UNL     1     -10.788  12.088  68.608  1.00  0.00    -0.273 A  
HETATM   15  C   UNL     1     -11.879  12.233  69.473  1.00  0.00    -0.380 A  
BRANCH  13  16
HETATM   16  C   UNL     1      -8.811  10.789  67.674  1.00  0.00    -0.132 C  
BRANCH  16  17
HETATM   17  S   UNL     1      -9.418  10.400  66.015  1.00  0.00    -0.197 S  
HETATM   18  O   UNL     1      -9.702  11.634  65.308  1.00  0.00    -0.235 OA 
HETATM   19  O   UNL     1     -10.391   9.333  66.084  1.00  0.00    -0.229 OA 
BRANCH  17  20
HETATM   20  N   UNL     1      -8.050   9.732  65.246  1.00  0.00    -0.121 N  
HETATM   21  C   UNL     1      -7.913  10.160  63.826  1.00  0.00    -0.153 C  
HETATM   22  C   UNL     1      -6.473   9.839  63.476  1.00  0.00    -0.117 C  
HETATM   23  C   UNL     1      -5.719  10.138  64.757  1.00  0.00    -0.117 C  
HETATM   24  C   UNL     1      -6.719   9.895  65.887  1.00  0.00    -0.097 C  
ENDBRANCH  17  20
ENDBRANCH  16  17
ENDBRANCH  13  16
ENDBRANCH   5   6
ENDBRANCH   4   5
ENDBRANCH   2   4
TORSDOF 6
ENDMDL
MODEL      125
REMARK 921   NORMALIZED FREE ENERGY PREDICTED BY IDOCK:   -4.59 KCAL/MOL
REMARK 922        TOTAL FREE ENERGY PREDICTED BY IDOCK:   -6.78 KCAL/MOL
REMARK 923 INTER-LIGAND FREE ENERGY PREDICTED BY IDOCK:   -7.17 KCAL/MOL
REMARK 924 INTRA-LIGAND FREE ENERGY PREDICTED BY IDOCK:    0.39 KCAL/MOL
REMARK 927      BINDING AFFINITY PREDICTED BY RF-SCORE:    0.00 PKD
ROOT
HETATM    1  C   UNL     1      -8.958   9.205  65.824  1.00  0.00    -0.193 C  
HETATM    2  N   UNL     1      -9.876   9.668  66.871  1.00  0.00    -0.188 NA 
HETATM    3  C   UNL     1      -9.106  10.071  68.050  1.00  0.00    -0.131 C  
ENDROOT
BRANCH   2   4
HETATM    4  C   UNL     1     -10.700  10.775  66.342  1.00  0.00    -0.163 C  
BRANCH   4   5
HETATM    5  C   UNL     1     -10.627  10.972  64.815  1.00  0.00    -0.350 C  
BRANCH   5   6
HETATM    6  C   UNL     1     -11.249  12.270  64.390  1.00  0.00    -0.389 A  
HETATM    7  C   UNL     1     -12.229  12.427  63.427  1.00  0.00    -0.523 A  
HETATM    8  N   UNL     1     -12.492  13.762  63.294  1.00  0.00    -1.092 NA 
HETATM    9  C   UNL     1     -11.718  14.488  64.169  1.00  0.00    -0.201 A  
HETATM   10  H   UNL     1     -13.165  14.162  62.640  1.00  0.00     0.000 HD 
HETATM   11  C   UNL     1     -10.936  13.581  64.881  1.00  0.00    -0.359 A  
HETATM   12  C   UNL     1     -10.045  14.086  65.856  1.00  0.00    -0.336 A  
HETATM   13  C   UNL     1      -9.947  15.472  66.086  1.00  0.00    -0.332 A  
HETATM   14  C   UNL     1     -10.765  16.342  65.350  1.00  0.00    -0.342 A  
HETATM   15  C   UNL     1     -11.652  15.870  64.377  1.00  0.00    -0.234 A  
BRANCH  13  16
HETATM   16  C   UNL     1      -8.983  15.995  67.132  1.00  0.00    -0.202 C  
BRANCH  16  17
HETATM   17  S   UNL     1      -9.875  17.041  68.308  1.00  0.00    -0.294 S  
HETATM   18  O   UNL     1     -11.098  17.517  67.693  1.00  0.00    -0.209 OA 
HETATM   19  O   UNL     1      -8.955  17.951  68.954  1.00  0.00    -0.233 OA 
BRANCH  17  20
HETATM   20  N   UNL     1     -10.364  15.940  69.516  1.00  0.00    -0.257 N  
HETATM   21  C   UNL     1     -11.125  16.587  70.620  1.00  0.00    -0.043 C  
HETATM   22  C   UNL     1     -11.818  15.436  71.322  1.00  0.00    -0.437 C  
HETATM   23  C   UNL     1     -12.178  14.494  70.190  1.00  0.00    -0.399 C  
HETATM   24  C   UNL     1     -11.120  14.725  69.112  1.00  0.00    -0.265 C  
ENDBRANCH  17  20
ENDBRANCH  16  17
ENDBRANCH  13  16
ENDBRANCH   5   6
ENDBRANCH   4   5
ENDBRANCH   2   4
TORSDOF 6
ENDMDL
MODEL      126
REMARK 921   NORMALIZED FREE ENERGY PREDICTED BY IDOCK:   -4.58 KCAL/MOL
REMARK 922        TOTAL FREE ENERGY PREDICTED BY IDOCK:   -6.78 KCAL/MOL
REMARK 923 INTER-LIGAND FREE ENERGY PREDICTED BY IDOCK:   -6.38 KCAL/MOL
REMARK 924 INTRA-LIGAND FREE ENERGY PREDICTED BY IDOCK:   -0.40 KCAL/MOL
REMARK 927      BINDING AFFINITY PREDICTED BY RF-SCORE:    0.00 PKD
ROOT
HETATM    1  C   UNL     1     -12.502  15.056  64.300  1.00  0.00    -0.107 C  
HETATM    2  N   UNL     1     -12.816  13.957  65.221  1.00  0.00    -0.749 NA 
HETATM    3  C   UNL     1     -12.505  12.679  64.577  1.00  0.00    -0.448 C  
ENDROOT
BRANCH   2   4
HETATM    4  C   UNL     1     -12.062  14.143  66.478  1.00  0.00    -0.454 C  
BRANCH   4   5
HETATM    5  C   UNL     1     -11.775  12.848  67.264  1.00  0.00    -0.431 C  
BRANCH   5   6
HETATM    6  C   UNL     1     -10.336  12.434  67.149  1.00  0.00    -0.232 A  
HETATM    7  C   UNL     1      -9.874  11.206  66.712  1.00  0.00    -0.200 A  
HETATM    8  N   UNL     1      -8.510  11.202  66.802  1.00  0.00    -0.147 NA 
HETATM    9  C   UNL     1      -8.062  12.416  67.269  1.00  0.00    -0.182 A  
HETATM   10  H   UNL     1      -7.911  10.413  66.557  1.00  0.00     0.000 HD 
HETATM   11  C   UNL     1      -9.181  13.216  67.485  1.00  0.00    -0.206 A  
HETATM   12  C   UNL     1      -8.982  14.529  67.970  1.00  0.00    -0.180 A  
HETATM   13  C   UNL     1      -7.683  15.003  68.238  1.00  0.00    -0.111 A  
HETATM   14  C   UNL     1      -6.589  14.161  67.993  1.00  0.00    -0.156 A  
HETATM   15  C   UNL     1      -6.758  12.856  67.517  1.00  0.00    -0.156 A  
BRANCH  13  16
HETATM   16  C   UNL     1      -7.491  16.412  68.762  1.00  0.00    -0.207 C  
BRANCH  16  17
HETATM   17  S   UNL     1      -7.496  17.578  67.379  1.00  0.00    -0.199 S  
HETATM   18  O   UNL     1      -7.328  16.849  66.137  1.00  0.00    -0.268 OA 
HETATM   19  O   UNL     1      -6.670  18.722  67.695  1.00  0.00    -0.202 OA 
BRANCH  17  20
HETATM   20  N   UNL     1      -9.101  18.154  67.362  1.00  0.00    -0.252 N  
HETATM   21  C   UNL     1      -9.268  19.439  68.097  1.00  0.00    -0.336 C  
HETATM   22  C   UNL     1     -10.596  19.981  67.606  1.00  0.00    -0.414 C  
HETATM   23  C   UNL     1     -10.628  19.577  66.145  1.00  0.00    -0.585 C  
HETATM   24  C   UNL     1      -9.794  18.301  66.054  1.00  0.00    -0.156 C  
ENDBRANCH  17  20
ENDBRANCH  16  17
ENDBRANCH  13  16
ENDBRANCH   5   6
ENDBRANCH   4   5
ENDBRANCH   2   4
TORSDOF 6
ENDMDL
MODEL      127
REMARK 921   NORMALIZED FREE ENERGY PREDICTED BY IDOCK:   -4.58 KCAL/MOL
REMARK 922        TOTAL FREE ENERGY PREDICTED BY IDOCK:   -6.78 KCAL/MOL
REMARK 923 INTER-LIGAND FREE ENERGY PREDICTED BY IDOCK:   -6.34 KCAL/MOL
REMARK 924 INTRA-LIGAND FREE ENERGY PREDICTED BY IDOCK:   -0.44 KCAL/MOL
REMARK 927      BINDING AFFINITY PREDICTED BY RF-SCORE:    0.00 PKD
ROOT
HETATM    1  C   UNL     1     -12.168  12.745  63.384  1.00  0.00    -0.504 C  
HETATM    2  N   UNL     1     -11.664  13.554  64.501  1.00  0.00    -0.380 NA 
HETATM    3  C   UNL     1     -12.764  13.854  65.419  1.00  0.00    -0.490 C  
ENDROOT
BRANCH   2   4
HETATM    4  C   UNL     1     -10.564  12.828  65.172  1.00  0.00    -0.302 C  
BRANCH   4   5
HETATM    5  C   UNL     1     -10.967  11.492  65.825  1.00  0.00    -0.305 C  
BRANCH   5   6
HETATM    6  C   UNL     1      -9.973  10.406  65.533  1.00  0.00    -0.348 A  
HETATM    7  C   UNL     1      -8.962  10.460  64.590  1.00  0.00    -0.209 A  
HETATM    8  N   UNL     1      -8.307   9.259  64.592  1.00  0.00    -0.151 NA 
HETATM    9  C   UNL     1      -8.854   8.422  65.536  1.00  0.00    -0.130 A  
HETATM   10  H   UNL     1      -7.526   9.020  63.982  1.00  0.00     0.000 HD 
HETATM   11  C   UNL     1      -9.893   9.115  66.153  1.00  0.00    -0.363 A  
HETATM   12  C   UNL     1     -10.621   8.462  67.174  1.00  0.00    -0.326 A  
HETATM   13  C   UNL     1     -10.306   7.139  67.543  1.00  0.00    -0.303 A  
HETATM   14  C   UNL     1      -9.243   6.490  66.897  1.00  0.00    -0.153 A  
HETATM   15  C   UNL     1      -8.509   7.111  65.881  1.00  0.00    -0.151 A  
BRANCH  13  16
HETATM   16  C   UNL     1     -11.100   6.454  68.635  1.00  0.00    -0.311 C  
BRANCH  16  17
HETATM   17  S   UNL     1     -10.336   6.789  70.240  1.00  0.00    -0.204 S  
HETATM   18  O   UNL     1     -10.947   7.966  70.826  1.00  0.00    -0.242 OA 
HETATM   19  O   UNL     1      -8.899   6.662  70.139  1.00  0.00    -0.139 OA 
BRANCH  17  20
HETATM   20  N   UNL     1     -10.851   5.476  71.200  1.00  0.00    -0.214 N  
HETATM   21  C   UNL     1      -9.796   4.444  71.390  1.00  0.00    -0.192 C  
HETATM   22  C   UNL     1     -10.278   3.630  72.575  1.00  0.00    -0.229 C  
HETATM   23  C   UNL     1     -10.934   4.661  73.472  1.00  0.00    -0.395 C  
HETATM   24  C   UNL     1     -11.443   5.756  72.535  1.00  0.00    -0.296 C  
ENDBRANCH  17  20
ENDBRANCH  16  17
ENDBRANCH  13  16
ENDBRANCH   5   6
ENDBRANCH   4   5
ENDBRANCH   2   4
TORSDOF 6
ENDMDL
MODEL      128
REMARK 921   NORMALIZED FREE ENERGY PREDICTED BY IDOCK:   -4.57 KCAL/MOL
REMARK 922        TOTAL FREE ENERGY PREDICTED BY IDOCK:   -6.76 KCAL/MOL
REMARK 923 INTER-LIGAND FREE ENERGY PREDICTED BY IDOCK:   -6.08 KCAL/MOL
REMARK 924 INTRA-LIGAND FREE ENERGY PREDICTED BY IDOCK:   -0.69 KCAL/MOL
REMARK 927      BINDING AFFINITY PREDICTED BY RF-SCORE:    0.00 PKD
ROOT
HETATM    1  C   UNL     1      -9.516  13.601  66.687  1.00  0.00    -0.277 C  
HETATM    2  N   UNL     1     -10.952  13.314  66.587  1.00  0.00    -0.281 NA 
HETATM    3  C   UNL     1     -11.317  13.144  65.179  1.00  0.00    -0.296 C  
ENDROOT
BRANCH   2   4
HETATM    4  C   UNL     1     -11.268  12.115  67.391  1.00  0.00    -0.302 C  
BRANCH   4   5
HETATM    5  C   UNL     1     -10.045  11.296  67.848  1.00  0.00    -0.195 C  
BRANCH   5   6
HETATM    6  C   UNL     1     -10.160   9.853  67.448  1.00  0.00    -0.254 A  
HETATM    7  C   UNL     1     -10.023   9.350  66.167  1.00  0.00    -0.281 A  
HETATM    8  N   UNL     1     -10.248   8.002  66.208  1.00  0.00    -0.450 NA 
HETATM    9  C   UNL     1     -10.509   7.603  67.498  1.00  0.00    -0.266 A  
HETATM   10  H   UNL     1     -10.225   7.382  65.398  1.00  0.00     0.000 HD 
HETATM   11  C   UNL     1     -10.449   8.738  68.303  1.00  0.00    -0.236 A  
HETATM   12  C   UNL     1     -10.684   8.589  69.689  1.00  0.00    -0.200 A  
HETATM   13  C   UNL     1     -10.982   7.324  70.232  1.00  0.00    -0.281 A  
HETATM   14  C   UNL     1     -11.020   6.211  69.379  1.00  0.00    -0.454 A  
HETATM   15  C   UNL     1     -10.796   6.331  68.003  1.00  0.00    -0.409 A  
BRANCH  13  16
HETATM   16  C   UNL     1     -11.235   7.185  71.719  1.00  0.00    -0.246 C  
BRANCH  16  17
HETATM   17  S   UNL     1      -9.664   6.928  72.579  1.00  0.00    -0.153 S  
HETATM   18  O   UNL     1      -9.645   7.724  73.791  1.00  0.00    -0.288 OA 
HETATM   19  O   UNL     1      -8.571   6.975  71.633  1.00  0.00    -0.116 OA 
BRANCH  17  20
HETATM   20  N   UNL     1      -9.763   5.305  73.095  1.00  0.00    -0.145 N  
HETATM   21  C   UNL     1     -11.133   4.912  73.524  1.00  0.00    -0.332 C  
HETATM   22  C   UNL     1     -11.107   3.396  73.516  1.00  0.00    -0.317 C  
HETATM   23  C   UNL     1     -10.225   3.061  72.330  1.00  0.00    -0.176 C  
HETATM   24  C   UNL     1      -9.258   4.237  72.192  1.00  0.00    -0.123 C  
ENDBRANCH  17  20
ENDBRANCH  16  17
ENDBRANCH  13  16
ENDBRANCH   5   6
ENDBRANCH   4   5
ENDBRANCH   2   4
TORSDOF 6
ENDMDL
MODEL      129
REMARK 921   NORMALIZED FREE ENERGY PREDICTED BY IDOCK:   -4.57 KCAL/MOL
REMARK 922        TOTAL FREE ENERGY PREDICTED BY IDOCK:   -6.76 KCAL/MOL
REMARK 923 INTER-LIGAND FREE ENERGY PREDICTED BY IDOCK:   -7.16 KCAL/MOL
REMARK 924 INTRA-LIGAND FREE ENERGY PREDICTED BY IDOCK:    0.40 KCAL/MOL
REMARK 927      BINDING AFFINITY PREDICTED BY RF-SCORE:    0.00 PKD
ROOT
HETATM    1  C   UNL     1     -12.938  12.874  71.417  1.00  0.00    -0.270 C  
HETATM    2  N   UNL     1     -12.840  14.167  70.730  1.00  0.00    -0.329 NA 
HETATM    3  C   UNL     1     -13.828  15.091  71.290  1.00  0.00    -0.450 C  
ENDROOT
BRANCH   2   4
HETATM    4  C   UNL     1     -11.461  14.684  70.858  1.00  0.00    -0.165 C  
BRANCH   4   5
HETATM    5  C   UNL     1     -11.273  16.152  70.427  1.00  0.00    -0.394 C  
BRANCH   5   6
HETATM    6  C   UNL     1     -10.439  16.264  69.183  1.00  0.00    -0.280 A  
HETATM    7  C   UNL     1      -9.255  16.967  69.057  1.00  0.00    -0.154 A  
HETATM    8  N   UNL     1      -8.831  16.869  67.761  1.00  0.00    -0.215 NA 
HETATM    9  C   UNL     1      -9.704  16.094  67.034  1.00  0.00    -0.230 A  
HETATM   10  H   UNL     1      -7.989  17.307  67.388  1.00  0.00     0.000 HD 
HETATM   11  C   UNL     1     -10.718  15.688  67.900  1.00  0.00    -0.294 A  
HETATM   12  C   UNL     1     -11.750  14.870  67.386  1.00  0.00    -0.311 A  
HETATM   13  C   UNL     1     -11.754  14.491  66.029  1.00  0.00    -0.347 A  
HETATM   14  C   UNL     1     -10.704  14.918  65.202  1.00  0.00    -0.429 A  
HETATM   15  C   UNL     1      -9.672  15.731  65.684  1.00  0.00    -0.332 A  
BRANCH  13  16
HETATM   16  C   UNL     1     -12.871  13.618  65.495  1.00  0.00    -0.392 C  
BRANCH  16  17
HETATM   17  S   UNL     1     -12.395  12.942  63.886  1.00  0.00    -0.378 S  
HETATM   18  O   UNL     1     -12.138  14.033  62.966  1.00  0.00    -0.204 OA 
HETATM   19  O   UNL     1     -13.273  11.850  63.530  1.00  0.00    -0.676 OA 
BRANCH  17  20
HETATM   20  N   UNL     1     -10.875  12.233  64.195  1.00  0.00    -0.332 N  
HETATM   21  C   UNL     1     -10.944  11.103  65.162  1.00  0.00    -0.086 C  
HETATM   22  C   UNL     1      -9.636  10.361  64.966  1.00  0.00    -0.339 C  
HETATM   23  C   UNL     1      -9.383  10.474  63.476  1.00  0.00    -0.326 C  
HETATM   24  C   UNL     1     -10.050  11.779  63.044  1.00  0.00    -0.227 C  
ENDBRANCH  17  20
ENDBRANCH  16  17
ENDBRANCH  13  16
ENDBRANCH   5   6
ENDBRANCH   4   5
ENDBRANCH   2   4
TORSDOF 6
ENDMDL
MODEL      130
REMARK 921   NORMALIZED FREE ENERGY PREDICTED BY IDOCK:   -4.56 KCAL/MOL
REMARK 922        TOTAL FREE ENERGY PREDICTED BY IDOCK:   -6.75 KCAL/MOL
REMARK 923 INTER-LIGAND FREE ENERGY PREDICTED BY IDOCK:   -6.44 KCAL/MOL
REMARK 924 INTRA-LIGAND FREE ENERGY PREDICTED BY IDOCK:   -0.31 KCAL/MOL
REMARK 927      BINDING AFFINITY PREDICTED BY RF-SCORE:    0.00 PKD
ROOT
HETATM    1  C   UNL     1     -11.858  14.729  64.392  1.00  0.00    -0.380 C  
HETATM    2  N   UNL     1     -12.589  13.463  64.524  1.00  0.00    -0.643 NA 
HETATM    3  C   UNL     1     -12.317  12.621  63.358  1.00  0.00    -0.456 C  
ENDROOT
BRANCH   2   4
HETATM    4  C   UNL     1     -12.198  12.803  65.788  1.00  0.00    -0.408 C  
BRANCH   4   5
HETATM    5  C   UNL     1     -11.631  13.746  66.868  1.00  0.00    -0.394 C  
BRANCH   5   6
HETATM    6  C   UNL     1     -11.782  13.169  68.245  1.00  0.00    -0.384 A  
HETATM    7  C   UNL     1     -12.196  13.853  69.374  1.00  0.00    -0.292 A  
HETATM    8  N   UNL     1     -12.154  12.994  70.437  1.00  0.00    -0.468 NA 
HETATM    9  C   UNL     1     -11.741  11.749  70.026  1.00  0.00    -0.305 A  
HETATM   10  H   UNL     1     -12.394  13.242  71.397  1.00  0.00     0.000 HD 
HETATM   11  C   UNL     1     -11.512  11.821  68.654  1.00  0.00    -0.346 A  
HETATM   12  C   UNL     1     -11.075  10.654  67.986  1.00  0.00    -0.361 A  
HETATM   13  C   UNL     1     -10.867   9.457  68.699  1.00  0.00    -0.149 A  
HETATM   14  C   UNL     1     -11.122   9.435  70.078  1.00  0.00    -0.248 A  
HETATM   15  C   UNL     1     -11.551  10.576  70.764  1.00  0.00    -0.432 A  
BRANCH  13  16
HETATM   16  C   UNL     1     -10.394   8.218  67.967  1.00  0.00    -0.213 C  
BRANCH  16  17
HETATM   17  S   UNL     1      -8.687   7.850  68.439  1.00  0.00    -0.130 S  
HETATM   18  O   UNL     1      -8.680   7.180  69.725  1.00  0.00    -0.140 OA 
HETATM   19  O   UNL     1      -7.846   8.998  68.186  1.00  0.00    -0.099 OA 
BRANCH  17  20
HETATM   20  N   UNL     1      -8.214   6.669  67.303  1.00  0.00    -0.120 N  
HETATM   21  C   UNL     1      -9.369   5.999  66.642  1.00  0.00    -0.144 C  
HETATM   22  C   UNL     1      -8.769   5.344  65.414  1.00  0.00    -0.154 C  
HETATM   23  C   UNL     1      -7.710   6.332  64.964  1.00  0.00    -0.101 C  
HETATM   24  C   UNL     1      -7.254   7.050  66.233  1.00  0.00    -0.075 C  
ENDBRANCH  17  20
ENDBRANCH  16  17
ENDBRANCH  13  16
ENDBRANCH   5   6
ENDBRANCH   4   5
ENDBRANCH   2   4
TORSDOF 6
ENDMDL
MODEL      131
REMARK 921   NORMALIZED FREE ENERGY PREDICTED BY IDOCK:   -4.55 KCAL/MOL
REMARK 922        TOTAL FREE ENERGY PREDICTED BY IDOCK:   -6.74 KCAL/MOL
REMARK 923 INTER-LIGAND FREE ENERGY PREDICTED BY IDOCK:   -6.50 KCAL/MOL
REMARK 924 INTRA-LIGAND FREE ENERGY PREDICTED BY IDOCK:   -0.23 KCAL/MOL
REMARK 927      BINDING AFFINITY PREDICTED BY RF-SCORE:    0.00 PKD
ROOT
HETATM    1  C   UNL     1      -9.434   7.754  70.640  1.00  0.00    -0.162 C  
HETATM    2  N   UNL     1     -10.022   6.827  69.667  1.00  0.00    -0.171 NA 
HETATM    3  C   UNL     1     -11.383   6.483  70.083  1.00  0.00    -0.402 C  
ENDROOT
BRANCH   2   4
HETATM    4  C   UNL     1      -9.992   7.444  68.324  1.00  0.00    -0.163 C  
BRANCH   4   5
HETATM    5  C   UNL     1     -10.517   8.892  68.260  1.00  0.00    -0.243 C  
BRANCH   5   6
HETATM    6  C   UNL     1     -10.271   9.515  66.916  1.00  0.00    -0.317 A  
HETATM    7  C   UNL     1      -9.615   8.923  65.852  1.00  0.00    -0.223 A  
HETATM    8  N   UNL     1      -9.551   9.828  64.830  1.00  0.00    -0.411 NA 
HETATM    9  C   UNL     1     -10.174  10.999  65.192  1.00  0.00    -0.291 A  
HETATM   10  H   UNL     1      -9.105   9.659  63.928  1.00  0.00     0.000 HD 
HETATM   11  C   UNL     1     -10.648  10.831  66.491  1.00  0.00    -0.279 A  
HETATM   12  C   UNL     1     -11.336  11.908  67.097  1.00  0.00    -0.393 A  
HETATM   13  C   UNL     1     -11.521  13.120  66.403  1.00  0.00    -0.374 A  
HETATM   14  C   UNL     1     -11.033  13.233  65.093  1.00  0.00    -0.314 A  
HETATM   15  C   UNL     1     -10.345  12.185  64.471  1.00  0.00    -0.335 A  
BRANCH  13  16
HETATM   16  C   UNL     1     -12.257  14.263  67.071  1.00  0.00    -0.303 C  
BRANCH  16  17
HETATM   17  S   UNL     1     -11.395  14.732  68.590  1.00  0.00    -0.302 S  
HETATM   18  O   UNL     1     -10.825  13.548  69.203  1.00  0.00    -0.222 OA 
HETATM   19  O   UNL     1     -12.206  15.656  69.353  1.00  0.00    -0.322 OA 
BRANCH  17  20
HETATM   20  N   UNL     1     -10.068  15.640  68.022  1.00  0.00    -0.223 N  
HETATM   21  C   UNL     1      -8.841  14.820  67.827  1.00  0.00    -0.175 C  
HETATM   22  C   UNL     1      -7.957  15.674  66.939  1.00  0.00    -0.278 C  
HETATM   23  C   UNL     1      -8.940  16.358  66.010  1.00  0.00    -0.307 C  
HETATM   24  C   UNL     1     -10.241  16.473  66.802  1.00  0.00    -0.295 C  
ENDBRANCH  17  20
ENDBRANCH  16  17
ENDBRANCH  13  16
ENDBRANCH   5   6
ENDBRANCH   4   5
ENDBRANCH   2   4
TORSDOF 6
ENDMDL
MODEL      132
REMARK 921   NORMALIZED FREE ENERGY PREDICTED BY IDOCK:   -4.54 KCAL/MOL
REMARK 922        TOTAL FREE ENERGY PREDICTED BY IDOCK:   -6.72 KCAL/MOL
REMARK 923 INTER-LIGAND FREE ENERGY PREDICTED BY IDOCK:   -6.31 KCAL/MOL
REMARK 924 INTRA-LIGAND FREE ENERGY PREDICTED BY IDOCK:   -0.41 KCAL/MOL
REMARK 927      BINDING AFFINITY PREDICTED BY RF-SCORE:    0.00 PKD
ROOT
HETATM    1  C   UNL     1     -10.471  17.330  66.170  1.00  0.00    -0.278 C  
HETATM    2  N   UNL     1      -9.947  15.983  66.425  1.00  0.00    -0.277 NA 
HETATM    3  C   UNL     1      -8.488  15.997  66.306  1.00  0.00    -0.302 C  
ENDROOT
BRANCH   2   4
HETATM    4  C   UNL     1     -10.390  15.532  67.761  1.00  0.00    -0.263 C  
BRANCH   4   5
HETATM    5  C   UNL     1     -11.699  14.719  67.774  1.00  0.00    -0.368 C  
BRANCH   5   6
HETATM    6  C   UNL     1     -11.887  13.945  66.502  1.00  0.00    -0.440 A  
HETATM    7  C   UNL     1     -12.923  14.101  65.598  1.00  0.00    -0.251 A  
HETATM    8  N   UNL     1     -12.767  13.180  64.600  1.00  0.00    -0.699 NA 
HETATM    9  C   UNL     1     -11.634  12.432  64.818  1.00  0.00    -0.341 A  
HETATM   10  H   UNL     1     -13.400  13.064  63.809  1.00  0.00     0.000 HD 
HETATM   11  C   UNL     1     -11.052  12.895  65.995  1.00  0.00    -0.308 A  
HETATM   12  C   UNL     1      -9.858  12.280  66.439  1.00  0.00    -0.242 A  
HETATM   13  C   UNL     1      -9.286  11.219  65.710  1.00  0.00    -0.236 A  
HETATM   14  C   UNL     1      -9.906  10.799  64.524  1.00  0.00    -0.369 A  
HETATM   15  C   UNL     1     -11.090  11.386  64.065  1.00  0.00    -0.400 A  
BRANCH  13  16
HETATM   16  C   UNL     1      -8.009  10.570  66.203  1.00  0.00    -0.147 C  
BRANCH  16  17
HETATM   17  S   UNL     1      -8.400   9.389  67.516  1.00  0.00    -0.122 S  
HETATM   18  O   UNL     1      -9.252  10.029  68.499  1.00  0.00    -0.135 OA 
HETATM   19  O   UNL     1      -7.205   8.675  67.909  1.00  0.00    -0.084 OA 
BRANCH  17  20
HETATM   20  N   UNL     1      -9.387   8.242  66.728  1.00  0.00    -0.169 N  
HETATM   21  C   UNL     1      -8.670   6.977  66.409  1.00  0.00    -0.142 C  
HETATM   22  C   UNL     1      -9.777   5.978  66.136  1.00  0.00    -0.060 C  
HETATM   23  C   UNL     1     -10.861   6.369  67.121  1.00  0.00    -0.467 C  
HETATM   24  C   UNL     1     -10.685   7.869  67.350  1.00  0.00    -0.208 C  
ENDBRANCH  17  20
ENDBRANCH  16  17
ENDBRANCH  13  16
ENDBRANCH   5   6
ENDBRANCH   4   5
ENDBRANCH   2   4
TORSDOF 6
ENDMDL
MODEL      133
REMARK 921   NORMALIZED FREE ENERGY PREDICTED BY IDOCK:   -4.52 KCAL/MOL
REMARK 922        TOTAL FREE ENERGY PREDICTED BY IDOCK:   -6.69 KCAL/MOL
REMARK 923 INTER-LIGAND FREE ENERGY PREDICTED BY IDOCK:   -6.07 KCAL/MOL
REMARK 924 INTRA-LIGAND FREE ENERGY PREDICTED BY IDOCK:   -0.63 KCAL/MOL
REMARK 927      BINDING AFFINITY PREDICTED BY RF-SCORE:    0.00 PKD
ROOT
HETATM    1  C   UNL     1     -11.733  12.464  67.859  1.00  0.00    -0.360 C  
HETATM    2  N   UNL     1     -10.333  12.492  67.420  1.00  0.00    -0.215 NA 
HETATM    3  C   UNL     1      -9.877  13.881  67.336  1.00  0.00    -0.237 C  
ENDROOT
BRANCH   2   4
HETATM    4  C   UNL     1      -9.512  11.695  68.355  1.00  0.00    -0.193 C  
BRANCH   4   5
HETATM    5  C   UNL     1      -8.626  10.621  67.693  1.00  0.00    -0.118 C  
BRANCH   5   6
HETATM    6  C   UNL     1      -9.392   9.361  67.413  1.00  0.00    -0.151 A  
HETATM    7  C   UNL     1     -10.005   9.028  66.219  1.00  0.00    -0.281 A  
HETATM    8  N   UNL     1     -10.640   7.828  66.380  1.00  0.00    -0.277 NA 
HETATM    9  C   UNL     1     -10.438   7.352  67.655  1.00  0.00    -0.241 A  
HETATM   10  H   UNL     1     -11.185   7.355  65.659  1.00  0.00     0.000 HD 
HETATM   11  C   UNL     1      -9.649   8.284  68.325  1.00  0.00    -0.158 A  
HETATM   12  C   UNL     1      -9.297   8.020  69.669  1.00  0.00    -0.156 A  
HETATM   13  C   UNL     1      -9.748   6.850  70.310  1.00  0.00    -0.176 A  
HETATM   14  C   UNL     1     -10.532   5.939  69.587  1.00  0.00    -0.346 A  
HETATM   15  C   UNL     1     -10.898   6.177  68.257  1.00  0.00    -0.387 A  
BRANCH  13  16
HETATM   16  C   UNL     1      -9.365   6.587  71.752  1.00  0.00    -0.149 C  
BRANCH  16  17
HETATM   17  S   UNL     1     -10.857   6.513  72.771  1.00  0.00    -0.258 S  
HETATM   18  O   UNL     1     -10.612   7.189  74.030  1.00  0.00    -0.317 OA 
HETATM   19  O   UNL     1     -11.416   5.180  72.732  1.00  0.00    -0.268 OA 
BRANCH  17  20
HETATM   20  N   UNL     1     -11.958   7.503  71.924  1.00  0.00    -0.291 N  
HETATM   21  C   UNL     1     -13.344   6.958  71.913  1.00  0.00    -0.125 C  
HETATM   22  C   UNL     1     -14.208   8.141  71.522  1.00  0.00    -0.502 C  
HETATM   23  C   UNL     1     -13.530   9.316  72.198  1.00  0.00    -0.539 C  
HETATM   24  C   UNL     1     -12.051   8.942  72.287  1.00  0.00    -0.322 C  
ENDBRANCH  17  20
ENDBRANCH  16  17
ENDBRANCH  13  16
ENDBRANCH   5   6
ENDBRANCH   4   5
ENDBRANCH   2   4
TORSDOF 6
ENDMDL
MODEL      134
REMARK 921   NORMALIZED FREE ENERGY PREDICTED BY IDOCK:   -4.52 KCAL/MOL
REMARK 922        TOTAL FREE ENERGY PREDICTED BY IDOCK:   -6.69 KCAL/MOL
REMARK 923 INTER-LIGAND FREE ENERGY PREDICTED BY IDOCK:   -6.23 KCAL/MOL
REMARK 924 INTRA-LIGAND FREE ENERGY PREDICTED BY IDOCK:   -0.46 KCAL/MOL
REMARK 927      BINDING AFFINITY PREDICTED BY RF-SCORE:    0.00 PKD
ROOT
HETATM    1  C   UNL     1     -10.079  13.811  66.645  1.00  0.00    -0.277 C  
HETATM    2  N   UNL     1     -11.481  13.638  67.040  1.00  0.00    -0.327 NA 
HETATM    3  C   UNL     1     -12.350  13.979  65.911  1.00  0.00    -0.486 C  
ENDROOT
BRANCH   2   4
HETATM    4  C   UNL     1     -11.691  12.250  67.501  1.00  0.00    -0.332 C  
BRANCH   4   5
HETATM    5  C   UNL     1     -10.773  11.800  68.654  1.00  0.00    -0.252 C  
BRANCH   5   6
HETATM    6  C   UNL     1     -11.558  11.261  69.815  1.00  0.00    -0.408 A  
HETATM    7  C   UNL     1     -12.660  11.858  70.400  1.00  0.00    -0.073 A  
HETATM    8  N   UNL     1     -13.058  11.085  71.455  1.00  0.00    -0.422 NA 
HETATM    9  C   UNL     1     -12.252   9.976  71.563  1.00  0.00    -0.405 A  
HETATM   10  H   UNL     1     -13.841  11.300  72.073  1.00  0.00     0.000 HD 
HETATM   11  C   UNL     1     -11.309  10.050  70.541  1.00  0.00    -0.409 A  
HETATM   12  C   UNL     1     -10.354   9.012  70.435  1.00  0.00    -0.253 A  
HETATM   13  C   UNL     1     -10.355   7.942  71.351  1.00  0.00    -0.234 A  
HETATM   14  C   UNL     1     -11.333   7.911  72.356  1.00  0.00    -0.427 A  
HETATM   15  C   UNL     1     -12.287   8.926  72.486  1.00  0.00    -0.325 A  
BRANCH  13  16
HETATM   16  C   UNL     1      -9.321   6.843  71.225  1.00  0.00    -0.164 C  
BRANCH  16  17
HETATM   17  S   UNL     1      -9.891   5.611  70.029  1.00  0.00    -0.202 S  
HETATM   18  O   UNL     1      -8.802   5.272  69.134  1.00  0.00    -0.099 OA 
HETATM   19  O   UNL     1     -11.193   5.982  69.520  1.00  0.00    -0.398 OA 
BRANCH  17  20
HETATM   20  N   UNL     1     -10.146   4.224  70.989  1.00  0.00    -0.147 N  
HETATM   21  C   UNL     1      -9.093   3.188  70.808  1.00  0.00    -0.116 C  
HETATM   22  C   UNL     1      -9.249   2.281  72.014  1.00  0.00    -0.148 C  
HETATM   23  C   UNL     1      -9.624   3.236  73.131  1.00  0.00    -0.148 C  
HETATM   24  C   UNL     1     -10.351   4.395  72.452  1.00  0.00    -0.173 C  
ENDBRANCH  17  20
ENDBRANCH  16  17
ENDBRANCH  13  16
ENDBRANCH   5   6
ENDBRANCH   4   5
ENDBRANCH   2   4
TORSDOF 6
ENDMDL
MODEL      135
REMARK 921   NORMALIZED FREE ENERGY PREDICTED BY IDOCK:   -4.52 KCAL/MOL
REMARK 922        TOTAL FREE ENERGY PREDICTED BY IDOCK:   -6.69 KCAL/MOL
REMARK 923 INTER-LIGAND FREE ENERGY PREDICTED BY IDOCK:   -5.98 KCAL/MOL
REMARK 924 INTRA-LIGAND FREE ENERGY PREDICTED BY IDOCK:   -0.71 KCAL/MOL
REMARK 927      BINDING AFFINITY PREDICTED BY RF-SCORE:    0.00 PKD
ROOT
HETATM    1  C   UNL     1      -7.590  18.190  68.124  1.00  0.00    -0.265 C  
HETATM    2  N   UNL     1      -8.842  18.910  68.389  1.00  0.00    -0.333 NA 
HETATM    3  C   UNL     1      -8.972  20.023  67.446  1.00  0.00    -0.347 C  
ENDROOT
BRANCH   2   4
HETATM    4  C   UNL     1      -9.976  17.968  68.294  1.00  0.00    -0.371 C  
BRANCH   4   5
HETATM    5  C   UNL     1      -9.645  16.612  67.641  1.00  0.00    -0.239 C  
BRANCH   5   6
HETATM    6  C   UNL     1     -10.643  15.554  68.016  1.00  0.00    -0.270 A  
HETATM    7  C   UNL     1     -11.692  15.702  68.905  1.00  0.00    -0.384 A  
HETATM    8  N   UNL     1     -12.336  14.502  69.015  1.00  0.00    -0.579 NA 
HETATM    9  C   UNL     1     -11.745  13.569  68.196  1.00  0.00    -0.361 A  
HETATM   10  H   UNL     1     -13.140  14.324  69.617  1.00  0.00     0.000 HD 
HETATM   11  C   UNL     1     -10.687  14.200  67.545  1.00  0.00    -0.270 A  
HETATM   12  C   UNL     1      -9.913  13.443  66.636  1.00  0.00    -0.277 A  
HETATM   13  C   UNL     1     -10.202  12.083  66.409  1.00  0.00    -0.243 A  
HETATM   14  C   UNL     1     -11.285  11.499  67.082  1.00  0.00    -0.365 A  
HETATM   15  C   UNL     1     -12.065  12.223  67.990  1.00  0.00    -0.063 A  
BRANCH  13  16
HETATM   16  C   UNL     1      -9.358  11.287  65.435  1.00  0.00    -0.210 C  
BRANCH  16  17
HETATM   17  S   UNL     1      -7.920  10.608  66.295  1.00  0.00    -0.152 S  
HETATM   18  O   UNL     1      -7.663  11.387  67.490  1.00  0.00    -0.114 OA 
HETATM   19  O   UNL     1      -6.867  10.321  65.346  1.00  0.00    -0.132 OA 
BRANCH  17  20
HETATM   20  N   UNL     1      -8.474   9.091  66.844  1.00  0.00    -0.118 N  
HETATM   21  C   UNL     1      -8.858   9.097  68.283  1.00  0.00    -0.129 C  
HETATM   22  C   UNL     1      -9.701   7.848  68.450  1.00  0.00    -0.170 C  
HETATM   23  C   UNL     1     -10.465   7.756  67.144  1.00  0.00    -0.413 C  
HETATM   24  C   UNL     1      -9.569   8.417  66.097  1.00  0.00    -0.176 C  
ENDBRANCH  17  20
ENDBRANCH  16  17
ENDBRANCH  13  16
ENDBRANCH   5   6
ENDBRANCH   4   5
ENDBRANCH   2   4
TORSDOF 6
ENDMDL
MODEL      136
REMARK 921   NORMALIZED FREE ENERGY PREDICTED BY IDOCK:   -4.51 KCAL/MOL
REMARK 922        TOTAL FREE ENERGY PREDICTED BY IDOCK:   -6.67 KCAL/MOL
REMARK 923 INTER-LIGAND FREE ENERGY PREDICTED BY IDOCK:   -6.56 KCAL/MOL
REMARK 924 INTRA-LIGAND FREE ENERGY PREDICTED BY IDOCK:   -0.12 KCAL/MOL
REMARK 927      BINDING AFFINITY PREDICTED BY RF-SCORE:    0.00 PKD
ROOT
HETATM    1  C   UNL     1     -13.819  13.570  72.360  1.00  0.00    -0.586 C  
HETATM    2  N   UNL     1     -13.700  15.024  72.205  1.00  0.00    -0.407 NA 
HETATM    3  C   UNL     1     -12.977  15.579  73.351  1.00  0.00    -0.551 C  
ENDROOT
BRANCH   2   4
HETATM    4  C   UNL     1     -13.025  15.325  70.925  1.00  0.00    -0.462 C  
BRANCH   4   5
HETATM    5  C   UNL     1     -12.355  14.117  70.241  1.00  0.00    -0.421 C  
BRANCH   5   6
HETATM    6  C   UNL     1     -11.721  14.497  68.934  1.00  0.00    -0.354 A  
HETATM    7  C   UNL     1     -11.521  15.784  68.470  1.00  0.00    -0.379 A  
HETATM    8  N   UNL     1     -10.966  15.711  67.223  1.00  0.00    -0.302 NA 
HETATM    9  C   UNL     1     -10.775  14.397  66.865  1.00  0.00    -0.292 A  
HETATM   10  H   UNL     1     -10.727  16.515  66.642  1.00  0.00     0.000 HD 
HETATM   11  C   UNL     1     -11.227  13.610  67.922  1.00  0.00    -0.300 A  
HETATM   12  C   UNL     1     -11.137  12.204  67.796  1.00  0.00    -0.302 A  
HETATM   13  C   UNL     1     -10.614  11.622  66.625  1.00  0.00    -0.281 A  
HETATM   14  C   UNL     1     -10.163  12.461  65.595  1.00  0.00    -0.285 A  
HETATM   15  C   UNL     1     -10.244  13.854  65.690  1.00  0.00    -0.344 A  
BRANCH  13  16
HETATM   16  C   UNL     1     -10.529  10.115  66.507  1.00  0.00    -0.166 C  
BRANCH  16  17
HETATM   17  S   UNL     1      -8.794   9.604  66.515  1.00  0.00    -0.144 S  
HETATM   18  O   UNL     1      -8.559   8.725  67.644  1.00  0.00    -0.126 OA 
HETATM   19  O   UNL     1      -7.942  10.744  66.262  1.00  0.00    -0.150 OA 
BRANCH  17  20
HETATM   20  N   UNL     1      -8.672   8.616  65.130  1.00  0.00    -0.173 N  
HETATM   21  C   UNL     1      -8.779   9.382  63.857  1.00  0.00    -0.202 C  
HETATM   22  C   UNL     1      -8.225   8.440  62.806  1.00  0.00    -0.166 C  
HETATM   23  C   UNL     1      -7.099   7.725  63.527  1.00  0.00    -0.075 C  
HETATM   24  C   UNL     1      -7.502   7.707  65.001  1.00  0.00    -0.090 C  
ENDBRANCH  17  20
ENDBRANCH  16  17
ENDBRANCH  13  16
ENDBRANCH   5   6
ENDBRANCH   4   5
ENDBRANCH   2   4
TORSDOF 6
ENDMDL
MODEL      137
REMARK 921   NORMALIZED FREE ENERGY PREDICTED BY IDOCK:   -4.50 KCAL/MOL
REMARK 922        TOTAL FREE ENERGY PREDICTED BY IDOCK:   -6.67 KCAL/MOL
REMARK 923 INTER-LIGAND FREE ENERGY PREDICTED BY IDOCK:   -6.17 KCAL/MOL
REMARK 924 INTRA-LIGAND FREE ENERGY PREDICTED BY IDOCK:   -0.50 KCAL/MOL
REMARK 927      BINDING AFFINITY PREDICTED BY RF-SCORE:    0.00 PKD
ROOT
HETATM    1  C   UNL     1      -8.723   7.125  68.043  1.00  0.00    -0.127 C  
HETATM    2  N   UNL     1     -10.133   7.533  68.008  1.00  0.00    -0.175 NA 
HETATM    3  C   UNL     1     -10.905   6.692  68.925  1.00  0.00    -0.277 C  
ENDROOT
BRANCH   2   4
HETATM    4  C   UNL     1     -10.235   8.967  68.352  1.00  0.00    -0.199 C  
BRANCH   4   5
HETATM    5  C   UNL     1      -9.239   9.886  67.618  1.00  0.00    -0.146 C  
BRANCH   5   6
HETATM    6  C   UNL     1      -9.822  10.440  66.350  1.00  0.00    -0.266 A  
HETATM    7  C   UNL     1      -9.907   9.783  65.136  1.00  0.00    -0.224 A  
HETATM    8  N   UNL     1     -10.452  10.638  64.220  1.00  0.00    -0.397 NA 
HETATM    9  C   UNL     1     -10.750  11.843  64.814  1.00  0.00    -0.307 A  
HETATM   10  H   UNL     1     -10.614  10.416  63.238  1.00  0.00     0.000 HD 
HETATM   11  C   UNL     1     -10.379  11.747  66.153  1.00  0.00    -0.266 A  
HETATM   12  C   UNL     1     -10.588  12.869  66.987  1.00  0.00    -0.261 A  
HETATM   13  C   UNL     1     -11.145  14.054  66.467  1.00  0.00    -0.315 A  
HETATM   14  C   UNL     1     -11.510  14.094  65.114  1.00  0.00    -0.336 A  
HETATM   15  C   UNL     1     -11.311  13.000  64.265  1.00  0.00    -0.419 A  
BRANCH  13  16
HETATM   16  C   UNL     1     -11.356  15.248  67.375  1.00  0.00    -0.284 C  
BRANCH  16  17
HETATM   17  S   UNL     1     -10.299  16.613  66.837  1.00  0.00    -0.280 S  
HETATM   18  O   UNL     1     -10.819  17.859  67.366  1.00  0.00    -0.339 OA 
HETATM   19  O   UNL     1      -9.981  16.468  65.434  1.00  0.00    -0.552 OA 
BRANCH  17  20
HETATM   20  N   UNL     1      -8.840  16.331  67.675  1.00  0.00    -0.189 N  
HETATM   21  C   UNL     1      -9.050  15.774  69.040  1.00  0.00    -0.245 C  
HETATM   22  C   UNL     1      -7.699  15.204  69.423  1.00  0.00    -0.213 C  
HETATM   23  C   UNL     1      -7.163  14.650  68.118  1.00  0.00    -0.127 C  
HETATM   24  C   UNL     1      -7.787  15.510  67.020  1.00  0.00    -0.225 C  
ENDBRANCH  17  20
ENDBRANCH  16  17
ENDBRANCH  13  16
ENDBRANCH   5   6
ENDBRANCH   4   5
ENDBRANCH   2   4
TORSDOF 6
ENDMDL
MODEL      138
REMARK 921   NORMALIZED FREE ENERGY PREDICTED BY IDOCK:   -4.50 KCAL/MOL
REMARK 922        TOTAL FREE ENERGY PREDICTED BY IDOCK:   -6.66 KCAL/MOL
REMARK 923 INTER-LIGAND FREE ENERGY PREDICTED BY IDOCK:   -5.93 KCAL/MOL
REMARK 924 INTRA-LIGAND FREE ENERGY PREDICTED BY IDOCK:   -0.73 KCAL/MOL
REMARK 927      BINDING AFFINITY PREDICTED BY RF-SCORE:    0.00 PKD
ROOT
HETATM    1  C   UNL     1      -8.522   9.332  70.413  1.00  0.00    -0.206 C  
HETATM    2  N   UNL     1      -7.989  10.333  69.481  1.00  0.00    -0.162 NA 
HETATM    3  C   UNL     1      -6.664  10.762  69.934  1.00  0.00    -0.156 C  
ENDROOT
BRANCH   2   4
HETATM    4  C   UNL     1      -7.951   9.760  68.119  1.00  0.00    -0.100 C  
BRANCH   4   5
HETATM    5  C   UNL     1      -8.444  10.700  67.002  1.00  0.00    -0.129 C  
BRANCH   5   6
HETATM    6  C   UNL     1      -9.787  11.291  67.323  1.00  0.00    -0.203 A  
HETATM    7  C   UNL     1     -10.995  10.617  67.322  1.00  0.00    -0.284 A  
HETATM    8  N   UNL     1     -11.986  11.511  67.615  1.00  0.00    -0.634 NA 
HETATM    9  C   UNL     1     -11.452  12.760  67.832  1.00  0.00    -0.317 A  
HETATM   10  H   UNL     1     -12.980  11.285  67.666  1.00  0.00     0.000 HD 
HETATM   11  C   UNL     1     -10.073  12.653  67.669  1.00  0.00    -0.218 A  
HETATM   12  C   UNL     1      -9.286  13.816  67.842  1.00  0.00    -0.211 A  
HETATM   13  C   UNL     1      -9.891  15.048  68.159  1.00  0.00    -0.216 A  
HETATM   14  C   UNL     1     -11.283  15.098  68.322  1.00  0.00    -0.315 A  
HETATM   15  C   UNL     1     -12.085  13.965  68.152  1.00  0.00    -0.317 A  
BRANCH  13  16
HETATM   16  C   UNL     1      -9.032  16.283  68.336  1.00  0.00    -0.203 C  
BRANCH  16  17
HETATM   17  S   UNL     1      -9.332  17.430  66.970  1.00  0.00    -0.268 S  
HETATM   18  O   UNL     1     -10.335  18.399  67.369  1.00  0.00    -0.354 OA 
HETATM   19  O   UNL     1      -9.448  16.699  65.728  1.00  0.00    -0.495 OA 
BRANCH  17  20
HETATM   20  N   UNL     1      -7.869  18.300  66.862  1.00  0.00    -0.223 N  
HETATM   21  C   UNL     1      -7.191  18.466  68.177  1.00  0.00    -0.261 C  
HETATM   22  C   UNL     1      -5.768  18.849  67.820  1.00  0.00    -0.189 C  
HETATM   23  C   UNL     1      -5.485  18.039  66.570  1.00  0.00    -0.192 C  
HETATM   24  C   UNL     1      -6.839  17.849  65.889  1.00  0.00    -0.280 C  
ENDBRANCH  17  20
ENDBRANCH  16  17
ENDBRANCH  13  16
ENDBRANCH   5   6
ENDBRANCH   4   5
ENDBRANCH   2   4
TORSDOF 6
ENDMDL
MODEL      139
REMARK 921   NORMALIZED FREE ENERGY PREDICTED BY IDOCK:   -4.49 KCAL/MOL
REMARK 922        TOTAL FREE ENERGY PREDICTED BY IDOCK:   -6.65 KCAL/MOL
REMARK 923 INTER-LIGAND FREE ENERGY PREDICTED BY IDOCK:   -6.17 KCAL/MOL
REMARK 924 INTRA-LIGAND FREE ENERGY PREDICTED BY IDOCK:   -0.48 KCAL/MOL
REMARK 927      BINDING AFFINITY PREDICTED BY RF-SCORE:    0.00 PKD
ROOT
HETATM    1  C   UNL     1     -10.882  16.597  65.428  1.00  0.00    -0.173 C  
HETATM    2  N   UNL     1     -10.328  15.342  65.948  1.00  0.00    -0.306 NA 
HETATM    3  C   UNL     1      -9.029  15.604  66.570  1.00  0.00    -0.308 C  
ENDROOT
BRANCH   2   4
HETATM    4  C   UNL     1     -11.287  14.742  66.898  1.00  0.00    -0.355 C  
BRANCH   4   5
HETATM    5  C   UNL     1     -12.332  13.802  66.265  1.00  0.00    -0.479 C  
BRANCH   5   6
HETATM    6  C   UNL     1     -11.794  13.111  65.046  1.00  0.00    -0.390 A  
HETATM    7  C   UNL     1     -12.134  13.390  63.735  1.00  0.00    -0.456 A  
HETATM    8  N   UNL     1     -11.471  12.512  62.923  1.00  0.00    -0.615 NA 
HETATM    9  C   UNL     1     -10.683  11.673  63.674  1.00  0.00    -0.435 A  
HETATM   10  H   UNL     1     -11.551  12.485  61.906  1.00  0.00     0.000 HD 
HETATM   11  C   UNL     1     -10.853  12.030  65.009  1.00  0.00    -0.351 A  
HETATM   12  C   UNL     1     -10.138  11.306  65.992  1.00  0.00    -0.283 A  
HETATM   13  C   UNL     1      -9.289  10.244  65.622  1.00  0.00    -0.241 A  
HETATM   14  C   UNL     1      -9.146   9.933  64.262  1.00  0.00    -0.297 A  
HETATM   15  C   UNL     1      -9.844  10.629  63.270  1.00  0.00    -0.364 A  
BRANCH  13  16
HETATM   16  C   UNL     1      -8.536   9.478  66.690  1.00  0.00    -0.133 C  
BRANCH  16  17
HETATM   17  S   UNL     1      -9.445   7.972  67.109  1.00  0.00    -0.174 S  
HETATM   18  O   UNL     1     -10.836   8.131  66.731  1.00  0.00    -0.197 OA 
HETATM   19  O   UNL     1      -9.073   7.523  68.432  1.00  0.00    -0.134 OA 
BRANCH  17  20
HETATM   20  N   UNL     1      -8.804   6.816  66.030  1.00  0.00    -0.153 N  
HETATM   21  C   UNL     1      -7.458   7.186  65.511  1.00  0.00    -0.083 C  
HETATM   22  C   UNL     1      -6.902   5.890  64.955  1.00  0.00    -0.048 C  
HETATM   23  C   UNL     1      -7.421   4.839  65.916  1.00  0.00    -0.078 C  
HETATM   24  C   UNL     1      -8.735   5.395  66.462  1.00  0.00    -0.117 C  
ENDBRANCH  17  20
ENDBRANCH  16  17
ENDBRANCH  13  16
ENDBRANCH   5   6
ENDBRANCH   4   5
ENDBRANCH   2   4
TORSDOF 6
ENDMDL
MODEL      140
REMARK 921   NORMALIZED FREE ENERGY PREDICTED BY IDOCK:   -4.48 KCAL/MOL
REMARK 922        TOTAL FREE ENERGY PREDICTED BY IDOCK:   -6.65 KCAL/MOL
REMARK 923 INTER-LIGAND FREE ENERGY PREDICTED BY IDOCK:   -6.10 KCAL/MOL
REMARK 924 INTRA-LIGAND FREE ENERGY PREDICTED BY IDOCK:   -0.54 KCAL/MOL
REMARK 927      BINDING AFFINITY PREDICTED BY RF-SCORE:    0.00 PKD
ROOT
HETATM    1  C   UNL     1      -9.258  15.521  69.334  1.00  0.00    -0.280 C  
HETATM    2  N   UNL     1     -10.572  14.891  69.164  1.00  0.00    -0.241 NA 
HETATM    3  C   UNL     1     -11.494  15.407  70.179  1.00  0.00    -0.317 C  
ENDROOT
BRANCH   2   4
HETATM    4  C   UNL     1     -11.061  15.144  67.792  1.00  0.00    -0.313 C  
BRANCH   4   5
HETATM    5  C   UNL     1     -12.158  14.178  67.302  1.00  0.00    -0.407 C  
BRANCH   5   6
HETATM    6  C   UNL     1     -11.993  13.839  65.849  1.00  0.00    -0.433 A  
HETATM    7  C   UNL     1     -12.483  14.570  64.781  1.00  0.00    -0.319 A  
HETATM    8  N   UNL     1     -12.169  13.909  63.627  1.00  0.00    -0.971 NA 
HETATM    9  C   UNL     1     -11.461  12.765  63.912  1.00  0.00    -0.444 A  
HETATM   10  H   UNL     1     -12.424  14.219  62.689  1.00  0.00     0.000 HD 
HETATM   11  C   UNL     1     -11.322  12.698  65.297  1.00  0.00    -0.350 A  
HETATM   12  C   UNL     1     -10.621  11.601  65.848  1.00  0.00    -0.318 A  
HETATM   13  C   UNL     1     -10.092  10.598  65.012  1.00  0.00    -0.388 A  
HETATM   14  C   UNL     1     -10.250  10.718  63.624  1.00  0.00    -0.327 A  
HETATM   15  C   UNL     1     -10.943  11.792  63.052  1.00  0.00    -0.111 A  
BRANCH  13  16
HETATM   16  C   UNL     1      -9.348   9.427  65.621  1.00  0.00    -0.246 C  
BRANCH  16  17
HETATM   17  S   UNL     1      -7.674   9.943  66.073  1.00  0.00    -0.112 S  
HETATM   18  O   UNL     1      -7.715  10.639  67.345  1.00  0.00    -0.103 OA 
HETATM   19  O   UNL     1      -7.007  10.515  64.925  1.00  0.00    -0.089 OA 
BRANCH  17  20
HETATM   20  N   UNL     1      -6.881   8.465  66.382  1.00  0.00    -0.069 N  
HETATM   21  C   UNL     1      -7.640   7.577  67.305  1.00  0.00    -0.108 C  
HETATM   22  C   UNL     1      -7.019   6.209  67.105  1.00  0.00    -0.068 C  
HETATM   23  C   UNL     1      -6.693   6.179  65.624  1.00  0.00    -0.048 C  
HETATM   24  C   UNL     1      -6.444   7.634  65.230  1.00  0.00    -0.041 C  
ENDBRANCH  17  20
ENDBRANCH  16  17
ENDBRANCH  13  16
ENDBRANCH   5   6
ENDBRANCH   4   5
ENDBRANCH   2   4
TORSDOF 6
ENDMDL
MODEL      141
REMARK 921   NORMALIZED FREE ENERGY PREDICTED BY IDOCK:   -4.47 KCAL/MOL
REMARK 922        TOTAL FREE ENERGY PREDICTED BY IDOCK:   -6.62 KCAL/MOL
REMARK 923 INTER-LIGAND FREE ENERGY PREDICTED BY IDOCK:   -6.10 KCAL/MOL
REMARK 924 INTRA-LIGAND FREE ENERGY PREDICTED BY IDOCK:   -0.52 KCAL/MOL
REMARK 927      BINDING AFFINITY PREDICTED BY RF-SCORE:    0.00 PKD
ROOT
HETATM    1  C   UNL     1     -12.180  14.691  64.334  1.00  0.00    -0.452 C  
HETATM    2  N   UNL     1     -12.741  13.684  65.242  1.00  0.00    -0.664 NA 
HETATM    3  C   UNL     1     -12.534  12.349  64.676  1.00  0.00    -0.420 C  
ENDROOT
BRANCH   2   4
HETATM    4  C   UNL     1     -12.114  13.824  66.574  1.00  0.00    -0.443 C  
BRANCH   4   5
HETATM    5  C   UNL     1     -11.130  12.700  66.953  1.00  0.00    -0.315 C  
BRANCH   5   6
HETATM    6  C   UNL     1     -11.414  12.149  68.320  1.00  0.00    -0.360 A  
HETATM    7  C   UNL     1     -12.137  12.777  69.318  1.00  0.00    -0.172 A  
HETATM    8  N   UNL     1     -12.128  11.976  70.426  1.00  0.00    -0.401 NA 
HETATM    9  C   UNL     1     -11.432  10.818  70.169  1.00  0.00    -0.331 A  
HETATM   10  H   UNL     1     -12.574  12.204  71.314  1.00  0.00     0.000 HD 
HETATM   11  C   UNL     1     -10.981  10.889  68.853  1.00  0.00    -0.278 A  
HETATM   12  C   UNL     1     -10.231   9.805  68.342  1.00  0.00    -0.210 A  
HETATM   13  C   UNL     1      -9.939   8.691  69.154  1.00  0.00    -0.193 A  
HETATM   14  C   UNL     1     -10.425   8.665  70.469  1.00  0.00    -0.237 A  
HETATM   15  C   UNL     1     -11.167   9.726  71.001  1.00  0.00    -0.451 A  
BRANCH  13  16
HETATM   16  C   UNL     1      -9.130   7.542  68.591  1.00  0.00    -0.134 C  
BRANCH  16  17
HETATM   17  S   UNL     1      -9.990   6.838  67.164  1.00  0.00    -0.185 S  
HETATM   18  O   UNL     1      -9.557   7.518  65.960  1.00  0.00    -0.053 OA 
HETATM   19  O   UNL     1     -11.394   6.670  67.468  1.00  0.00    -0.271 OA 
BRANCH  17  20
HETATM   20  N   UNL     1      -9.347   5.261  67.059  1.00  0.00    -0.119 N  
HETATM   21  C   UNL     1      -7.941   5.237  66.568  1.00  0.00    -0.104 C  
HETATM   22  C   UNL     1      -7.433   3.862  66.955  1.00  0.00    -0.072 C  
HETATM   23  C   UNL     1      -8.100   3.599  68.292  1.00  0.00    -0.079 C  
HETATM   24  C   UNL     1      -9.412   4.381  68.256  1.00  0.00    -0.153 C  
ENDBRANCH  17  20
ENDBRANCH  16  17
ENDBRANCH  13  16
ENDBRANCH   5   6
ENDBRANCH   4   5
ENDBRANCH   2   4
TORSDOF 6
ENDMDL
MODEL      142
REMARK 921   NORMALIZED FREE ENERGY PREDICTED BY IDOCK:   -4.46 KCAL/MOL
REMARK 922        TOTAL FREE ENERGY PREDICTED BY IDOCK:   -6.61 KCAL/MOL
REMARK 923 INTER-LIGAND FREE ENERGY PREDICTED BY IDOCK:   -6.03 KCAL/MOL
REMARK 924 INTRA-LIGAND FREE ENERGY PREDICTED BY IDOCK:   -0.58 KCAL/MOL
REMARK 927      BINDING AFFINITY PREDICTED BY RF-SCORE:    0.00 PKD
ROOT
HETATM    1  C   UNL     1      -7.259   5.331  66.401  1.00  0.00    -0.077 C  
HETATM    2  N   UNL     1      -7.848   6.666  66.553  1.00  0.00    -0.102 NA 
HETATM    3  C   UNL     1      -7.917   7.319  65.244  1.00  0.00    -0.127 C  
ENDROOT
BRANCH   2   4
HETATM    4  C   UNL     1      -9.180   6.543  67.182  1.00  0.00    -0.128 C  
BRANCH   4   5
HETATM    5  C   UNL     1     -10.159   7.691  66.867  1.00  0.00    -0.348 C  
BRANCH   5   6
HETATM    6  C   UNL     1     -10.491   8.492  68.093  1.00  0.00    -0.236 A  
HETATM    7  C   UNL     1     -10.455   8.036  69.398  1.00  0.00    -0.220 A  
HETATM    8  N   UNL     1     -10.873   9.046  70.219  1.00  0.00    -0.232 NA 
HETATM    9  C   UNL     1     -11.163  10.169  69.480  1.00  0.00    -0.238 A  
HETATM   10  H   UNL     1     -10.958   8.977  71.233  1.00  0.00     0.000 HD 
HETATM   11  C   UNL     1     -10.922   9.859  68.143  1.00  0.00    -0.261 A  
HETATM   12  C   UNL     1     -11.147  10.861  67.172  1.00  0.00    -0.308 A  
HETATM   13  C   UNL     1     -11.615  12.134  67.553  1.00  0.00    -0.413 A  
HETATM   14  C   UNL     1     -11.832  12.398  68.913  1.00  0.00    -0.350 A  
HETATM   15  C   UNL     1     -11.622  11.423  69.895  1.00  0.00    -0.402 A  
BRANCH  13  16
HETATM   16  C   UNL     1     -11.855  13.194  66.497  1.00  0.00    -0.400 C  
BRANCH  16  17
HETATM   17  S   UNL     1     -10.278  13.942  66.023  1.00  0.00    -0.318 S  
HETATM   18  O   UNL     1     -10.421  14.581  64.729  1.00  0.00    -0.423 OA 
HETATM   19  O   UNL     1      -9.195  13.023  66.290  1.00  0.00    -0.185 OA 
BRANCH  17  20
HETATM   20  N   UNL     1     -10.096  15.213  67.146  1.00  0.00    -0.238 N  
HETATM   21  C   UNL     1     -11.393  15.698  67.693  1.00  0.00    -0.228 C  
HETATM   22  C   UNL     1     -11.008  16.474  68.938  1.00  0.00    -0.325 C  
HETATM   23  C   UNL     1      -9.841  15.686  69.501  1.00  0.00    -0.289 C  
HETATM   24  C   UNL     1      -9.174  15.023  68.297  1.00  0.00    -0.184 C  
ENDBRANCH  17  20
ENDBRANCH  16  17
ENDBRANCH  13  16
ENDBRANCH   5   6
ENDBRANCH   4   5
ENDBRANCH   2   4
TORSDOF 6
ENDMDL
MODEL      143
REMARK 921   NORMALIZED FREE ENERGY PREDICTED BY IDOCK:   -4.44 KCAL/MOL
REMARK 922        TOTAL FREE ENERGY PREDICTED BY IDOCK:   -6.59 KCAL/MOL
REMARK 923 INTER-LIGAND FREE ENERGY PREDICTED BY IDOCK:   -5.95 KCAL/MOL
REMARK 924 INTRA-LIGAND FREE ENERGY PREDICTED BY IDOCK:   -0.64 KCAL/MOL
REMARK 927      BINDING AFFINITY PREDICTED BY RF-SCORE:    0.00 PKD
ROOT
HETATM    1  C   UNL     1     -13.484  14.046  72.142  1.00  0.00    -0.475 C  
HETATM    2  N   UNL     1     -12.843  14.890  71.128  1.00  0.00    -0.333 NA 
HETATM    3  C   UNL     1     -11.597  15.438  71.668  1.00  0.00    -0.423 C  
ENDROOT
BRANCH   2   4
HETATM    4  C   UNL     1     -12.614  14.094  69.904  1.00  0.00    -0.154 C  
BRANCH   4   5
HETATM    5  C   UNL     1     -11.189  14.183  69.324  1.00  0.00    -0.308 C  
BRANCH   5   6
HETATM    6  C   UNL     1     -11.132  13.695  67.906  1.00  0.00    -0.283 A  
HETATM    7  C   UNL     1     -11.667  14.334  66.802  1.00  0.00    -0.405 A  
HETATM    8  N   UNL     1     -11.453  13.548  65.704  1.00  0.00    -0.310 NA 
HETATM    9  C   UNL     1     -10.766  12.412  66.060  1.00  0.00    -0.261 A  
HETATM   10  H   UNL     1     -11.759  13.773  64.757  1.00  0.00     0.000 HD 
HETATM   11  C   UNL     1     -10.538  12.478  67.433  1.00  0.00    -0.242 A  
HETATM   12  C   UNL     1      -9.838  11.415  68.048  1.00  0.00    -0.191 A  
HETATM   13  C   UNL     1      -9.398  10.313  67.288  1.00  0.00    -0.169 A  
HETATM   14  C   UNL     1      -9.645  10.300  65.907  1.00  0.00    -0.263 A  
HETATM   15  C   UNL     1     -10.338  11.337  65.273  1.00  0.00    -0.337 A  
BRANCH  13  16
HETATM   16  C   UNL     1      -8.655   9.181  67.965  1.00  0.00    -0.125 C  
BRANCH  16  17
HETATM   17  S   UNL     1      -9.835   7.926  68.516  1.00  0.00    -0.182 S  
HETATM   18  O   UNL     1      -9.143   6.666  68.702  1.00  0.00    -0.128 OA 
HETATM   19  O   UNL     1     -11.046   8.008  67.731  1.00  0.00     0.046 OA 
BRANCH  17  20
HETATM   20  N   UNL     1     -10.261   8.452  70.082  1.00  0.00    -0.192 N  
HETATM   21  C   UNL     1     -10.931   7.396  70.890  1.00  0.00    -0.253 C  
HETATM   22  C   UNL     1     -10.827   7.895  72.318  1.00  0.00    -0.353 C  
HETATM   23  C   UNL     1      -9.470   8.570  72.361  1.00  0.00    -0.350 C  
HETATM   24  C   UNL     1      -9.213   9.067  70.939  1.00  0.00    -0.259 C  
ENDBRANCH  17  20
ENDBRANCH  16  17
ENDBRANCH  13  16
ENDBRANCH   5   6
ENDBRANCH   4   5
ENDBRANCH   2   4
TORSDOF 6
ENDMDL
MODEL      144
REMARK 921   NORMALIZED FREE ENERGY PREDICTED BY IDOCK:   -4.44 KCAL/MOL
REMARK 922        TOTAL FREE ENERGY PREDICTED BY IDOCK:   -6.58 KCAL/MOL
REMARK 923 INTER-LIGAND FREE ENERGY PREDICTED BY IDOCK:   -6.27 KCAL/MOL
REMARK 924 INTRA-LIGAND FREE ENERGY PREDICTED BY IDOCK:   -0.32 KCAL/MOL
REMARK 927      BINDING AFFINITY PREDICTED BY RF-SCORE:    0.00 PKD
ROOT
HETATM    1  C   UNL     1      -7.744   5.317  73.334  1.00  0.00    -0.096 C  
HETATM    2  N   UNL     1      -9.196   5.103  73.311  1.00  0.00    -0.131 NA 
HETATM    3  C   UNL     1      -9.602   4.388  74.523  1.00  0.00    -0.126 C  
ENDROOT
BRANCH   2   4
HETATM    4  C   UNL     1      -9.879   6.407  73.182  1.00  0.00    -0.168 C  
BRANCH   4   5
HETATM    5  C   UNL     1      -9.369   7.301  72.034  1.00  0.00    -0.150 C  
BRANCH   5   6
HETATM    6  C   UNL     1      -9.983   6.921  70.718  1.00  0.00    -0.201 A  
HETATM    7  C   UNL     1     -10.552   5.699  70.406  1.00  0.00    -0.294 A  
HETATM    8  N   UNL     1     -10.949   5.730  69.099  1.00  0.00    -0.300 NA 
HETATM    9  C   UNL     1     -10.673   6.959  68.548  1.00  0.00    -0.207 A  
HETATM   10  H   UNL     1     -11.388   4.953  68.604  1.00  0.00     0.000 HD 
HETATM   11  C   UNL     1     -10.078   7.734  69.540  1.00  0.00    -0.194 A  
HETATM   12  C   UNL     1      -9.697   9.057  69.219  1.00  0.00    -0.168 A  
HETATM   13  C   UNL     1      -9.905   9.567  67.922  1.00  0.00    -0.186 A  
HETATM   14  C   UNL     1     -10.518   8.748  66.962  1.00  0.00    -0.338 A  
HETATM   15  C   UNL     1     -10.901   7.434  67.252  1.00  0.00    -0.326 A  
BRANCH  13  16
HETATM   16  C   UNL     1      -9.486  10.985  67.595  1.00  0.00    -0.164 C  
BRANCH  16  17
HETATM   17  S   UNL     1     -10.930  12.073  67.660  1.00  0.00    -0.254 S  
HETATM   18  O   UNL     1     -10.628  13.222  68.492  1.00  0.00    -0.247 OA 
HETATM   19  O   UNL     1     -12.128  11.291  67.867  1.00  0.00    -0.634 OA 
BRANCH  17  20
HETATM   20  N   UNL     1     -11.037  12.674  66.067  1.00  0.00    -0.277 N  
HETATM   21  C   UNL     1     -10.143  11.961  65.113  1.00  0.00    -0.261 C  
HETATM   22  C   UNL     1     -10.690  12.322  63.746  1.00  0.00    -0.494 C  
HETATM   23  C   UNL     1     -12.189  12.376  63.965  1.00  0.00    -0.579 C  
HETATM   24  C   UNL     1     -12.376  12.772  65.429  1.00  0.00    -0.470 C  
ENDBRANCH  17  20
ENDBRANCH  16  17
ENDBRANCH  13  16
ENDBRANCH   5   6
ENDBRANCH   4   5
ENDBRANCH   2   4
TORSDOF 6
ENDMDL
MODEL      145
REMARK 921   NORMALIZED FREE ENERGY PREDICTED BY IDOCK:   -4.42 KCAL/MOL
REMARK 922        TOTAL FREE ENERGY PREDICTED BY IDOCK:   -6.56 KCAL/MOL
REMARK 923 INTER-LIGAND FREE ENERGY PREDICTED BY IDOCK:   -6.06 KCAL/MOL
REMARK 924 INTRA-LIGAND FREE ENERGY PREDICTED BY IDOCK:   -0.50 KCAL/MOL
REMARK 927      BINDING AFFINITY PREDICTED BY RF-SCORE:    0.00 PKD
ROOT
HETATM    1  C   UNL     1      -9.594   3.562  70.586  1.00  0.00    -0.177 C  
HETATM    2  N   UNL     1      -9.331   5.003  70.492  1.00  0.00    -0.147 NA 
HETATM    3  C   UNL     1     -10.042   5.553  69.335  1.00  0.00    -0.236 C  
ENDROOT
BRANCH   2   4
HETATM    4  C   UNL     1      -9.736   5.657  71.754  1.00  0.00    -0.158 C  
BRANCH   4   5
HETATM    5  C   UNL     1      -9.418   7.162  71.840  1.00  0.00    -0.157 C  
BRANCH   5   6
HETATM    6  C   UNL     1     -10.666   7.989  71.958  1.00  0.00    -0.319 A  
HETATM    7  C   UNL     1     -11.722   7.751  72.819  1.00  0.00    -0.258 A  
HETATM    8  N   UNL     1     -12.685   8.693  72.589  1.00  0.00    -0.556 NA 
HETATM    9  C   UNL     1     -12.274   9.563  71.607  1.00  0.00    -0.398 A  
HETATM   10  H   UNL     1     -13.581   8.744  73.076  1.00  0.00     0.000 HD 
HETATM   11  C   UNL     1     -11.005   9.157  71.199  1.00  0.00    -0.390 A  
HETATM   12  C   UNL     1     -10.357   9.901  70.186  1.00  0.00    -0.336 A  
HETATM   13  C   UNL     1     -10.991  11.014  69.600  1.00  0.00    -0.286 A  
HETATM   14  C   UNL     1     -12.264  11.388  70.054  1.00  0.00    -0.377 A  
HETATM   15  C   UNL     1     -12.929  10.667  71.052  1.00  0.00    -0.456 A  
BRANCH  13  16
HETATM   16  C   UNL     1     -10.283  11.796  68.512  1.00  0.00    -0.210 C  
BRANCH  16  17
HETATM   17  S   UNL     1     -10.526  10.974  66.920  1.00  0.00    -0.257 S  
HETATM   18  O   UNL     1     -11.424  11.768  66.103  1.00  0.00    -0.339 OA 
HETATM   19  O   UNL     1     -10.750   9.560  67.123  1.00  0.00    -0.255 OA 
BRANCH  17  20
HETATM   20  N   UNL     1      -8.996  11.100  66.177  1.00  0.00    -0.191 N  
HETATM   21  C   UNL     1      -7.882  11.230  67.156  1.00  0.00    -0.151 C  
HETATM   22  C   UNL     1      -6.639  10.893  66.356  1.00  0.00    -0.134 C  
HETATM   23  C   UNL     1      -7.107   9.801  65.414  1.00  0.00    -0.113 C  
HETATM   24  C   UNL     1      -8.595  10.066  65.186  1.00  0.00    -0.158 C  
ENDBRANCH  17  20
ENDBRANCH  16  17
ENDBRANCH  13  16
ENDBRANCH   5   6
ENDBRANCH   4   5
ENDBRANCH   2   4
TORSDOF 6
ENDMDL
MODEL      146
REMARK 921   NORMALIZED FREE ENERGY PREDICTED BY IDOCK:   -4.42 KCAL/MOL
REMARK 922        TOTAL FREE ENERGY PREDICTED BY IDOCK:   -6.55 KCAL/MOL
REMARK 923 INTER-LIGAND FREE ENERGY PREDICTED BY IDOCK:   -6.87 KCAL/MOL
REMARK 924 INTRA-LIGAND FREE ENERGY PREDICTED BY IDOCK:    0.32 KCAL/MOL
REMARK 927      BINDING AFFINITY PREDICTED BY RF-SCORE:    0.00 PKD
ROOT
HETATM    1  C   UNL     1     -11.945   7.489  72.318  1.00  0.00    -0.263 C  
HETATM    2  N   UNL     1     -12.997   8.074  71.478  1.00  0.00    -0.321 NA 
HETATM    3  C   UNL     1     -14.222   7.283  71.611  1.00  0.00    -0.409 C  
ENDROOT
BRANCH   2   4
HETATM    4  C   UNL     1     -13.202   9.485  71.865  1.00  0.00    -0.439 C  
BRANCH   4   5
HETATM    5  C   UNL     1     -12.806  10.520  70.794  1.00  0.00    -0.454 C  
BRANCH   5   6
HETATM    6  C   UNL     1     -13.030  11.927  71.269  1.00  0.00    -0.334 A  
HETATM    7  C   UNL     1     -13.737  12.303  72.396  1.00  0.00     0.013 A  
HETATM    8  N   UNL     1     -13.757  13.669  72.455  1.00  0.00    -0.687 NA 
HETATM    9  C   UNL     1     -13.057  14.200  71.398  1.00  0.00    -0.358 A  
HETATM   10  H   UNL     1     -14.225  14.214  73.180  1.00  0.00     0.000 HD 
HETATM   11  C   UNL     1     -12.577  13.134  70.641  1.00  0.00    -0.286 A  
HETATM   12  C   UNL     1     -11.814  13.423  69.486  1.00  0.00    -0.391 A  
HETATM   13  C   UNL     1     -11.563  14.757  69.110  1.00  0.00    -0.330 A  
HETATM   14  C   UNL     1     -12.060  15.794  69.913  1.00  0.00    -0.315 A  
HETATM   15  C   UNL     1     -12.821  15.537  71.059  1.00  0.00    -0.543 A  
BRANCH  13  16
HETATM   16  C   UNL     1     -10.748  15.046  67.866  1.00  0.00    -0.268 C  
BRANCH  16  17
HETATM   17  S   UNL     1      -9.687  13.629  67.495  1.00  0.00    -0.233 S  
HETATM   18  O   UNL     1     -10.159  12.980  66.287  1.00  0.00    -0.270 OA 
HETATM   19  O   UNL     1      -9.431  12.874  68.701  1.00  0.00    -0.130 OA 
BRANCH  17  20
HETATM   20  N   UNL     1      -8.200  14.354  67.077  1.00  0.00    -0.163 N  
HETATM   21  C   UNL     1      -8.140  15.801  67.421  1.00  0.00    -0.169 C  
HETATM   22  C   UNL     1      -6.661  16.133  67.386  1.00  0.00    -0.219 C  
HETATM   23  C   UNL     1      -6.002  14.880  67.929  1.00  0.00    -0.160 C  
HETATM   24  C   UNL     1      -6.940  13.731  67.562  1.00  0.00    -0.145 C  
ENDBRANCH  17  20
ENDBRANCH  16  17
ENDBRANCH  13  16
ENDBRANCH   5   6
ENDBRANCH   4   5
ENDBRANCH   2   4
TORSDOF 6
ENDMDL
MODEL      147
REMARK 921   NORMALIZED FREE ENERGY PREDICTED BY IDOCK:   -4.42 KCAL/MOL
REMARK 922        TOTAL FREE ENERGY PREDICTED BY IDOCK:   -6.55 KCAL/MOL
REMARK 923 INTER-LIGAND FREE ENERGY PREDICTED BY IDOCK:   -5.99 KCAL/MOL
REMARK 924 INTRA-LIGAND FREE ENERGY PREDICTED BY IDOCK:   -0.56 KCAL/MOL
REMARK 927      BINDING AFFINITY PREDICTED BY RF-SCORE:    0.00 PKD
ROOT
HETATM    1  C   UNL     1     -12.716  15.727  73.562  1.00  0.00    -0.575 C  
HETATM    2  N   UNL     1     -12.856  15.886  72.109  1.00  0.00    -0.446 NA 
HETATM    3  C   UNL     1     -11.531  16.057  71.509  1.00  0.00    -0.385 C  
ENDROOT
BRANCH   2   4
HETATM    4  C   UNL     1     -13.568  14.714  71.556  1.00  0.00    -0.405 C  
BRANCH   4   5
HETATM    5  C   UNL     1     -12.695  13.752  70.727  1.00  0.00    -0.361 C  
BRANCH   5   6
HETATM    6  C   UNL     1     -12.781  12.342  71.236  1.00  0.00    -0.347 A  
HETATM    7  C   UNL     1     -13.523  11.912  72.321  1.00  0.00    -0.081 A  
HETATM    8  N   UNL     1     -13.299  10.575  72.493  1.00  0.00    -0.429 NA 
HETATM    9  C   UNL     1     -12.439  10.109  71.526  1.00  0.00    -0.427 A  
HETATM   10  H   UNL     1     -13.711  10.004  73.232  1.00  0.00     0.000 HD 
HETATM   11  C   UNL     1     -12.105  11.190  70.714  1.00  0.00    -0.458 A  
HETATM   12  C   UNL     1     -11.223  10.968  69.632  1.00  0.00    -0.345 A  
HETATM   13  C   UNL     1     -10.689   9.685  69.396  1.00  0.00    -0.248 A  
HETATM   14  C   UNL     1     -11.066   8.629  70.238  1.00  0.00    -0.230 A  
HETATM   15  C   UNL     1     -11.934   8.822  71.318  1.00  0.00    -0.353 A  
BRANCH  13  16
HETATM   16  C   UNL     1      -9.742   9.467  68.234  1.00  0.00    -0.147 C  
BRANCH  16  17
HETATM   17  S   UNL     1      -8.097  10.078  68.672  1.00  0.00    -0.107 S  
HETATM   18  O   UNL     1      -7.618   9.368  69.842  1.00  0.00    -0.082 OA 
HETATM   19  O   UNL     1      -8.073  11.522  68.609  1.00  0.00    -0.146 OA 
BRANCH  17  20
HETATM   20  N   UNL     1      -7.124   9.541  67.378  1.00  0.00    -0.085 N  
HETATM   21  C   UNL     1      -7.891   9.334  66.119  1.00  0.00    -0.099 C  
HETATM   22  C   UNL     1      -6.831   9.296  65.036  1.00  0.00    -0.086 C  
HETATM   23  C   UNL     1      -5.806  10.310  65.505  1.00  0.00    -0.102 C  
HETATM   24  C   UNL     1      -5.905  10.318  67.030  1.00  0.00    -0.050 C  
ENDBRANCH  17  20
ENDBRANCH  16  17
ENDBRANCH  13  16
ENDBRANCH   5   6
ENDBRANCH   4   5
ENDBRANCH   2   4
TORSDOF 6
ENDMDL
MODEL      148
REMARK 921   NORMALIZED FREE ENERGY PREDICTED BY IDOCK:   -4.41 KCAL/MOL
REMARK 922        TOTAL FREE ENERGY PREDICTED BY IDOCK:   -6.55 KCAL/MOL
REMARK 923 INTER-LIGAND FREE ENERGY PREDICTED BY IDOCK:   -6.29 KCAL/MOL
REMARK 924 INTRA-LIGAND FREE ENERGY PREDICTED BY IDOCK:   -0.26 KCAL/MOL
REMARK 927      BINDING AFFINITY PREDICTED BY RF-SCORE:    0.00 PKD
ROOT
HETATM    1  C   UNL     1     -12.379  15.311  70.120  1.00  0.00    -0.353 C  
HETATM    2  N   UNL     1     -11.886  15.697  68.793  1.00  0.00    -0.362 NA 
HETATM    3  C   UNL     1     -10.835  16.706  68.939  1.00  0.00    -0.321 C  
ENDROOT
BRANCH   2   4
HETATM    4  C   UNL     1     -11.404  14.493  68.083  1.00  0.00    -0.298 C  
BRANCH   4   5
HETATM    5  C   UNL     1     -12.118  14.192  66.751  1.00  0.00    -0.474 C  
BRANCH   5   6
HETATM    6  C   UNL     1     -11.244  13.408  65.814  1.00  0.00    -0.305 A  
HETATM    7  C   UNL     1     -10.730  13.858  64.612  1.00  0.00    -0.407 A  
HETATM    8  N   UNL     1     -10.030  12.836  64.034  1.00  0.00    -0.650 NA 
HETATM    9  C   UNL     1     -10.054  11.726  64.845  1.00  0.00    -0.259 A  
HETATM   10  H   UNL     1      -9.557  12.890  63.131  1.00  0.00     0.000 HD 
HETATM   11  C   UNL     1     -10.797  12.055  65.976  1.00  0.00    -0.329 A  
HETATM   12  C   UNL     1     -10.969  11.070  66.975  1.00  0.00    -0.333 A  
HETATM   13  C   UNL     1     -10.411   9.785  66.816  1.00  0.00    -0.289 A  
HETATM   14  C   UNL     1      -9.662   9.509  65.663  1.00  0.00    -0.361 A  
HETATM   15  C   UNL     1      -9.480  10.464  64.657  1.00  0.00    -0.336 A  
BRANCH  13  16
HETATM   16  C   UNL     1     -10.610   8.741  67.895  1.00  0.00    -0.174 C  
BRANCH  16  17
HETATM   17  S   UNL     1      -9.993   9.375  69.472  1.00  0.00    -0.204 S  
HETATM   18  O   UNL     1     -10.402   8.484  70.540  1.00  0.00    -0.193 OA 
HETATM   19  O   UNL     1     -10.222  10.800  69.555  1.00  0.00    -0.202 OA 
BRANCH  17  20
HETATM   20  N   UNL     1      -8.303   9.185  69.335  1.00  0.00    -0.119 N  
HETATM   21  C   UNL     1      -7.914   7.988  68.539  1.00  0.00    -0.120 C  
HETATM   22  C   UNL     1      -6.463   8.236  68.175  1.00  0.00    -0.056 C  
HETATM   23  C   UNL     1      -6.405   9.734  67.946  1.00  0.00    -0.056 C  
HETATM   24  C   UNL     1      -7.493  10.328  68.839  1.00  0.00    -0.094 C  
ENDBRANCH  17  20
ENDBRANCH  16  17
ENDBRANCH  13  16
ENDBRANCH   5   6
ENDBRANCH   4   5
ENDBRANCH   2   4
TORSDOF 6
ENDMDL
MODEL      149
REMARK 921   NORMALIZED FREE ENERGY PREDICTED BY IDOCK:   -4.39 KCAL/MOL
REMARK 922        TOTAL FREE ENERGY PREDICTED BY IDOCK:   -6.52 KCAL/MOL
REMARK 923 INTER-LIGAND FREE ENERGY PREDICTED BY IDOCK:   -6.45 KCAL/MOL
REMARK 924 INTRA-LIGAND FREE ENERGY PREDICTED BY IDOCK:   -0.07 KCAL/MOL
REMARK 927      BINDING AFFINITY PREDICTED BY RF-SCORE:    0.00 PKD
ROOT
HETATM    1  C   UNL     1      -9.180   8.082  66.219  1.00  0.00    -0.184 C  
HETATM    2  N   UNL     1     -10.456   7.950  66.932  1.00  0.00    -0.341 NA 
HETATM    3  C   UNL     1     -10.368   6.844  67.887  1.00  0.00    -0.195 C  
ENDROOT
BRANCH   2   4
HETATM    4  C   UNL     1     -10.780   9.231  67.595  1.00  0.00    -0.209 C  
BRANCH   4   5
HETATM    5  C   UNL     1     -10.777   9.187  69.135  1.00  0.00    -0.190 C  
BRANCH   5   6
HETATM    6  C   UNL     1     -11.376  10.429  69.729  1.00  0.00    -0.353 A  
HETATM    7  C   UNL     1     -12.402  10.476  70.656  1.00  0.00    -0.356 A  
HETATM    8  N   UNL     1     -12.695  11.787  70.907  1.00  0.00    -0.283 NA 
HETATM    9  C   UNL     1     -11.866  12.607  70.179  1.00  0.00    -0.249 A  
HETATM   10  H   UNL     1     -13.425  12.110  71.543  1.00  0.00     0.000 HD 
HETATM   11  C   UNL     1     -11.017  11.787  69.439  1.00  0.00    -0.185 A  
HETATM   12  C   UNL     1     -10.058  12.398  68.600  1.00  0.00    -0.143 A  
HETATM   13  C   UNL     1      -9.977  13.802  68.510  1.00  0.00    -0.217 A  
HETATM   14  C   UNL     1     -10.848  14.582  69.285  1.00  0.00    -0.270 A  
HETATM   15  C   UNL     1     -11.809  14.003  70.120  1.00  0.00    -0.377 A  
BRANCH  13  16
HETATM   16  C   UNL     1      -8.945  14.439  67.603  1.00  0.00    -0.192 C  
BRANCH  16  17
HETATM   17  S   UNL     1      -9.750  15.655  66.532  1.00  0.00    -0.287 S  
HETATM   18  O   UNL     1      -8.760  16.253  65.658  1.00  0.00    -0.329 OA 
HETATM   19  O   UNL     1     -10.658  16.471  67.307  1.00  0.00    -0.315 OA 
BRANCH  17  20
HETATM   20  N   UNL     1     -10.735  14.695  65.523  1.00  0.00    -0.327 N  
HETATM   21  C   UNL     1     -10.136  13.367  65.215  1.00  0.00    -0.249 C  
HETATM   22  C   UNL     1     -11.300  12.539  64.708  1.00  0.00    -0.354 C  
HETATM   23  C   UNL     1     -12.467  13.012  65.552  1.00  0.00    -0.496 C  
HETATM   24  C   UNL     1     -12.149  14.461  65.919  1.00  0.00    -0.348 C  
ENDBRANCH  17  20
ENDBRANCH  16  17
ENDBRANCH  13  16
ENDBRANCH   5   6
ENDBRANCH   4   5
ENDBRANCH   2   4
TORSDOF 6
ENDMDL
MODEL      150
REMARK 921   NORMALIZED FREE ENERGY PREDICTED BY IDOCK:   -4.39 KCAL/MOL
REMARK 922        TOTAL FREE ENERGY PREDICTED BY IDOCK:   -6.52 KCAL/MOL
REMARK 923 INTER-LIGAND FREE ENERGY PREDICTED BY IDOCK:   -5.97 KCAL/MOL
REMARK 924 INTRA-LIGAND FREE ENERGY PREDICTED BY IDOCK:   -0.55 KCAL/MOL
REMARK 927      BINDING AFFINITY PREDICTED BY RF-SCORE:    0.00 PKD
ROOT
HETATM    1  C   UNL     1     -11.379  16.105  64.612  1.00  0.00    -0.282 C  
HETATM    2  N   UNL     1     -10.188  15.687  65.361  1.00  0.00    -0.373 NA 
HETATM    3  C   UNL     1      -9.919  16.655  66.427  1.00  0.00    -0.302 C  
ENDROOT
BRANCH   2   4
HETATM    4  C   UNL     1     -10.398  14.323  65.890  1.00  0.00    -0.314 C  
BRANCH   4   5
HETATM    5  C   UNL     1     -11.817  14.041  66.422  1.00  0.00    -0.437 C  
BRANCH   5   6
HETATM    6  C   UNL     1     -11.786  13.386  67.772  1.00  0.00    -0.395 A  
HETATM    7  C   UNL     1     -12.031  14.005  68.984  1.00  0.00    -0.357 A  
HETATM    8  N   UNL     1     -11.856  13.086  69.981  1.00  0.00    -0.472 NA 
HETATM    9  C   UNL     1     -11.522  11.864  69.446  1.00  0.00    -0.302 A  
HETATM   10  H   UNL     1     -11.958  13.279  70.977  1.00  0.00     0.000 HD 
HETATM   11  C   UNL     1     -11.482  12.014  68.062  1.00  0.00    -0.392 A  
HETATM   12  C   UNL     1     -11.158  10.886  67.274  1.00  0.00    -0.350 A  
HETATM   13  C   UNL     1     -10.872   9.647  67.882  1.00  0.00    -0.272 A  
HETATM   14  C   UNL     1     -10.936   9.547  69.280  1.00  0.00    -0.167 A  
HETATM   15  C   UNL     1     -11.250  10.649  70.083  1.00  0.00    -0.378 A  
BRANCH  13  16
HETATM   16  C   UNL     1     -10.522   8.450  67.022  1.00  0.00    -0.305 C  
BRANCH  16  17
HETATM   17  S   UNL     1      -8.725   8.266  66.944  1.00  0.00    -0.138 S  
HETATM   18  O   UNL     1      -8.242   7.730  68.202  1.00  0.00    -0.122 OA 
HETATM   19  O   UNL     1      -8.133   9.446  66.354  1.00  0.00    -0.107 OA 
BRANCH  17  20
HETATM   20  N   UNL     1      -8.511   7.018  65.800  1.00  0.00    -0.149 N  
HETATM   21  C   UNL     1      -7.813   7.472  64.565  1.00  0.00    -0.130 C  
HETATM   22  C   UNL     1      -7.345   6.189  63.907  1.00  0.00    -0.067 C  
HETATM   23  C   UNL     1      -6.969   5.304  65.079  1.00  0.00    -0.057 C  
HETATM   24  C   UNL     1      -7.861   5.753  66.235  1.00  0.00    -0.101 C  
ENDBRANCH  17  20
ENDBRANCH  16  17
ENDBRANCH  13  16
ENDBRANCH   5   6
ENDBRANCH   4   5
ENDBRANCH   2   4
TORSDOF 6
ENDMDL
MODEL      151
REMARK 921   NORMALIZED FREE ENERGY PREDICTED BY IDOCK:   -4.37 KCAL/MOL
REMARK 922        TOTAL FREE ENERGY PREDICTED BY IDOCK:   -6.49 KCAL/MOL
REMARK 923 INTER-LIGAND FREE ENERGY PREDICTED BY IDOCK:   -5.77 KCAL/MOL
REMARK 924 INTRA-LIGAND FREE ENERGY PREDICTED BY IDOCK:   -0.72 KCAL/MOL
REMARK 927      BINDING AFFINITY PREDICTED BY RF-SCORE:    0.00 PKD
ROOT
HETATM    1  C   UNL     1      -8.983  18.472  67.722  1.00  0.00    -0.275 C  
HETATM    2  N   UNL     1      -9.062  17.908  66.370  1.00  0.00    -0.385 NA 
HETATM    3  C   UNL     1      -7.868  17.101  66.108  1.00  0.00    -0.268 C  
ENDROOT
BRANCH   2   4
HETATM    4  C   UNL     1     -10.304  17.118  66.242  1.00  0.00    -0.313 C  
BRANCH   4   5
HETATM    5  C   UNL     1     -10.145  15.606  66.498  1.00  0.00    -0.293 C  
BRANCH   5   6
HETATM    6  C   UNL     1     -10.971  15.149  67.666  1.00  0.00    -0.308 A  
HETATM    7  C   UNL     1     -11.650  15.965  68.553  1.00  0.00    -0.349 A  
HETATM    8  N   UNL     1     -12.237  15.175  69.501  1.00  0.00    -0.520 NA 
HETATM    9  C   UNL     1     -11.978  13.849  69.242  1.00  0.00    -0.357 A  
HETATM   10  H   UNL     1     -12.789  15.519  70.287  1.00  0.00     0.000 HD 
HETATM   11  C   UNL     1     -11.196  13.798  68.090  1.00  0.00    -0.298 A  
HETATM   12  C   UNL     1     -10.793  12.530  67.611  1.00  0.00    -0.255 A  
HETATM   13  C   UNL     1     -11.165  11.355  68.294  1.00  0.00    -0.326 A  
HETATM   14  C   UNL     1     -11.962  11.462  69.443  1.00  0.00    -0.407 A  
HETATM   15  C   UNL     1     -12.371  12.704  69.942  1.00  0.00    -0.126 A  
BRANCH  13  16
HETATM   16  C   UNL     1     -10.720  10.007  67.767  1.00  0.00    -0.280 C  
BRANCH  16  17
HETATM   17  S   UNL     1      -9.001   9.709  68.244  1.00  0.00    -0.123 S  
HETATM   18  O   UNL     1      -8.736   8.283  68.219  1.00  0.00    -0.135 OA 
HETATM   19  O   UNL     1      -8.661  10.514  69.396  1.00  0.00    -0.152 OA 
BRANCH  17  20
HETATM   20  N   UNL     1      -8.115  10.365  66.942  1.00  0.00    -0.116 N  
HETATM   21  C   UNL     1      -6.680   9.966  66.954  1.00  0.00    -0.078 C  
HETATM   22  C   UNL     1      -6.198  10.265  65.548  1.00  0.00    -0.114 C  
HETATM   23  C   UNL     1      -7.393   9.920  64.680  1.00  0.00    -0.140 C  
HETATM   24  C   UNL     1      -8.620  10.159  65.559  1.00  0.00    -0.151 C  
ENDBRANCH  17  20
ENDBRANCH  16  17
ENDBRANCH  13  16
ENDBRANCH   5   6
ENDBRANCH   4   5
ENDBRANCH   2   4
TORSDOF 6
ENDMDL
MODEL      152
REMARK 921   NORMALIZED FREE ENERGY PREDICTED BY IDOCK:   -4.36 KCAL/MOL
REMARK 922        TOTAL FREE ENERGY PREDICTED BY IDOCK:   -6.47 KCAL/MOL
REMARK 923 INTER-LIGAND FREE ENERGY PREDICTED BY IDOCK:   -5.89 KCAL/MOL
REMARK 924 INTRA-LIGAND FREE ENERGY PREDICTED BY IDOCK:   -0.58 KCAL/MOL
REMARK 927      BINDING AFFINITY PREDICTED BY RF-SCORE:    0.00 PKD
ROOT
HETATM    1  C   UNL     1      -6.617   6.561  66.563  1.00  0.00    -0.048 C  
HETATM    2  N   UNL     1      -8.025   6.763  66.203  1.00  0.00    -0.105 NA 
HETATM    3  C   UNL     1      -8.142   6.889  64.748  1.00  0.00    -0.095 C  
ENDROOT
BRANCH   2   4
HETATM    4  C   UNL     1      -8.829   5.640  66.728  1.00  0.00    -0.115 C  
BRANCH   4   5
HETATM    5  C   UNL     1     -10.320   5.956  66.958  1.00  0.00    -0.298 C  
BRANCH   5   6
HETATM    6  C   UNL     1     -10.559   6.561  68.311  1.00  0.00    -0.302 A  
HETATM    7  C   UNL     1     -10.997   5.889  69.438  1.00  0.00    -0.350 A  
HETATM    8  N   UNL     1     -11.140   6.796  70.451  1.00  0.00    -0.286 NA 
HETATM    9  C   UNL     1     -10.781   8.051  70.019  1.00  0.00    -0.244 A  
HETATM   10  H   UNL     1     -11.465   6.572  71.392  1.00  0.00     0.000 HD 
HETATM   11  C   UNL     1     -10.400   7.936  68.684  1.00  0.00    -0.224 A  
HETATM   12  C   UNL     1      -9.982   9.104  68.004  1.00  0.00    -0.213 A  
HETATM   13  C   UNL     1      -9.967  10.349  68.664  1.00  0.00    -0.186 A  
HETATM   14  C   UNL     1     -10.351  10.407  70.011  1.00  0.00    -0.181 A  
HETATM   15  C   UNL     1     -10.772   9.269  70.707  1.00  0.00    -0.350 A  
BRANCH  13  16
HETATM   16  C   UNL     1      -9.520  11.589  67.918  1.00  0.00    -0.178 C  
BRANCH  16  17
HETATM   17  S   UNL     1     -10.963  12.599  67.504  1.00  0.00    -0.257 S  
HETATM   18  O   UNL     1     -12.169  11.830  67.739  1.00  0.00    -0.536 OA 
HETATM   19  O   UNL     1     -10.742  13.285  66.250  1.00  0.00    -0.282 OA 
BRANCH  17  20
HETATM   20  N   UNL     1     -10.948  13.811  68.704  1.00  0.00    -0.257 N  
HETATM   21  C   UNL     1     -11.041  15.187  68.145  1.00  0.00    -0.304 C  
HETATM   22  C   UNL     1     -11.445  16.045  69.327  1.00  0.00    -0.350 C  
HETATM   23  C   UNL     1     -12.382  15.150  70.114  1.00  0.00    -0.385 C  
HETATM   24  C   UNL     1     -11.924  13.721  69.822  1.00  0.00    -0.344 C  
ENDBRANCH  17  20
ENDBRANCH  16  17
ENDBRANCH  13  16
ENDBRANCH   5   6
ENDBRANCH   4   5
ENDBRANCH   2   4
TORSDOF 6
ENDMDL
MODEL      153
REMARK 921   NORMALIZED FREE ENERGY PREDICTED BY IDOCK:   -4.34 KCAL/MOL
REMARK 922        TOTAL FREE ENERGY PREDICTED BY IDOCK:   -6.46 KCAL/MOL
REMARK 923 INTER-LIGAND FREE ENERGY PREDICTED BY IDOCK:   -5.62 KCAL/MOL
REMARK 924 INTRA-LIGAND FREE ENERGY PREDICTED BY IDOCK:   -0.83 KCAL/MOL
REMARK 927      BINDING AFFINITY PREDICTED BY RF-SCORE:    0.00 PKD
ROOT
HETATM    1  C   UNL     1      -9.890  13.589  66.590  1.00  0.00    -0.279 C  
HETATM    2  N   UNL     1     -11.228  13.235  67.075  1.00  0.00    -0.283 NA 
HETATM    3  C   UNL     1     -12.215  13.517  66.031  1.00  0.00    -0.445 C  
ENDROOT
BRANCH   2   4
HETATM    4  C   UNL     1     -11.241  11.813  67.480  1.00  0.00    -0.291 C  
BRANCH   4   5
HETATM    5  C   UNL     1     -10.531  11.508  68.813  1.00  0.00    -0.227 C  
BRANCH   5   6
HETATM    6  C   UNL     1     -11.406  10.718  69.743  1.00  0.00    -0.372 A  
HETATM    7  C   UNL     1     -12.783  10.804  69.835  1.00  0.00    -0.032 A  
HETATM    8  N   UNL     1     -13.201   9.965  70.830  1.00  0.00    -0.602 NA 
HETATM    9  C   UNL     1     -12.125   9.309  71.381  1.00  0.00    -0.348 A  
HETATM   10  H   UNL     1     -14.171   9.843  71.121  1.00  0.00     0.000 HD 
HETATM   11  C   UNL     1     -10.985   9.749  70.713  1.00  0.00    -0.406 A  
HETATM   12  C   UNL     1      -9.734   9.215  71.100  1.00  0.00    -0.360 A  
HETATM   13  C   UNL     1      -9.650   8.273  72.144  1.00  0.00    -0.338 A  
HETATM   14  C   UNL     1     -10.830   7.855  72.776  1.00  0.00    -0.451 A  
HETATM   15  C   UNL     1     -12.080   8.370  72.417  1.00  0.00    -0.443 A  
BRANCH  13  16
HETATM   16  C   UNL     1      -8.301   7.716  72.547  1.00  0.00    -0.119 C  
BRANCH  16  17
HETATM   17  S   UNL     1      -7.888   6.307  71.490  1.00  0.00    -0.102 S  
HETATM   18  O   UNL     1      -9.082   5.857  70.803  1.00  0.00    -0.150 OA 
HETATM   19  O   UNL     1      -7.043   5.381  72.211  1.00  0.00    -0.081 OA 
BRANCH  17  20
HETATM   20  N   UNL     1      -6.897   6.999  70.287  1.00  0.00    -0.056 N  
HETATM   21  C   UNL     1      -7.589   7.150  68.977  1.00  0.00    -0.100 C  
HETATM   22  C   UNL     1      -6.733   8.141  68.213  1.00  0.00    -0.064 C  
HETATM   23  C   UNL     1      -6.259   9.103  69.285  1.00  0.00    -0.041 C  
HETATM   24  C   UNL     1      -6.214   8.287  70.577  1.00  0.00    -0.035 C  
ENDBRANCH  17  20
ENDBRANCH  16  17
ENDBRANCH  13  16
ENDBRANCH   5   6
ENDBRANCH   4   5
ENDBRANCH   2   4
TORSDOF 6
ENDMDL
MODEL      154
REMARK 921   NORMALIZED FREE ENERGY PREDICTED BY IDOCK:   -4.34 KCAL/MOL
REMARK 922        TOTAL FREE ENERGY PREDICTED BY IDOCK:   -6.45 KCAL/MOL
REMARK 923 INTER-LIGAND FREE ENERGY PREDICTED BY IDOCK:   -6.59 KCAL/MOL
REMARK 924 INTRA-LIGAND FREE ENERGY PREDICTED BY IDOCK:    0.14 KCAL/MOL
REMARK 927      BINDING AFFINITY PREDICTED BY RF-SCORE:    0.00 PKD
ROOT
HETATM    1  C   UNL     1      -7.892   7.295  68.206  1.00  0.00    -0.122 C  
HETATM    2  N   UNL     1      -8.329   8.559  67.602  1.00  0.00    -0.128 NA 
HETATM    3  C   UNL     1      -9.133   8.277  66.410  1.00  0.00    -0.182 C  
ENDROOT
BRANCH   2   4
HETATM    4  C   UNL     1      -9.079   9.346  68.603  1.00  0.00    -0.132 C  
BRANCH   4   5
HETATM    5  C   UNL     1     -10.610   9.175  68.553  1.00  0.00    -0.209 C  
BRANCH   5   6
HETATM    6  C   UNL     1     -11.275   9.764  69.763  1.00  0.00    -0.242 A  
HETATM    7  C   UNL     1     -11.623   9.082  70.915  1.00  0.00    -0.290 A  
HETATM    8  N   UNL     1     -12.252   9.954  71.759  1.00  0.00    -0.382 NA 
HETATM    9  C   UNL     1     -12.306  11.206  71.193  1.00  0.00    -0.346 A  
HETATM   10  H   UNL     1     -12.627   9.711  72.676  1.00  0.00     0.000 HD 
HETATM   11  C   UNL     1     -11.691  11.124  69.946  1.00  0.00    -0.433 A  
HETATM   12  C   UNL     1     -11.617  12.296  69.158  1.00  0.00    -0.373 A  
HETATM   13  C   UNL     1     -12.165  13.507  69.623  1.00  0.00    -0.304 A  
HETATM   14  C   UNL     1     -12.764  13.538  70.891  1.00  0.00    -0.366 A  
HETATM   15  C   UNL     1     -12.855  12.393  71.690  1.00  0.00    -0.375 A  
BRANCH  13  16
HETATM   16  C   UNL     1     -12.079  14.751  68.762  1.00  0.00    -0.190 C  
BRANCH  16  17
HETATM   17  S   UNL     1     -10.398  14.928  68.120  1.00  0.00    -0.240 S  
HETATM   18  O   UNL     1      -9.589  13.817  68.582  1.00  0.00    -0.202 OA 
HETATM   19  O   UNL     1      -9.952  16.295  68.274  1.00  0.00    -0.227 OA 
BRANCH  17  20
HETATM   20  N   UNL     1     -10.593  14.690  66.442  1.00  0.00    -0.295 N  
HETATM   21  C   UNL     1     -11.954  14.208  66.077  1.00  0.00    -0.413 C  
HETATM   22  C   UNL     1     -12.058  14.477  64.588  1.00  0.00    -0.486 C  
HETATM   23  C   UNL     1     -11.305  15.780  64.408  1.00  0.00    -0.274 C  
HETATM   24  C   UNL     1     -10.256  15.805  65.518  1.00  0.00    -0.378 C  
ENDBRANCH  17  20
ENDBRANCH  16  17
ENDBRANCH  13  16
ENDBRANCH   5   6
ENDBRANCH   4   5
ENDBRANCH   2   4
TORSDOF 6
ENDMDL
MODEL      155
REMARK 921   NORMALIZED FREE ENERGY PREDICTED BY IDOCK:   -4.32 KCAL/MOL
REMARK 922        TOTAL FREE ENERGY PREDICTED BY IDOCK:   -6.43 KCAL/MOL
REMARK 923 INTER-LIGAND FREE ENERGY PREDICTED BY IDOCK:   -5.80 KCAL/MOL
REMARK 924 INTRA-LIGAND FREE ENERGY PREDICTED BY IDOCK:   -0.63 KCAL/MOL
REMARK 927      BINDING AFFINITY PREDICTED BY RF-SCORE:    0.00 PKD
ROOT
HETATM    1  C   UNL     1      -6.933   6.197  64.983  1.00  0.00    -0.055 C  
HETATM    2  N   UNL     1      -7.812   6.260  66.156  1.00  0.00    -0.102 NA 
HETATM    3  C   UNL     1      -8.708   7.412  66.031  1.00  0.00    -0.153 C  
ENDROOT
BRANCH   2   4
HETATM    4  C   UNL     1      -8.556   4.989  66.277  1.00  0.00    -0.113 C  
BRANCH   4   5
HETATM    5  C   UNL     1      -9.878   5.080  67.065  1.00  0.00    -0.205 C  
BRANCH   5   6
HETATM    6  C   UNL     1      -9.703   4.664  68.497  1.00  0.00    -0.208 A  
HETATM    7  C   UNL     1      -8.896   3.638  68.954  1.00  0.00    -0.108 A  
HETATM    8  N   UNL     1      -9.049   3.541  70.309  1.00  0.00    -0.117 NA 
HETATM    9  C   UNL     1      -9.927   4.500  70.757  1.00  0.00    -0.199 A  
HETATM   10  H   UNL     1      -8.580   2.856  70.902  1.00  0.00     0.000 HD 
HETATM   11  C   UNL     1     -10.346   5.229  69.647  1.00  0.00    -0.348 A  
HETATM   12  C   UNL     1     -11.262   6.287  69.848  1.00  0.00    -0.498 A  
HETATM   13  C   UNL     1     -11.744   6.581  71.139  1.00  0.00    -0.392 A  
HETATM   14  C   UNL     1     -11.282   5.822  72.224  1.00  0.00    -0.333 A  
HETATM   15  C   UNL     1     -10.379   4.767  72.054  1.00  0.00    -0.247 A  
BRANCH  13  16
HETATM   16  C   UNL     1     -12.729   7.715  71.333  1.00  0.00    -0.327 C  
BRANCH  16  17
HETATM   17  S   UNL     1     -11.828   9.254  71.633  1.00  0.00    -0.397 S  
HETATM   18  O   UNL     1     -10.554   8.951  72.255  1.00  0.00    -0.320 OA 
HETATM   19  O   UNL     1     -12.718  10.247  72.192  1.00  0.00    -0.358 OA 
BRANCH  17  20
HETATM   20  N   UNL     1     -11.454   9.800  70.060  1.00  0.00    -0.216 N  
HETATM   21  C   UNL     1     -11.974  11.166  69.778  1.00  0.00    -0.357 C  
HETATM   22  C   UNL     1     -11.193  11.620  68.561  1.00  0.00    -0.312 C  
HETATM   23  C   UNL     1      -9.814  11.030  68.782  1.00  0.00    -0.206 C  
HETATM   24  C   UNL     1     -10.038   9.765  69.609  1.00  0.00    -0.229 C  
ENDBRANCH  17  20
ENDBRANCH  16  17
ENDBRANCH  13  16
ENDBRANCH   5   6
ENDBRANCH   4   5
ENDBRANCH   2   4
TORSDOF 6
ENDMDL
MODEL      156
REMARK 921   NORMALIZED FREE ENERGY PREDICTED BY IDOCK:   -4.30 KCAL/MOL
REMARK 922        TOTAL FREE ENERGY PREDICTED BY IDOCK:   -6.40 KCAL/MOL
REMARK 923 INTER-LIGAND FREE ENERGY PREDICTED BY IDOCK:   -5.72 KCAL/MOL
REMARK 924 INTRA-LIGAND FREE ENERGY PREDICTED BY IDOCK:   -0.68 KCAL/MOL
REMARK 927      BINDING AFFINITY PREDICTED BY RF-SCORE:    0.00 PKD
ROOT
HETATM    1  C   UNL     1     -10.285  11.980  64.402  1.00  0.00    -0.302 C  
HETATM    2  N   UNL     1     -10.460  11.612  65.812  1.00  0.00    -0.254 NA 
HETATM    3  C   UNL     1      -9.150  11.554  66.466  1.00  0.00    -0.194 C  
ENDROOT
BRANCH   2   4
HETATM    4  C   UNL     1     -11.361  12.586  66.463  1.00  0.00    -0.334 C  
BRANCH   4   5
HETATM    5  C   UNL     1     -10.746  13.354  67.648  1.00  0.00    -0.257 C  
BRANCH   5   6
HETATM    6  C   UNL     1     -11.551  13.180  68.904  1.00  0.00    -0.354 A  
HETATM    7  C   UNL     1     -12.258  14.170  69.562  1.00  0.00    -0.305 A  
HETATM    8  N   UNL     1     -12.813  13.626  70.687  1.00  0.00    -0.209 NA 
HETATM    9  C   UNL     1     -12.504  12.289  70.771  1.00  0.00    -0.265 A  
HETATM   10  H   UNL     1     -13.376  14.139  71.366  1.00  0.00     0.000 HD 
HETATM   11  C   UNL     1     -11.724  11.974  69.661  1.00  0.00    -0.405 A  
HETATM   12  C   UNL     1     -11.273  10.642  69.515  1.00  0.00    -0.331 A  
HETATM   13  C   UNL     1     -11.599   9.667  70.479  1.00  0.00    -0.341 A  
HETATM   14  C   UNL     1     -12.396  10.035  71.573  1.00  0.00    -0.513 A  
HETATM   15  C   UNL     1     -12.852  11.346  71.744  1.00  0.00    -0.449 A  
BRANCH  13  16
HETATM   16  C   UNL     1     -11.103   8.246  70.308  1.00  0.00    -0.219 C  
BRANCH  16  17
HETATM   17  S   UNL     1      -9.644   7.985  71.345  1.00  0.00    -0.161 S  
HETATM   18  O   UNL     1      -9.872   6.847  72.214  1.00  0.00    -0.153 OA 
HETATM   19  O   UNL     1      -9.179   9.249  71.870  1.00  0.00    -0.298 OA 
BRANCH  17  20
HETATM   20  N   UNL     1      -8.457   7.481  70.228  1.00  0.00    -0.137 N  
HETATM   21  C   UNL     1      -7.531   8.576  69.829  1.00  0.00    -0.071 C  
HETATM   22  C   UNL     1      -6.344   7.858  69.217  1.00  0.00    -0.035 C  
HETATM   23  C   UNL     1      -6.212   6.605  70.061  1.00  0.00    -0.034 C  
HETATM   24  C   UNL     1      -7.623   6.295  70.558  1.00  0.00    -0.096 C  
ENDBRANCH  17  20
ENDBRANCH  16  17
ENDBRANCH  13  16
ENDBRANCH   5   6
ENDBRANCH   4   5
ENDBRANCH   2   4
TORSDOF 6
ENDMDL
MODEL      157
REMARK 921   NORMALIZED FREE ENERGY PREDICTED BY IDOCK:   -4.30 KCAL/MOL
REMARK 922        TOTAL FREE ENERGY PREDICTED BY IDOCK:   -6.39 KCAL/MOL
REMARK 923 INTER-LIGAND FREE ENERGY PREDICTED BY IDOCK:   -5.82 KCAL/MOL
REMARK 924 INTRA-LIGAND FREE ENERGY PREDICTED BY IDOCK:   -0.57 KCAL/MOL
REMARK 927      BINDING AFFINITY PREDICTED BY RF-SCORE:    0.00 PKD
ROOT
HETATM    1  C   UNL     1     -11.544  16.048  64.379  1.00  0.00    -0.212 C  
HETATM    2  N   UNL     1     -10.300  15.621  65.030  1.00  0.00    -0.460 NA 
HETATM    3  C   UNL     1      -9.950  16.575  66.085  1.00  0.00    -0.343 C  
ENDROOT
BRANCH   2   4
HETATM    4  C   UNL     1     -10.471  14.250  65.556  1.00  0.00    -0.346 C  
BRANCH   4   5
HETATM    5  C   UNL     1     -11.849  13.958  66.181  1.00  0.00    -0.422 C  
BRANCH   5   6
HETATM    6  C   UNL     1     -11.724  13.295  67.522  1.00  0.00    -0.410 A  
HETATM    7  C   UNL     1     -11.914  13.901  68.751  1.00  0.00    -0.358 A  
HETATM    8  N   UNL     1     -11.659  12.980  69.728  1.00  0.00    -0.470 NA 
HETATM    9  C   UNL     1     -11.326  11.770  69.166  1.00  0.00    -0.279 A  
HETATM   10  H   UNL     1     -11.709  13.164  70.731  1.00  0.00     0.000 HD 
HETATM   11  C   UNL     1     -11.370  11.930  67.783  1.00  0.00    -0.361 A  
HETATM   12  C   UNL     1     -11.064  10.815  66.970  1.00  0.00    -0.245 A  
HETATM   13  C   UNL     1     -10.712   9.580  67.551  1.00  0.00    -0.311 A  
HETATM   14  C   UNL     1     -10.693   9.470  68.949  1.00  0.00    -0.220 A  
HETATM   15  C   UNL     1     -10.988  10.558  69.777  1.00  0.00    -0.350 A  
BRANCH  13  16
HETATM   16  C   UNL     1     -10.384   8.398  66.663  1.00  0.00    -0.228 C  
BRANCH  16  17
HETATM   17  S   UNL     1      -8.629   8.440  66.224  1.00  0.00    -0.144 S  
HETATM   18  O   UNL     1      -8.498   8.523  64.783  1.00  0.00    -0.170 OA 
HETATM   19  O   UNL     1      -7.906   7.447  66.987  1.00  0.00    -0.111 OA 
BRANCH  17  20
HETATM   20  N   UNL     1      -8.114   9.952  66.822  1.00  0.00    -0.116 N  
HETATM   21  C   UNL     1      -7.150   9.835  67.951  1.00  0.00    -0.083 C  
HETATM   22  C   UNL     1      -6.504  11.204  68.035  1.00  0.00    -0.057 C  
HETATM   23  C   UNL     1      -6.401  11.639  66.586  1.00  0.00    -0.066 C  
HETATM   24  C   UNL     1      -7.557  10.946  65.867  1.00  0.00    -0.057 C  
ENDBRANCH  17  20
ENDBRANCH  16  17
ENDBRANCH  13  16
ENDBRANCH   5   6
ENDBRANCH   4   5
ENDBRANCH   2   4
TORSDOF 6
ENDMDL
MODEL      158
REMARK 921   NORMALIZED FREE ENERGY PREDICTED BY IDOCK:   -4.29 KCAL/MOL
REMARK 922        TOTAL FREE ENERGY PREDICTED BY IDOCK:   -6.39 KCAL/MOL
REMARK 923 INTER-LIGAND FREE ENERGY PREDICTED BY IDOCK:   -6.27 KCAL/MOL
REMARK 924 INTRA-LIGAND FREE ENERGY PREDICTED BY IDOCK:   -0.12 KCAL/MOL
REMARK 927      BINDING AFFINITY PREDICTED BY RF-SCORE:    0.00 PKD
ROOT
HETATM    1  C   UNL     1      -7.088   5.682  66.002  1.00  0.00    -0.068 C  
HETATM    2  N   UNL     1      -7.956   6.863  66.078  1.00  0.00    -0.104 NA 
HETATM    3  C   UNL     1      -8.012   7.512  64.767  1.00  0.00    -0.132 C  
ENDROOT
BRANCH   2   4
HETATM    4  C   UNL     1      -9.295   6.454  66.552  1.00  0.00    -0.155 C  
BRANCH   4   5
HETATM    5  C   UNL     1     -10.299   7.608  66.746  1.00  0.00    -0.343 C  
BRANCH   5   6
HETATM    6  C   UNL     1     -10.455   7.973  68.194  1.00  0.00    -0.222 A  
HETATM    7  C   UNL     1     -10.216   7.143  69.274  1.00  0.00    -0.190 A  
HETATM    8  N   UNL     1     -10.522   7.826  70.418  1.00  0.00    -0.217 NA 
HETATM    9  C   UNL     1     -10.938   9.100  70.113  1.00  0.00    -0.239 A  
HETATM   10  H   UNL     1     -10.452   7.444  71.362  1.00  0.00     0.000 HD 
HETATM   11  C   UNL     1     -10.896   9.229  68.727  1.00  0.00    -0.123 A  
HETATM   12  C   UNL     1     -11.280  10.465  68.157  1.00  0.00    -0.333 A  
HETATM   13  C   UNL     1     -11.706  11.529  68.977  1.00  0.00    -0.400 A  
HETATM   14  C   UNL     1     -11.720  11.350  70.368  1.00  0.00    -0.362 A  
HETATM   15  C   UNL     1     -11.349  10.137  70.957  1.00  0.00    -0.385 A  
BRANCH  13  16
HETATM   16  C   UNL     1     -12.119  12.844  68.348  1.00  0.00    -0.128 C  
BRANCH  16  17
HETATM   17  S   UNL     1     -10.876  13.351  67.135  1.00  0.00    -0.279 S  
HETATM   18  O   UNL     1      -9.609  12.725  67.458  1.00  0.00    -0.184 OA 
HETATM   19  O   UNL     1     -10.971  14.774  66.896  1.00  0.00    -0.313 OA 
BRANCH  17  20
HETATM   20  N   UNL     1     -11.406  12.602  65.697  1.00  0.00    -0.308 N  
HETATM   21  C   UNL     1     -12.195  13.513  64.822  1.00  0.00    -0.409 C  
HETATM   22  C   UNL     1     -12.187  12.831  63.468  1.00  0.00    -0.613 C  
HETATM   23  C   UNL     1     -10.806  12.210  63.390  1.00  0.00    -0.474 C  
HETATM   24  C   UNL     1     -10.405  11.919  64.835  1.00  0.00    -0.286 C  
ENDBRANCH  17  20
ENDBRANCH  16  17
ENDBRANCH  13  16
ENDBRANCH   5   6
ENDBRANCH   4   5
ENDBRANCH   2   4
TORSDOF 6
ENDMDL
MODEL      159
REMARK 921   NORMALIZED FREE ENERGY PREDICTED BY IDOCK:   -4.29 KCAL/MOL
REMARK 922        TOTAL FREE ENERGY PREDICTED BY IDOCK:   -6.39 KCAL/MOL
REMARK 923 INTER-LIGAND FREE ENERGY PREDICTED BY IDOCK:   -5.83 KCAL/MOL
REMARK 924 INTRA-LIGAND FREE ENERGY PREDICTED BY IDOCK:   -0.56 KCAL/MOL
REMARK 927      BINDING AFFINITY PREDICTED BY RF-SCORE:    0.00 PKD
ROOT
HETATM    1  C   UNL     1      -8.463  17.831  67.861  1.00  0.00    -0.245 C  
HETATM    2  N   UNL     1      -9.587  18.119  68.759  1.00  0.00    -0.313 NA 
HETATM    3  C   UNL     1      -9.850  19.560  68.762  1.00  0.00    -0.451 C  
ENDROOT
BRANCH   2   4
HETATM    4  C   UNL     1     -10.768  17.341  68.328  1.00  0.00    -0.349 C  
BRANCH   4   5
HETATM    5  C   UNL     1     -10.449  16.011  67.618  1.00  0.00    -0.292 C  
BRANCH   5   6
HETATM    6  C   UNL     1     -10.921  14.828  68.413  1.00  0.00    -0.259 A  
HETATM    7  C   UNL     1     -11.370  14.852  69.721  1.00  0.00    -0.283 A  
HETATM    8  N   UNL     1     -11.658  13.571  70.100  1.00  0.00    -0.509 NA 
HETATM    9  C   UNL     1     -11.429  12.704  69.058  1.00  0.00    -0.303 A  
HETATM   10  H   UNL     1     -11.995  13.298  71.024  1.00  0.00     0.000 HD 
HETATM   11  C   UNL     1     -10.978  13.462  67.980  1.00  0.00    -0.265 A  
HETATM   12  C   UNL     1     -10.671  12.793  66.773  1.00  0.00    -0.278 A  
HETATM   13  C   UNL     1     -10.808  11.394  66.675  1.00  0.00    -0.339 A  
HETATM   14  C   UNL     1     -11.276  10.679  67.787  1.00  0.00    -0.383 A  
HETATM   15  C   UNL     1     -11.584  11.315  68.995  1.00  0.00    -0.386 A  
BRANCH  13  16
HETATM   16  C   UNL     1     -10.469  10.695  65.375  1.00  0.00    -0.184 C  
BRANCH  16  17
HETATM   17  S   UNL     1      -8.969   9.708  65.591  1.00  0.00    -0.184 S  
HETATM   18  O   UNL     1      -8.064   9.964  64.488  1.00  0.00    -0.135 OA 
HETATM   19  O   UNL     1      -9.317   8.359  65.979  1.00  0.00    -0.209 OA 
BRANCH  17  20
HETATM   20  N   UNL     1      -8.235  10.410  66.962  1.00  0.00    -0.122 N  
HETATM   21  C   UNL     1      -7.817   9.405  67.978  1.00  0.00    -0.091 C  
HETATM   22  C   UNL     1      -6.836  10.151  68.861  1.00  0.00    -0.054 C  
HETATM   23  C   UNL     1      -6.100  11.055  67.891  1.00  0.00    -0.049 C  
HETATM   24  C   UNL     1      -7.091  11.339  66.763  1.00  0.00    -0.143 C  
ENDBRANCH  17  20
ENDBRANCH  16  17
ENDBRANCH  13  16
ENDBRANCH   5   6
ENDBRANCH   4   5
ENDBRANCH   2   4
TORSDOF 6
ENDMDL
MODEL      160
REMARK 921   NORMALIZED FREE ENERGY PREDICTED BY IDOCK:   -4.29 KCAL/MOL
REMARK 922        TOTAL FREE ENERGY PREDICTED BY IDOCK:   -6.38 KCAL/MOL
REMARK 923 INTER-LIGAND FREE ENERGY PREDICTED BY IDOCK:   -5.92 KCAL/MOL
REMARK 924 INTRA-LIGAND FREE ENERGY PREDICTED BY IDOCK:   -0.46 KCAL/MOL
REMARK 927      BINDING AFFINITY PREDICTED BY RF-SCORE:    0.00 PKD
ROOT
HETATM    1  C   UNL     1     -12.346  13.885  66.120  1.00  0.00    -0.465 C  
HETATM    2  N   UNL     1     -12.171  14.344  64.737  1.00  0.00    -0.441 NA 
HETATM    3  C   UNL     1     -11.200  15.441  64.708  1.00  0.00    -0.395 C  
ENDROOT
BRANCH   2   4
HETATM    4  C   UNL     1     -11.747  13.207  63.895  1.00  0.00    -0.456 C  
BRANCH   4   5
HETATM    5  C   UNL     1     -11.667  11.850  64.622  1.00  0.00    -0.306 C  
BRANCH   5   6
HETATM    6  C   UNL     1     -10.506  11.028  64.141  1.00  0.00    -0.434 A  
HETATM    7  C   UNL     1     -10.022  10.981  62.847  1.00  0.00    -0.233 A  
HETATM    8  N   UNL     1      -8.995  10.080  62.804  1.00  0.00    -0.239 NA 
HETATM    9  C   UNL     1      -8.777   9.548  64.053  1.00  0.00    -0.216 A  
HETATM   10  H   UNL     1      -8.466   9.837  61.966  1.00  0.00     0.000 HD 
HETATM   11  C   UNL     1      -9.701  10.131  64.918  1.00  0.00    -0.392 A  
HETATM   12  C   UNL     1      -9.680   9.745  66.278  1.00  0.00    -0.295 A  
HETATM   13  C   UNL     1      -8.756   8.785  66.736  1.00  0.00    -0.134 A  
HETATM   14  C   UNL     1      -7.841   8.237  65.826  1.00  0.00    -0.098 A  
HETATM   15  C   UNL     1      -7.841   8.597  64.474  1.00  0.00    -0.132 A  
BRANCH  13  16
HETATM   16  C   UNL     1      -8.753   8.382  68.196  1.00  0.00    -0.143 C  
BRANCH  16  17
HETATM   17  S   UNL     1      -9.798   6.923  68.423  1.00  0.00    -0.146 S  
HETATM   18  O   UNL     1      -9.038   5.733  68.096  1.00  0.00    -0.111 OA 
HETATM   19  O   UNL     1     -11.106   7.159  67.851  1.00  0.00    -0.118 OA 
BRANCH  17  20
HETATM   20  N   UNL     1     -10.033   6.871  70.112  1.00  0.00    -0.178 N  
HETATM   21  C   UNL     1     -11.283   6.162  70.505  1.00  0.00    -0.334 C  
HETATM   22  C   UNL     1     -11.088   5.848  71.975  1.00  0.00    -0.329 C  
HETATM   23  C   UNL     1      -9.608   5.536  72.079  1.00  0.00    -0.177 C  
HETATM   24  C   UNL     1      -8.938   6.345  70.969  1.00  0.00    -0.146 C  
ENDBRANCH  17  20
ENDBRANCH  16  17
ENDBRANCH  13  16
ENDBRANCH   5   6
ENDBRANCH   4   5
ENDBRANCH   2   4
TORSDOF 6
ENDMDL
MODEL      161
REMARK 921   NORMALIZED FREE ENERGY PREDICTED BY IDOCK:   -4.28 KCAL/MOL
REMARK 922        TOTAL FREE ENERGY PREDICTED BY IDOCK:   -6.37 KCAL/MOL
REMARK 923 INTER-LIGAND FREE ENERGY PREDICTED BY IDOCK:   -6.02 KCAL/MOL
REMARK 924 INTRA-LIGAND FREE ENERGY PREDICTED BY IDOCK:   -0.34 KCAL/MOL
REMARK 927      BINDING AFFINITY PREDICTED BY RF-SCORE:    0.00 PKD
ROOT
HETATM    1  C   UNL     1      -6.722  18.089  68.489  1.00  0.00    -0.225 C  
HETATM    2  N   UNL     1      -8.174  17.927  68.351  1.00  0.00    -0.293 NA 
HETATM    3  C   UNL     1      -8.687  18.919  67.404  1.00  0.00    -0.274 C  
ENDROOT
BRANCH   2   4
HETATM    4  C   UNL     1      -8.473  16.545  67.923  1.00  0.00    -0.181 C  
BRANCH   4   5
HETATM    5  C   UNL     1      -9.966  16.239  67.697  1.00  0.00    -0.247 C  
BRANCH   5   6
HETATM    6  C   UNL     1     -10.191  15.455  66.437  1.00  0.00    -0.296 A  
HETATM    7  C   UNL     1     -10.682  15.953  65.244  1.00  0.00    -0.424 A  
HETATM    8  N   UNL     1     -10.788  14.918  64.357  1.00  0.00    -0.592 NA 
HETATM    9  C   UNL     1     -10.354  13.749  64.937  1.00  0.00    -0.398 A  
HETATM   10  H   UNL     1     -11.139  15.001  63.403  1.00  0.00     0.000 HD 
HETATM   11  C   UNL     1      -9.960  14.053  66.238  1.00  0.00    -0.317 A  
HETATM   12  C   UNL     1      -9.467  13.007  67.051  1.00  0.00    -0.237 A  
HETATM   13  C   UNL     1      -9.392  11.690  66.554  1.00  0.00    -0.216 A  
HETATM   14  C   UNL     1      -9.791  11.440  65.233  1.00  0.00    -0.290 A  
HETATM   15  C   UNL     1     -10.286  12.456  64.409  1.00  0.00    -0.370 A  
BRANCH  13  16
HETATM   16  C   UNL     1      -8.865  10.581  67.442  1.00  0.00    -0.132 C  
BRANCH  16  17
HETATM   17  S   UNL     1     -10.253   9.684  68.177  1.00  0.00    -0.200 S  
HETATM   18  O   UNL     1     -11.401   9.770  67.295  1.00  0.00     0.012 OA 
HETATM   19  O   UNL     1     -10.361  10.006  69.582  1.00  0.00    -0.215 OA 
BRANCH  17  20
HETATM   20  N   UNL     1      -9.744   8.057  68.112  1.00  0.00    -0.156 N  
HETATM   21  C   UNL     1     -10.054   7.299  69.355  1.00  0.00    -0.183 C  
HETATM   22  C   UNL     1      -9.935   5.844  68.946  1.00  0.00    -0.201 C  
HETATM   23  C   UNL     1     -10.471   5.828  67.528  1.00  0.00    -0.310 C  
HETATM   24  C   UNL     1     -10.177   7.218  66.963  1.00  0.00    -0.278 C  
ENDBRANCH  17  20
ENDBRANCH  16  17
ENDBRANCH  13  16
ENDBRANCH   5   6
ENDBRANCH   4   5
ENDBRANCH   2   4
TORSDOF 6
ENDMDL
MODEL      162
REMARK 921   NORMALIZED FREE ENERGY PREDICTED BY IDOCK:   -4.24 KCAL/MOL
REMARK 922        TOTAL FREE ENERGY PREDICTED BY IDOCK:   -6.32 KCAL/MOL
REMARK 923 INTER-LIGAND FREE ENERGY PREDICTED BY IDOCK:   -5.66 KCAL/MOL
REMARK 924 INTRA-LIGAND FREE ENERGY PREDICTED BY IDOCK:   -0.66 KCAL/MOL
REMARK 927      BINDING AFFINITY PREDICTED BY RF-SCORE:    0.00 PKD
ROOT
HETATM    1  C   UNL     1     -12.634  14.111  65.304  1.00  0.00    -0.442 C  
HETATM    2  N   UNL     1     -11.443  14.565  64.577  1.00  0.00    -0.367 NA 
HETATM    3  C   UNL     1     -10.902  15.761  65.229  1.00  0.00    -0.395 C  
ENDROOT
BRANCH   2   4
HETATM    4  C   UNL     1     -10.454  13.468  64.525  1.00  0.00    -0.407 C  
BRANCH   4   5
HETATM    5  C   UNL     1     -10.895  12.231  63.717  1.00  0.00    -0.495 C  
BRANCH   5   6
HETATM    6  C   UNL     1      -9.848  11.156  63.730  1.00  0.00    -0.374 A  
HETATM    7  C   UNL     1      -8.951  10.880  62.714  1.00  0.00    -0.305 A  
HETATM    8  N   UNL     1      -8.200   9.799  63.084  1.00  0.00    -0.141 NA 
HETATM    9  C   UNL     1      -8.570   9.370  64.337  1.00  0.00    -0.194 A  
HETATM   10  H   UNL     1      -7.470   9.372  62.514  1.00  0.00     0.000 HD 
HETATM   11  C   UNL     1      -9.593  10.208  64.776  1.00  0.00    -0.378 A  
HETATM   12  C   UNL     1     -10.151   9.972  66.053  1.00  0.00    -0.318 A  
HETATM   13  C   UNL     1      -9.687   8.907  66.851  1.00  0.00    -0.263 A  
HETATM   14  C   UNL     1      -8.648   8.100  66.367  1.00  0.00    -0.150 A  
HETATM   15  C   UNL     1      -8.081   8.308  65.105  1.00  0.00    -0.142 A  
BRANCH  13  16
HETATM   16  C   UNL     1     -10.300   8.667  68.215  1.00  0.00    -0.207 C  
BRANCH  16  17
HETATM   17  S   UNL     1      -9.614   9.846  69.403  1.00  0.00    -0.227 S  
HETATM   18  O   UNL     1     -10.511   9.961  70.536  1.00  0.00    -0.284 OA 
HETATM   19  O   UNL     1      -9.126  11.018  68.710  1.00  0.00    -0.172 OA 
BRANCH  17  20
HETATM   20  N   UNL     1      -8.228   9.045  69.991  1.00  0.00    -0.115 N  
HETATM   21  C   UNL     1      -8.362   7.562  69.978  1.00  0.00    -0.136 C  
HETATM   22  C   UNL     1      -6.938   7.056  70.106  1.00  0.00    -0.065 C  
HETATM   23  C   UNL     1      -6.131   8.060  69.307  1.00  0.00    -0.034 C  
HETATM   24  C   UNL     1      -6.905   9.374  69.397  1.00  0.00    -0.049 C  
ENDBRANCH  17  20
ENDBRANCH  16  17
ENDBRANCH  13  16
ENDBRANCH   5   6
ENDBRANCH   4   5
ENDBRANCH   2   4
TORSDOF 6
ENDMDL
MODEL      163
REMARK 921   NORMALIZED FREE ENERGY PREDICTED BY IDOCK:   -4.24 KCAL/MOL
REMARK 922        TOTAL FREE ENERGY PREDICTED BY IDOCK:   -6.31 KCAL/MOL
REMARK 923 INTER-LIGAND FREE ENERGY PREDICTED BY IDOCK:   -5.80 KCAL/MOL
REMARK 924 INTRA-LIGAND FREE ENERGY PREDICTED BY IDOCK:   -0.51 KCAL/MOL
REMARK 927      BINDING AFFINITY PREDICTED BY RF-SCORE:    0.00 PKD
ROOT
HETATM    1  C   UNL     1     -13.486  12.936  72.225  1.00  0.00    -0.531 C  
HETATM    2  N   UNL     1     -13.683  14.389  72.274  1.00  0.00    -0.429 NA 
HETATM    3  C   UNL     1     -12.852  14.958  73.337  1.00  0.00    -0.515 C  
ENDROOT
BRANCH   2   4
HETATM    4  C   UNL     1     -13.367  14.970  70.952  1.00  0.00    -0.380 C  
BRANCH   4   5
HETATM    5  C   UNL     1     -12.412  14.130  70.082  1.00  0.00    -0.391 C  
BRANCH   5   6
HETATM    6  C   UNL     1     -11.552  14.994  69.205  1.00  0.00    -0.338 A  
HETATM    7  C   UNL     1     -11.786  16.319  68.887  1.00  0.00    -0.160 A  
HETATM    8  N   UNL     1     -10.808  16.734  68.027  1.00  0.00    -0.358 NA 
HETATM    9  C   UNL     1      -9.920  15.712  67.788  1.00  0.00    -0.223 A  
HETATM   10  H   UNL     1     -10.747  17.668  67.620  1.00  0.00     0.000 HD 
HETATM   11  C   UNL     1     -10.351  14.609  68.523  1.00  0.00    -0.238 A  
HETATM   12  C   UNL     1      -9.595  13.417  68.446  1.00  0.00    -0.188 A  
HETATM   13  C   UNL     1      -8.445  13.350  67.636  1.00  0.00    -0.187 A  
HETATM   14  C   UNL     1      -8.048  14.492  66.925  1.00  0.00    -0.015 A  
HETATM   15  C   UNL     1      -8.780  15.683  66.979  1.00  0.00    -0.256 A  
BRANCH  13  16
HETATM   16  C   UNL     1      -7.650  12.062  67.563  1.00  0.00    -0.147 C  
BRANCH  16  17
HETATM   17  S   UNL     1      -8.376  10.973  66.315  1.00  0.00    -0.155 S  
HETATM   18  O   UNL     1      -7.320  10.415  65.493  1.00  0.00    -0.145 OA 
HETATM   19  O   UNL     1      -9.535  11.604  65.722  1.00  0.00    -0.228 OA 
BRANCH  17  20
HETATM   20  N   UNL     1      -8.979   9.670  67.237  1.00  0.00    -0.134 N  
HETATM   21  C   UNL     1     -10.458   9.524  67.144  1.00  0.00    -0.253 C  
HETATM   22  C   UNL     1     -10.727   8.118  67.642  1.00  0.00    -0.203 C  
HETATM   23  C   UNL     1      -9.544   7.324  67.125  1.00  0.00    -0.203 C  
HETATM   24  C   UNL     1      -8.388   8.320  67.037  1.00  0.00    -0.122 C  
ENDBRANCH  17  20
ENDBRANCH  16  17
ENDBRANCH  13  16
ENDBRANCH   5   6
ENDBRANCH   4   5
ENDBRANCH   2   4
TORSDOF 6
ENDMDL
MODEL      164
REMARK 921   NORMALIZED FREE ENERGY PREDICTED BY IDOCK:   -4.23 KCAL/MOL
REMARK 922        TOTAL FREE ENERGY PREDICTED BY IDOCK:   -6.30 KCAL/MOL
REMARK 923 INTER-LIGAND FREE ENERGY PREDICTED BY IDOCK:   -5.80 KCAL/MOL
REMARK 924 INTRA-LIGAND FREE ENERGY PREDICTED BY IDOCK:   -0.50 KCAL/MOL
REMARK 927      BINDING AFFINITY PREDICTED BY RF-SCORE:    0.00 PKD
ROOT
HETATM    1  C   UNL     1     -11.383  16.012  64.458  1.00  0.00    -0.295 C  
HETATM    2  N   UNL     1     -10.612  15.065  65.273  1.00  0.00    -0.365 NA 
HETATM    3  C   UNL     1      -9.450  15.749  65.844  1.00  0.00    -0.342 C  
ENDROOT
BRANCH   2   4
HETATM    4  C   UNL     1     -11.488  14.494  66.317  1.00  0.00    -0.358 C  
BRANCH   4   5
HETATM    5  C   UNL     1     -12.345  13.295  65.867  1.00  0.00    -0.479 C  
BRANCH   5   6
HETATM    6  C   UNL     1     -11.618  12.432  64.877  1.00  0.00    -0.392 A  
HETATM    7  C   UNL     1     -11.794  12.440  63.505  1.00  0.00    -0.521 A  
HETATM    8  N   UNL     1     -10.989  11.478  62.962  1.00  0.00    -0.783 NA 
HETATM    9  C   UNL     1     -10.269  10.848  63.950  1.00  0.00    -0.354 A  
HETATM   10  H   UNL     1     -10.932  11.258  61.967  1.00  0.00     0.000 HD 
HETATM   11  C   UNL     1     -10.631  11.431  65.162  1.00  0.00    -0.352 A  
HETATM   12  C   UNL     1     -10.020  10.954  66.344  1.00  0.00    -0.266 A  
HETATM   13  C   UNL     1      -9.080   9.905  66.290  1.00  0.00    -0.187 A  
HETATM   14  C   UNL     1      -8.743   9.360  65.043  1.00  0.00    -0.216 A  
HETATM   15  C   UNL     1      -9.335   9.811  63.858  1.00  0.00    -0.195 A  
BRANCH  13  16
HETATM   16  C   UNL     1      -8.440   9.403  67.568  1.00  0.00    -0.122 C  
BRANCH  16  17
HETATM   17  S   UNL     1      -7.227  10.611  68.152  1.00  0.00    -0.088 S  
HETATM   18  O   UNL     1      -7.920  11.775  68.668  1.00  0.00    -0.147 OA 
HETATM   19  O   UNL     1      -6.157  10.741  67.188  1.00  0.00    -0.057 OA 
BRANCH  17  20
HETATM   20  N   UNL     1      -6.536   9.845  69.511  1.00  0.00    -0.047 N  
HETATM   21  C   UNL     1      -7.552   9.262  70.430  1.00  0.00    -0.127 C  
HETATM   22  C   UNL     1      -6.766   8.292  71.289  1.00  0.00    -0.050 C  
HETATM   23  C   UNL     1      -5.742   7.716  70.331  1.00  0.00    -0.023 C  
HETATM   24  C   UNL     1      -5.491   8.810  69.294  1.00  0.00    -0.035 C  
ENDBRANCH  17  20
ENDBRANCH  16  17
ENDBRANCH  13  16
ENDBRANCH   5   6
ENDBRANCH   4   5
ENDBRANCH   2   4
TORSDOF 6
ENDMDL
MODEL      165
REMARK 921   NORMALIZED FREE ENERGY PREDICTED BY IDOCK:   -4.22 KCAL/MOL
REMARK 922        TOTAL FREE ENERGY PREDICTED BY IDOCK:   -6.29 KCAL/MOL
REMARK 923 INTER-LIGAND FREE ENERGY PREDICTED BY IDOCK:   -5.56 KCAL/MOL
REMARK 924 INTRA-LIGAND FREE ENERGY PREDICTED BY IDOCK:   -0.74 KCAL/MOL
REMARK 927      BINDING AFFINITY PREDICTED BY RF-SCORE:    0.00 PKD
ROOT
HETATM    1  C   UNL     1     -12.929   7.964  71.379  1.00  0.00    -0.271 C  
HETATM    2  N   UNL     1     -12.044   8.765  72.233  1.00  0.00    -0.368 NA 
HETATM    3  C   UNL     1     -10.934   7.931  72.701  1.00  0.00    -0.378 C  
ENDROOT
BRANCH   2   4
HETATM    4  C   UNL     1     -11.570   9.943  71.476  1.00  0.00    -0.301 C  
BRANCH   4   5
HETATM    5  C   UNL     1     -11.229   9.675  69.997  1.00  0.00    -0.271 C  
BRANCH   5   6
HETATM    6  C   UNL     1     -11.453  10.890  69.144  1.00  0.00    -0.373 A  
HETATM    7  C   UNL     1     -12.093  12.052  69.534  1.00  0.00    -0.212 A  
HETATM    8  N   UNL     1     -12.141  12.898  68.462  1.00  0.00    -0.216 NA 
HETATM    9  C   UNL     1     -11.524  12.323  67.376  1.00  0.00    -0.352 A  
HETATM   10  H   UNL     1     -12.573  13.823  68.466  1.00  0.00     0.000 HD 
HETATM   11  C   UNL     1     -11.070  11.068  67.774  1.00  0.00    -0.356 A  
HETATM   12  C   UNL     1     -10.391  10.269  66.825  1.00  0.00    -0.288 A  
HETATM   13  C   UNL     1     -10.195  10.733  65.509  1.00  0.00    -0.330 A  
HETATM   14  C   UNL     1     -10.662  12.009  65.163  1.00  0.00    -0.332 A  
HETATM   15  C   UNL     1     -11.340  12.819  66.080  1.00  0.00    -0.371 A  
BRANCH  13  16
HETATM   16  C   UNL     1      -9.470   9.861  64.505  1.00  0.00    -0.264 C  
BRANCH  16  17
HETATM   17  S   UNL     1      -7.687   9.959  64.795  1.00  0.00    -0.142 S  
HETATM   18  O   UNL     1      -7.424  10.923  65.845  1.00  0.00    -0.130 OA 
HETATM   19  O   UNL     1      -6.984  10.014  63.532  1.00  0.00    -0.127 OA 
BRANCH  17  20
HETATM   20  N   UNL     1      -7.317   8.435  65.466  1.00  0.00    -0.082 N  
HETATM   21  C   UNL     1      -7.104   8.482  66.939  1.00  0.00    -0.075 C  
HETATM   22  C   UNL     1      -7.226   7.037  67.382  1.00  0.00    -0.090 C  
HETATM   23  C   UNL     1      -8.308   6.479  66.479  1.00  0.00    -0.116 C  
HETATM   24  C   UNL     1      -8.225   7.291  65.188  1.00  0.00    -0.110 C  
ENDBRANCH  17  20
ENDBRANCH  16  17
ENDBRANCH  13  16
ENDBRANCH   5   6
ENDBRANCH   4   5
ENDBRANCH   2   4
TORSDOF 6
ENDMDL
MODEL      166
REMARK 921   NORMALIZED FREE ENERGY PREDICTED BY IDOCK:   -4.20 KCAL/MOL
REMARK 922        TOTAL FREE ENERGY PREDICTED BY IDOCK:   -6.27 KCAL/MOL
REMARK 923 INTER-LIGAND FREE ENERGY PREDICTED BY IDOCK:   -5.79 KCAL/MOL
REMARK 924 INTRA-LIGAND FREE ENERGY PREDICTED BY IDOCK:   -0.48 KCAL/MOL
REMARK 927      BINDING AFFINITY PREDICTED BY RF-SCORE:    0.00 PKD
ROOT
HETATM    1  C   UNL     1     -13.412   7.546  71.305  1.00  0.00    -0.253 C  
HETATM    2  N   UNL     1     -12.437   7.556  72.402  1.00  0.00    -0.107 NA 
HETATM    3  C   UNL     1     -11.644   6.325  72.359  1.00  0.00    -0.282 C  
ENDROOT
BRANCH   2   4
HETATM    4  C   UNL     1     -11.592   8.763  72.293  1.00  0.00    -0.321 C  
BRANCH   4   5
HETATM    5  C   UNL     1     -11.204   9.161  70.856  1.00  0.00    -0.359 C  
BRANCH   5   6
HETATM    6  C   UNL     1      -9.725   9.380  70.718  1.00  0.00    -0.332 A  
HETATM    7  C   UNL     1      -8.748   8.901  71.571  1.00  0.00    -0.162 A  
HETATM    8  N   UNL     1      -7.535   9.356  71.136  1.00  0.00    -0.326 NA 
HETATM    9  C   UNL     1      -7.692  10.110  69.996  1.00  0.00    -0.136 A  
HETATM   10  H   UNL     1      -6.642   9.165  71.590  1.00  0.00     0.000 HD 
HETATM   11  C   UNL     1      -9.053  10.134  69.700  1.00  0.00    -0.195 A  
HETATM   12  C   UNL     1      -9.477  10.853  68.559  1.00  0.00    -0.185 A  
HETATM   13  C   UNL     1      -8.543  11.535  67.755  1.00  0.00    -0.138 A  
HETATM   14  C   UNL     1      -7.183  11.470  68.091  1.00  0.00    -0.080 A  
HETATM   15  C   UNL     1      -6.736  10.770  69.217  1.00  0.00    -0.081 A  
BRANCH  13  16
HETATM   16  C   UNL     1      -9.017  12.303  66.538  1.00  0.00    -0.161 C  
BRANCH  16  17
HETATM   17  S   UNL     1      -9.554  13.957  67.038  1.00  0.00    -0.262 S  
HETATM   18  O   UNL     1      -8.605  14.937  66.548  1.00  0.00    -0.230 OA 
HETATM   19  O   UNL     1      -9.971  13.943  68.423  1.00  0.00    -0.225 OA 
BRANCH  17  20
HETATM   20  N   UNL     1     -10.976  14.197  66.128  1.00  0.00    -0.305 N  
HETATM   21  C   UNL     1     -10.725  14.265  64.662  1.00  0.00    -0.365 C  
HETATM   22  C   UNL     1     -12.089  14.042  64.038  1.00  0.00    -0.413 C  
HETATM   23  C   UNL     1     -12.742  13.033  64.962  1.00  0.00    -0.475 C  
HETATM   24  C   UNL     1     -12.124  13.275  66.338  1.00  0.00    -0.394 C  
ENDBRANCH  17  20
ENDBRANCH  16  17
ENDBRANCH  13  16
ENDBRANCH   5   6
ENDBRANCH   4   5
ENDBRANCH   2   4
TORSDOF 6
ENDMDL
MODEL      167
REMARK 921   NORMALIZED FREE ENERGY PREDICTED BY IDOCK:   -4.18 KCAL/MOL
REMARK 922        TOTAL FREE ENERGY PREDICTED BY IDOCK:   -6.23 KCAL/MOL
REMARK 923 INTER-LIGAND FREE ENERGY PREDICTED BY IDOCK:   -5.24 KCAL/MOL
REMARK 924 INTRA-LIGAND FREE ENERGY PREDICTED BY IDOCK:   -0.99 KCAL/MOL
REMARK 927      BINDING AFFINITY PREDICTED BY RF-SCORE:    0.00 PKD
ROOT
HETATM    1  C   UNL     1     -11.353  14.114  67.330  1.00  0.00    -0.332 C  
HETATM    2  N   UNL     1     -10.763  13.897  68.656  1.00  0.00    -0.255 NA 
HETATM    3  C   UNL     1     -11.593  14.552  69.670  1.00  0.00    -0.299 C  
ENDROOT
BRANCH   2   4
HETATM    4  C   UNL     1     -10.631  12.446  68.900  1.00  0.00    -0.126 C  
BRANCH   4   5
HETATM    5  C   UNL     1     -11.957  11.659  68.893  1.00  0.00    -0.355 C  
BRANCH   5   6
HETATM    6  C   UNL     1     -12.146  10.873  70.158  1.00  0.00    -0.431 A  
HETATM    7  C   UNL     1     -12.880  11.270  71.261  1.00  0.00    -0.389 A  
HETATM    8  N   UNL     1     -12.766  10.305  72.223  1.00  0.00    -0.241 NA 
HETATM    9  C   UNL     1     -11.988   9.268  71.766  1.00  0.00    -0.385 A  
HETATM   10  H   UNL     1     -13.197  10.348  73.147  1.00  0.00     0.000 HD 
HETATM   11  C   UNL     1     -11.593   9.587  70.469  1.00  0.00    -0.316 A  
HETATM   12  C   UNL     1     -10.775   8.668  69.772  1.00  0.00    -0.215 A  
HETATM   13  C   UNL     1     -10.364   7.468  70.386  1.00  0.00    -0.216 A  
HETATM   14  C   UNL     1     -10.799   7.190  71.690  1.00  0.00    -0.250 A  
HETATM   15  C   UNL     1     -11.605   8.084  72.403  1.00  0.00    -0.450 A  
BRANCH  13  16
HETATM   16  C   UNL     1      -9.485   6.497  69.625  1.00  0.00    -0.145 C  
BRANCH  16  17
HETATM   17  S   UNL     1      -7.772   7.077  69.661  1.00  0.00    -0.112 S  
HETATM   18  O   UNL     1      -6.879   5.938  69.576  1.00  0.00    -0.057 OA 
HETATM   19  O   UNL     1      -7.612   8.081  70.690  1.00  0.00    -0.073 OA 
BRANCH  17  20
HETATM   20  N   UNL     1      -7.607   7.902  68.178  1.00  0.00    -0.113 N  
HETATM   21  C   UNL     1      -8.612   7.483  67.162  1.00  0.00    -0.121 C  
HETATM   22  C   UNL     1      -8.585   8.591  66.128  1.00  0.00    -0.154 C  
HETATM   23  C   UNL     1      -8.364   9.843  66.954  1.00  0.00    -0.124 C  
HETATM   24  C   UNL     1      -7.582   9.389  68.186  1.00  0.00    -0.083 C  
ENDBRANCH  17  20
ENDBRANCH  16  17
ENDBRANCH  13  16
ENDBRANCH   5   6
ENDBRANCH   4   5
ENDBRANCH   2   4
TORSDOF 6
ENDMDL
MODEL      168
REMARK 921   NORMALIZED FREE ENERGY PREDICTED BY IDOCK:   -4.17 KCAL/MOL
REMARK 922        TOTAL FREE ENERGY PREDICTED BY IDOCK:   -6.23 KCAL/MOL
REMARK 923 INTER-LIGAND FREE ENERGY PREDICTED BY IDOCK:   -5.77 KCAL/MOL
REMARK 924 INTRA-LIGAND FREE ENERGY PREDICTED BY IDOCK:   -0.45 KCAL/MOL
REMARK 927      BINDING AFFINITY PREDICTED BY RF-SCORE:    0.00 PKD
ROOT
HETATM    1  C   UNL     1     -10.965  11.726  64.553  1.00  0.00    -0.324 C  
HETATM    2  N   UNL     1     -10.324  12.485  65.633  1.00  0.00    -0.266 NA 
HETATM    3  C   UNL     1     -11.339  12.909  66.599  1.00  0.00    -0.317 C  
ENDROOT
BRANCH   2   4
HETATM    4  C   UNL     1      -9.276  11.652  66.259  1.00  0.00    -0.217 C  
BRANCH   4   5
HETATM    5  C   UNL     1      -9.700  10.937  67.557  1.00  0.00    -0.187 C  
BRANCH   5   6
HETATM    6  C   UNL     1      -9.921   9.468  67.337  1.00  0.00    -0.241 A  
HETATM    7  C   UNL     1      -9.683   8.776  66.164  1.00  0.00    -0.250 A  
HETATM    8  N   UNL     1     -10.057   7.474  66.350  1.00  0.00    -0.476 NA 
HETATM    9  C   UNL     1     -10.516   7.290  67.633  1.00  0.00    -0.242 A  
HETATM   10  H   UNL     1     -10.002   6.744  65.639  1.00  0.00     0.000 HD 
HETATM   11  C   UNL     1     -10.432   8.519  68.283  1.00  0.00    -0.222 A  
HETATM   12  C   UNL     1     -10.849   8.593  69.632  1.00  0.00    -0.163 A  
HETATM   13  C   UNL     1     -11.348   7.452  70.290  1.00  0.00    -0.244 A  
HETATM   14  C   UNL     1     -11.402   6.236  69.593  1.00  0.00    -0.492 A  
HETATM   15  C   UNL     1     -10.999   6.135  68.257  1.00  0.00    -0.397 A  
BRANCH  13  16
HETATM   16  C   UNL     1     -11.795   7.552  71.734  1.00  0.00    -0.294 C  
BRANCH  16  17
HETATM   17  S   UNL     1     -10.787   6.453  72.757  1.00  0.00    -0.258 S  
HETATM   18  O   UNL     1     -11.336   5.112  72.706  1.00  0.00    -0.271 OA 
HETATM   19  O   UNL     1     -10.483   7.092  74.018  1.00  0.00    -0.366 OA 
BRANCH  17  20
HETATM   20  N   UNL     1      -9.309   6.377  71.908  1.00  0.00    -0.153 N  
HETATM   21  C   UNL     1      -8.259   7.261  72.485  1.00  0.00    -0.107 C  
HETATM   22  C   UNL     1      -6.964   6.737  71.896  1.00  0.00    -0.070 C  
HETATM   23  C   UNL     1      -7.180   5.238  71.837  1.00  0.00    -0.085 C  
HETATM   24  C   UNL     1      -8.687   5.047  71.674  1.00  0.00    -0.132 C  
ENDBRANCH  17  20
ENDBRANCH  16  17
ENDBRANCH  13  16
ENDBRANCH   5   6
ENDBRANCH   4   5
ENDBRANCH   2   4
TORSDOF 6
ENDMDL
MODEL      169
REMARK 921   NORMALIZED FREE ENERGY PREDICTED BY IDOCK:   -4.17 KCAL/MOL
REMARK 922        TOTAL FREE ENERGY PREDICTED BY IDOCK:   -6.22 KCAL/MOL
REMARK 923 INTER-LIGAND FREE ENERGY PREDICTED BY IDOCK:   -5.67 KCAL/MOL
REMARK 924 INTRA-LIGAND FREE ENERGY PREDICTED BY IDOCK:   -0.55 KCAL/MOL
REMARK 927      BINDING AFFINITY PREDICTED BY RF-SCORE:    0.00 PKD
ROOT
HETATM    1  C   UNL     1     -12.189  14.689  64.121  1.00  0.00    -0.315 C  
HETATM    2  N   UNL     1     -12.868  13.727  64.997  1.00  0.00    -0.735 NA 
HETATM    3  C   UNL     1     -12.621  12.368  64.511  1.00  0.00    -0.391 C  
ENDROOT
BRANCH   2   4
HETATM    4  C   UNL     1     -12.395  13.914  66.385  1.00  0.00    -0.426 C  
BRANCH   4   5
HETATM    5  C   UNL     1     -11.780  12.661  67.039  1.00  0.00    -0.438 C  
BRANCH   5   6
HETATM    6  C   UNL     1     -10.280  12.725  67.064  1.00  0.00    -0.245 A  
HETATM    7  C   UNL     1      -9.504  13.804  66.680  1.00  0.00    -0.279 A  
HETATM    8  N   UNL     1      -8.189  13.453  66.800  1.00  0.00    -0.406 NA 
HETATM    9  C   UNL     1      -8.082  12.168  67.279  1.00  0.00    -0.176 A  
HETATM   10  H   UNL     1      -7.400  14.057  66.569  1.00  0.00     0.000 HD 
HETATM   11  C   UNL     1      -9.376  11.687  67.467  1.00  0.00    -0.168 A  
HETATM   12  C   UNL     1      -9.537  10.372  67.960  1.00  0.00    -0.156 A  
HETATM   13  C   UNL     1      -8.412   9.570  68.239  1.00  0.00    -0.119 A  
HETATM   14  C   UNL     1      -7.131  10.106  68.042  1.00  0.00    -0.084 A  
HETATM   15  C   UNL     1      -6.943  11.403  67.552  1.00  0.00    -0.101 A  
BRANCH  13  16
HETATM   16  C   UNL     1      -8.605   8.162  68.762  1.00  0.00    -0.127 C  
BRANCH  16  17
HETATM   17  S   UNL     1      -7.907   8.033  70.426  1.00  0.00    -0.093 S  
HETATM   18  O   UNL     1      -8.119   9.282  71.132  1.00  0.00    -0.298 OA 
HETATM   19  O   UNL     1      -6.600   7.416  70.367  1.00  0.00    -0.045 OA 
BRANCH  17  20
HETATM   20  N   UNL     1      -8.923   6.895  71.188  1.00  0.00    -0.143 N  
HETATM   21  C   UNL     1     -10.368   7.238  71.078  1.00  0.00    -0.199 C  
HETATM   22  C   UNL     1     -11.086   5.944  71.408  1.00  0.00    -0.313 C  
HETATM   23  C   UNL     1     -10.194   4.878  70.802  1.00  0.00    -0.276 C  
HETATM   24  C   UNL     1      -8.782   5.459  70.832  1.00  0.00    -0.134 C  
ENDBRANCH  17  20
ENDBRANCH  16  17
ENDBRANCH  13  16
ENDBRANCH   5   6
ENDBRANCH   4   5
ENDBRANCH   2   4
TORSDOF 6
ENDMDL
MODEL      170
REMARK 921   NORMALIZED FREE ENERGY PREDICTED BY IDOCK:   -4.16 KCAL/MOL
REMARK 922        TOTAL FREE ENERGY PREDICTED BY IDOCK:   -6.21 KCAL/MOL
REMARK 923 INTER-LIGAND FREE ENERGY PREDICTED BY IDOCK:   -5.92 KCAL/MOL
REMARK 924 INTRA-LIGAND FREE ENERGY PREDICTED BY IDOCK:   -0.28 KCAL/MOL
REMARK 927      BINDING AFFINITY PREDICTED BY RF-SCORE:    0.00 PKD
ROOT
HETATM    1  C   UNL     1     -10.733  13.829  68.933  1.00  0.00    -0.227 C  
HETATM    2  N   UNL     1     -11.866  12.901  68.827  1.00  0.00    -0.319 NA 
HETATM    3  C   UNL     1     -11.616  11.950  67.743  1.00  0.00    -0.323 C  
ENDROOT
BRANCH   2   4
HETATM    4  C   UNL     1     -12.064  12.223  70.125  1.00  0.00    -0.287 C  
BRANCH   4   5
HETATM    5  C   UNL     1     -13.013  11.009  70.089  1.00  0.00     0.004 C  
BRANCH   5   6
HETATM    6  C   UNL     1     -12.645   9.983  71.121  1.00  0.00    -0.480 A  
HETATM    7  C   UNL     1     -13.502   9.413  72.045  1.00  0.00    -0.449 A  
HETATM    8  N   UNL     1     -12.779   8.566  72.838  1.00  0.00    -0.658 NA 
HETATM    9  C   UNL     1     -11.463   8.551  72.439  1.00  0.00    -0.349 A  
HETATM   10  H   UNL     1     -13.160   8.024  73.614  1.00  0.00     0.000 HD 
HETATM   11  C   UNL     1     -11.348   9.419  71.356  1.00  0.00    -0.451 A  
HETATM   12  C   UNL     1     -10.077   9.579  70.758  1.00  0.00    -0.352 A  
HETATM   13  C   UNL     1      -8.958   8.885  71.259  1.00  0.00    -0.312 A  
HETATM   14  C   UNL     1      -9.130   8.014  72.345  1.00  0.00    -0.254 A  
HETATM   15  C   UNL     1     -10.375   7.840  72.958  1.00  0.00    -0.410 A  
BRANCH  13  16
HETATM   16  C   UNL     1      -7.603   9.072  70.608  1.00  0.00    -0.119 C  
BRANCH  16  17
HETATM   17  S   UNL     1      -7.736   8.754  68.832  1.00  0.00    -0.097 S  
HETATM   18  O   UNL     1      -6.421   8.456  68.299  1.00  0.00    -0.057 OA 
HETATM   19  O   UNL     1      -8.588   9.746  68.215  1.00  0.00    -0.117 OA 
BRANCH  17  20
HETATM   20  N   UNL     1      -8.605   7.288  68.762  1.00  0.00    -0.129 N  
HETATM   21  C   UNL     1      -9.713   7.314  67.768  1.00  0.00    -0.140 C  
HETATM   22  C   UNL     1     -10.054   5.853  67.550  1.00  0.00    -0.197 C  
HETATM   23  C   UNL     1      -8.709   5.158  67.628  1.00  0.00    -0.103 C  
HETATM   24  C   UNL     1      -7.854   6.022  68.554  1.00  0.00    -0.100 C  
ENDBRANCH  17  20
ENDBRANCH  16  17
ENDBRANCH  13  16
ENDBRANCH   5   6
ENDBRANCH   4   5
ENDBRANCH   2   4
TORSDOF 6
ENDMDL
MODEL      171
REMARK 921   NORMALIZED FREE ENERGY PREDICTED BY IDOCK:   -4.15 KCAL/MOL
REMARK 922        TOTAL FREE ENERGY PREDICTED BY IDOCK:   -6.20 KCAL/MOL
REMARK 923 INTER-LIGAND FREE ENERGY PREDICTED BY IDOCK:   -6.05 KCAL/MOL
REMARK 924 INTRA-LIGAND FREE ENERGY PREDICTED BY IDOCK:   -0.15 KCAL/MOL
REMARK 927      BINDING AFFINITY PREDICTED BY RF-SCORE:    0.00 PKD
ROOT
HETATM    1  C   UNL     1     -10.008   4.820  65.905  1.00  0.00    -0.228 C  
HETATM    2  N   UNL     1      -9.355   6.009  66.464  1.00  0.00    -0.149 NA 
HETATM    3  C   UNL     1      -8.671   5.650  67.708  1.00  0.00    -0.107 C  
ENDROOT
BRANCH   2   4
HETATM    4  C   UNL     1      -8.424   6.571  65.462  1.00  0.00    -0.136 C  
BRANCH   4   5
HETATM    5  C   UNL     1      -8.057   8.053  65.670  1.00  0.00    -0.121 C  
BRANCH   5   6
HETATM    6  C   UNL     1      -8.750   8.943  64.680  1.00  0.00    -0.138 A  
HETATM    7  C   UNL     1      -8.592   8.912  63.306  1.00  0.00    -0.102 A  
HETATM    8  N   UNL     1      -9.352   9.909  62.762  1.00  0.00    -0.413 NA 
HETATM    9  C   UNL     1     -10.027  10.585  63.752  1.00  0.00    -0.258 A  
HETATM   10  H   UNL     1      -9.410  10.122  61.766  1.00  0.00     0.000 HD 
HETATM   11  C   UNL     1      -9.682   9.996  64.966  1.00  0.00    -0.386 A  
HETATM   12  C   UNL     1     -10.253  10.516  66.150  1.00  0.00    -0.299 A  
HETATM   13  C   UNL     1     -11.138  11.611  66.096  1.00  0.00    -0.335 A  
HETATM   14  C   UNL     1     -11.461  12.161  64.847  1.00  0.00    -0.379 A  
HETATM   15  C   UNL     1     -10.907  11.668  63.660  1.00  0.00    -0.503 A  
BRANCH  13  16
HETATM   16  C   UNL     1     -11.736  12.158  67.375  1.00  0.00    -0.304 C  
BRANCH  16  17
HETATM   17  S   UNL     1     -11.644  13.964  67.363  1.00  0.00    -0.390 S  
HETATM   18  O   UNL     1     -11.793  14.461  68.717  1.00  0.00    -0.309 OA 
HETATM   19  O   UNL     1     -12.441  14.492  66.278  1.00  0.00    -0.316 OA 
BRANCH  17  20
HETATM   20  N   UNL     1     -10.021  14.269  66.936  1.00  0.00    -0.257 N  
HETATM   21  C   UNL     1      -9.818  15.618  66.338  1.00  0.00    -0.274 C  
HETATM   22  C   UNL     1      -8.324  15.852  66.440  1.00  0.00    -0.310 C  
HETATM   23  C   UNL     1      -7.951  15.205  67.759  1.00  0.00    -0.155 C  
HETATM   24  C   UNL     1      -8.964  14.079  67.964  1.00  0.00    -0.182 C  
ENDBRANCH  17  20
ENDBRANCH  16  17
ENDBRANCH  13  16
ENDBRANCH   5   6
ENDBRANCH   4   5
ENDBRANCH   2   4
TORSDOF 6
ENDMDL
MODEL      172
REMARK 921   NORMALIZED FREE ENERGY PREDICTED BY IDOCK:   -4.15 KCAL/MOL
REMARK 922        TOTAL FREE ENERGY PREDICTED BY IDOCK:   -6.20 KCAL/MOL
REMARK 923 INTER-LIGAND FREE ENERGY PREDICTED BY IDOCK:   -5.77 KCAL/MOL
REMARK 924 INTRA-LIGAND FREE ENERGY PREDICTED BY IDOCK:   -0.43 KCAL/MOL
REMARK 927      BINDING AFFINITY PREDICTED BY RF-SCORE:    0.00 PKD
ROOT
HETATM    1  C   UNL     1      -8.664  17.839  67.833  1.00  0.00    -0.251 C  
HETATM    2  N   UNL     1     -10.093  18.128  68.000  1.00  0.00    -0.347 NA 
HETATM    3  C   UNL     1     -10.424  19.368  67.293  1.00  0.00    -0.467 C  
ENDROOT
BRANCH   2   4
HETATM    4  C   UNL     1     -10.884  16.981  67.508  1.00  0.00    -0.203 C  
BRANCH   4   5
HETATM    5  C   UNL     1     -10.462  15.609  68.068  1.00  0.00    -0.263 C  
BRANCH   5   6
HETATM    6  C   UNL     1     -10.194  14.618  66.972  1.00  0.00    -0.261 A  
HETATM    7  C   UNL     1     -10.266  14.867  65.613  1.00  0.00    -0.358 A  
HETATM    8  N   UNL     1     -10.004  13.702  64.948  1.00  0.00    -0.618 NA 
HETATM    9  C   UNL     1      -9.739  12.693  65.844  1.00  0.00    -0.207 A  
HETATM   10  H   UNL     1     -10.005  13.597  63.933  1.00  0.00     0.000 HD 
HETATM   11  C   UNL     1      -9.837  13.237  67.122  1.00  0.00    -0.237 A  
HETATM   12  C   UNL     1      -9.604  12.391  68.230  1.00  0.00    -0.211 A  
HETATM   13  C   UNL     1      -9.294  11.030  68.038  1.00  0.00    -0.163 A  
HETATM   14  C   UNL     1      -9.196  10.535  66.730  1.00  0.00    -0.175 A  
HETATM   15  C   UNL     1      -9.426  11.349  65.615  1.00  0.00    -0.253 A  
BRANCH  13  16
HETATM   16  C   UNL     1      -9.052  10.137  69.238  1.00  0.00    -0.198 C  
BRANCH  16  17
HETATM   17  S   UNL     1     -10.549   9.189  69.599  1.00  0.00    -0.225 S  
HETATM   18  O   UNL     1     -10.810   8.271  68.507  1.00  0.00    -0.069 OA 
HETATM   19  O   UNL     1     -11.581  10.069  70.103  1.00  0.00    -0.258 OA 
BRANCH  17  20
HETATM   20  N   UNL     1     -10.085   8.214  70.919  1.00  0.00    -0.187 N  
HETATM   21  C   UNL     1     -11.245   7.653  71.665  1.00  0.00    -0.247 C  
HETATM   22  C   UNL     1     -10.653   6.517  72.477  1.00  0.00    -0.240 C  
HETATM   23  C   UNL     1      -9.594   5.937  71.560  1.00  0.00    -0.175 C  
HETATM   24  C   UNL     1      -9.129   7.100  70.684  1.00  0.00    -0.158 C  
ENDBRANCH  17  20
ENDBRANCH  16  17
ENDBRANCH  13  16
ENDBRANCH   5   6
ENDBRANCH   4   5
ENDBRANCH   2   4
TORSDOF 6
ENDMDL
MODEL      173
REMARK 921   NORMALIZED FREE ENERGY PREDICTED BY IDOCK:   -4.13 KCAL/MOL
REMARK 922        TOTAL FREE ENERGY PREDICTED BY IDOCK:   -6.16 KCAL/MOL
REMARK 923 INTER-LIGAND FREE ENERGY PREDICTED BY IDOCK:   -5.93 KCAL/MOL
REMARK 924 INTRA-LIGAND FREE ENERGY PREDICTED BY IDOCK:   -0.23 KCAL/MOL
REMARK 927      BINDING AFFINITY PREDICTED BY RF-SCORE:    0.00 PKD
ROOT
HETATM    1  C   UNL     1     -11.046  15.452  67.338  1.00  0.00    -0.311 C  
HETATM    2  N   UNL     1     -12.147  14.504  67.544  1.00  0.00    -0.326 NA 
HETATM    3  C   UNL     1     -11.763  13.190  67.022  1.00  0.00    -0.377 C  
ENDROOT
BRANCH   2   4
HETATM    4  C   UNL     1     -12.485  14.452  68.982  1.00  0.00     0.064 C  
BRANCH   4   5
HETATM    5  C   UNL     1     -11.549  13.579  69.840  1.00  0.00    -0.271 C  
BRANCH   5   6
HETATM    6  C   UNL     1     -12.319  12.647  70.731  1.00  0.00    -0.372 A  
HETATM    7  C   UNL     1     -13.292  13.011  71.645  1.00  0.00    -0.292 A  
HETATM    8  N   UNL     1     -13.715  11.885  72.294  1.00  0.00    -0.394 NA 
HETATM    9  C   UNL     1     -13.055  10.781  71.810  1.00  0.00    -0.468 A  
HETATM   10  H   UNL     1     -14.420  11.867  73.032  1.00  0.00     0.000 HD 
HETATM   11  C   UNL     1     -12.180  11.222  70.819  1.00  0.00    -0.479 A  
HETATM   12  C   UNL     1     -11.378  10.264  70.158  1.00  0.00    -0.388 A  
HETATM   13  C   UNL     1     -11.457   8.901  70.508  1.00  0.00    -0.231 A  
HETATM   14  C   UNL     1     -12.361   8.508  71.505  1.00  0.00    -0.354 A  
HETATM   15  C   UNL     1     -13.164   9.436  72.177  1.00  0.00    -0.541 A  
BRANCH  13  16
HETATM   16  C   UNL     1     -10.586   7.890  69.792  1.00  0.00    -0.242 C  
BRANCH  16  17
HETATM   17  S   UNL     1      -8.844   8.312  70.035  1.00  0.00    -0.135 S  
HETATM   18  O   UNL     1      -8.626   9.691  69.646  1.00  0.00    -0.153 OA 
HETATM   19  O   UNL     1      -8.003   7.248  69.531  1.00  0.00    -0.122 OA 
BRANCH  17  20
HETATM   20  N   UNL     1      -8.667   8.278  71.731  1.00  0.00    -0.147 N  
HETATM   21  C   UNL     1      -9.073   6.979  72.334  1.00  0.00    -0.132 C  
HETATM   22  C   UNL     1      -8.450   6.997  73.716  1.00  0.00    -0.164 C  
HETATM   23  C   UNL     1      -7.127   7.705  73.501  1.00  0.00    -0.105 C  
HETATM   24  C   UNL     1      -7.353   8.648  72.321  1.00  0.00     0.006 C  
ENDBRANCH  17  20
ENDBRANCH  16  17
ENDBRANCH  13  16
ENDBRANCH   5   6
ENDBRANCH   4   5
ENDBRANCH   2   4
TORSDOF 6
ENDMDL
MODEL      174
REMARK 921   NORMALIZED FREE ENERGY PREDICTED BY IDOCK:   -4.12 KCAL/MOL
REMARK 922        TOTAL FREE ENERGY PREDICTED BY IDOCK:   -6.15 KCAL/MOL
REMARK 923 INTER-LIGAND FREE ENERGY PREDICTED BY IDOCK:   -5.61 KCAL/MOL
REMARK 924 INTRA-LIGAND FREE ENERGY PREDICTED BY IDOCK:   -0.54 KCAL/MOL
REMARK 927      BINDING AFFINITY PREDICTED BY RF-SCORE:    0.00 PKD
ROOT
HETATM    1  C   UNL     1      -8.796  17.121  67.782  1.00  0.00    -0.225 C  
HETATM    2  N   UNL     1     -10.079  17.519  68.373  1.00  0.00    -0.335 NA 
HETATM    3  C   UNL     1     -10.685  18.572  67.556  1.00  0.00    -0.377 C  
ENDROOT
BRANCH   2   4
HETATM    4  C   UNL     1     -10.953  16.332  68.486  1.00  0.00    -0.345 C  
BRANCH   4   5
HETATM    5  C   UNL     1     -10.217  15.001  68.732  1.00  0.00    -0.235 C  
BRANCH   5   6
HETATM    6  C   UNL     1     -10.773  13.892  67.885  1.00  0.00    -0.248 A  
HETATM    7  C   UNL     1     -11.999  13.893  67.245  1.00  0.00    -0.411 A  
HETATM    8  N   UNL     1     -12.160  12.687  66.621  1.00  0.00    -0.539 NA 
HETATM    9  C   UNL     1     -11.051  11.899  66.820  1.00  0.00    -0.308 A  
HETATM   10  H   UNL     1     -12.984  12.412  66.086  1.00  0.00     0.000 HD 
HETATM   11  C   UNL     1     -10.157  12.630  67.598  1.00  0.00    -0.218 A  
HETATM   12  C   UNL     1      -8.924  12.030  67.943  1.00  0.00    -0.182 A  
HETATM   13  C   UNL     1      -8.620  10.722  67.517  1.00  0.00    -0.125 A  
HETATM   14  C   UNL     1      -9.551  10.033  66.726  1.00  0.00    -0.228 A  
HETATM   15  C   UNL     1     -10.781  10.601  66.374  1.00  0.00    -0.198 A  
BRANCH  13  16
HETATM   16  C   UNL     1      -7.296  10.095  67.901  1.00  0.00    -0.087 C  
BRANCH  16  17
HETATM   17  S   UNL     1      -7.452   9.290  69.513  1.00  0.00    -0.085 S  
HETATM   18  O   UNL     1      -7.226  10.267  70.560  1.00  0.00    -0.297 OA 
HETATM   19  O   UNL     1      -6.751   8.025  69.503  1.00  0.00    -0.038 OA 
BRANCH  17  20
HETATM   20  N   UNL     1      -9.110   8.901  69.596  1.00  0.00    -0.147 N  
HETATM   21  C   UNL     1      -9.372   7.438  69.499  1.00  0.00    -0.156 C  
HETATM   22  C   UNL     1     -10.787   7.276  70.019  1.00  0.00    -0.271 C  
HETATM   23  C   UNL     1     -10.879   8.303  71.130  1.00  0.00    -0.276 C  
HETATM   24  C   UNL     1      -9.909   9.418  70.739  1.00  0.00    -0.279 C  
ENDBRANCH  17  20
ENDBRANCH  16  17
ENDBRANCH  13  16
ENDBRANCH   5   6
ENDBRANCH   4   5
ENDBRANCH   2   4
TORSDOF 6
ENDMDL
MODEL      175
REMARK 921   NORMALIZED FREE ENERGY PREDICTED BY IDOCK:   -4.11 KCAL/MOL
REMARK 922        TOTAL FREE ENERGY PREDICTED BY IDOCK:   -6.15 KCAL/MOL
REMARK 923 INTER-LIGAND FREE ENERGY PREDICTED BY IDOCK:   -5.83 KCAL/MOL
REMARK 924 INTRA-LIGAND FREE ENERGY PREDICTED BY IDOCK:   -0.31 KCAL/MOL
REMARK 927      BINDING AFFINITY PREDICTED BY RF-SCORE:    0.00 PKD
ROOT
HETATM    1  C   UNL     1     -12.052  14.840  65.019  1.00  0.00    -0.291 C  
HETATM    2  N   UNL     1     -12.604  13.681  65.729  1.00  0.00    -0.478 NA 
HETATM    3  C   UNL     1     -12.255  12.456  65.006  1.00  0.00    -0.399 C  
ENDROOT
BRANCH   2   4
HETATM    4  C   UNL     1     -12.094  13.670  67.116  1.00  0.00    -0.362 C  
BRANCH   4   5
HETATM    5  C   UNL     1     -11.586  12.303  67.614  1.00  0.00    -0.421 C  
BRANCH   5   6
HETATM    6  C   UNL     1     -10.087  12.264  67.703  1.00  0.00    -0.204 A  
HETATM    7  C   UNL     1      -9.207  13.016  66.947  1.00  0.00    -0.236 A  
HETATM    8  N   UNL     1      -7.932  12.657  67.287  1.00  0.00    -0.230 NA 
HETATM    9  C   UNL     1      -7.956  11.697  68.271  1.00  0.00    -0.143 A  
HETATM   10  H   UNL     1      -7.086  13.045  66.871  1.00  0.00     0.000 HD 
HETATM   11  C   UNL     1      -9.293  11.437  68.564  1.00  0.00    -0.180 A  
HETATM   12  C   UNL     1      -9.586  10.474  69.558  1.00  0.00    -0.125 A  
HETATM   13  C   UNL     1      -8.547   9.791  70.220  1.00  0.00    -0.169 A  
HETATM   14  C   UNL     1      -7.218  10.098  69.895  1.00  0.00    -0.155 A  
HETATM   15  C   UNL     1      -6.900  11.043  68.913  1.00  0.00    -0.079 A  
BRANCH  13  16
HETATM   16  C   UNL     1      -8.881   8.760  71.278  1.00  0.00    -0.226 C  
BRANCH  16  17
HETATM   17  S   UNL     1      -9.814   7.404  70.529  1.00  0.00    -0.179 S  
HETATM   18  O   UNL     1      -9.660   6.211  71.339  1.00  0.00    -0.159 OA 
HETATM   19  O   UNL     1      -9.584   7.376  69.102  1.00  0.00    -0.156 OA 
BRANCH  17  20
HETATM   20  N   UNL     1     -11.437   7.889  70.729  1.00  0.00    -0.276 N  
HETATM   21  C   UNL     1     -12.375   6.743  70.873  1.00  0.00    -0.280 C  
HETATM   22  C   UNL     1     -13.631   7.358  71.459  1.00  0.00    -0.454 C  
HETATM   23  C   UNL     1     -13.101   8.425  72.396  1.00  0.00    -0.269 C  
HETATM   24  C   UNL     1     -11.764   8.866  71.801  1.00  0.00    -0.362 C  
ENDBRANCH  17  20
ENDBRANCH  16  17
ENDBRANCH  13  16
ENDBRANCH   5   6
ENDBRANCH   4   5
ENDBRANCH   2   4
TORSDOF 6
ENDMDL
MODEL      176
REMARK 921   NORMALIZED FREE ENERGY PREDICTED BY IDOCK:   -4.10 KCAL/MOL
REMARK 922        TOTAL FREE ENERGY PREDICTED BY IDOCK:   -6.13 KCAL/MOL
REMARK 923 INTER-LIGAND FREE ENERGY PREDICTED BY IDOCK:   -5.57 KCAL/MOL
REMARK 924 INTRA-LIGAND FREE ENERGY PREDICTED BY IDOCK:   -0.56 KCAL/MOL
REMARK 927      BINDING AFFINITY PREDICTED BY RF-SCORE:    0.00 PKD
ROOT
HETATM    1  C   UNL     1      -6.473   7.383  65.528  1.00  0.00    -0.044 C  
HETATM    2  N   UNL     1      -7.630   8.191  65.929  1.00  0.00    -0.080 NA 
HETATM    3  C   UNL     1      -7.410   8.720  67.277  1.00  0.00    -0.081 C  
ENDROOT
BRANCH   2   4
HETATM    4  C   UNL     1      -7.841   9.267  64.939  1.00  0.00    -0.116 C  
BRANCH   4   5
HETATM    5  C   UNL     1      -8.197  10.643  65.535  1.00  0.00    -0.141 C  
BRANCH   5   6
HETATM    6  C   UNL     1      -9.363  11.272  64.829  1.00  0.00    -0.166 A  
HETATM    7  C   UNL     1      -9.867  10.898  63.596  1.00  0.00    -0.351 A  
HETATM    8  N   UNL     1     -10.892  11.744  63.276  1.00  0.00    -0.652 NA 
HETATM    9  C   UNL     1     -11.089  12.656  64.286  1.00  0.00    -0.362 A  
HETATM   10  H   UNL     1     -11.433  11.703  62.412  1.00  0.00     0.000 HD 
HETATM   11  C   UNL     1     -10.154  12.380  65.281  1.00  0.00    -0.285 A  
HETATM   12  C   UNL     1     -10.152  13.188  66.441  1.00  0.00    -0.281 A  
HETATM   13  C   UNL     1     -11.066  14.252  66.573  1.00  0.00    -0.323 A  
HETATM   14  C   UNL     1     -11.994  14.480  65.547  1.00  0.00    -0.312 A  
HETATM   15  C   UNL     1     -12.015  13.699  64.387  1.00  0.00    -0.476 A  
BRANCH  13  16
HETATM   16  C   UNL     1     -11.046  15.110  67.821  1.00  0.00    -0.313 C  
BRANCH  16  17
HETATM   17  S   UNL     1      -9.832  16.436  67.624  1.00  0.00    -0.247 S  
HETATM   18  O   UNL     1      -9.983  17.389  68.706  1.00  0.00    -0.300 OA 
HETATM   19  O   UNL     1      -9.791  16.867  66.245  1.00  0.00    -0.277 OA 
BRANCH  17  20
HETATM   20  N   UNL     1      -8.345  15.649  67.909  1.00  0.00    -0.144 N  
HETATM   21  C   UNL     1      -7.331  15.920  66.853  1.00  0.00    -0.172 C  
HETATM   22  C   UNL     1      -6.014  15.519  67.488  1.00  0.00    -0.099 C  
HETATM   23  C   UNL     1      -6.178  15.930  68.938  1.00  0.00    -0.120 C  
HETATM   24  C   UNL     1      -7.676  15.838  69.223  1.00  0.00    -0.224 C  
ENDBRANCH  17  20
ENDBRANCH  16  17
ENDBRANCH  13  16
ENDBRANCH   5   6
ENDBRANCH   4   5
ENDBRANCH   2   4
TORSDOF 6
ENDMDL
MODEL      177
REMARK 921   NORMALIZED FREE ENERGY PREDICTED BY IDOCK:   -4.08 KCAL/MOL
REMARK 922        TOTAL FREE ENERGY PREDICTED BY IDOCK:   -6.10 KCAL/MOL
REMARK 923 INTER-LIGAND FREE ENERGY PREDICTED BY IDOCK:   -5.83 KCAL/MOL
REMARK 924 INTRA-LIGAND FREE ENERGY PREDICTED BY IDOCK:   -0.27 KCAL/MOL
REMARK 927      BINDING AFFINITY PREDICTED BY RF-SCORE:    0.00 PKD
ROOT
HETATM    1  C   UNL     1      -8.624   9.242  63.983  1.00  0.00    -0.186 C  
HETATM    2  N   UNL     1      -8.968  10.661  63.834  1.00  0.00    -0.192 NA 
HETATM    3  C   UNL     1      -9.722  10.851  62.593  1.00  0.00    -0.210 C  
ENDROOT
BRANCH   2   4
HETATM    4  C   UNL     1      -9.731  11.105  65.019  1.00  0.00    -0.253 C  
BRANCH   4   5
HETATM    5  C   UNL     1      -9.966  10.020  66.089  1.00  0.00    -0.322 C  
BRANCH   5   6
HETATM    6  C   UNL     1     -10.764  10.544  67.248  1.00  0.00    -0.333 A  
HETATM    7  C   UNL     1     -11.639  11.614  67.217  1.00  0.00    -0.238 A  
HETATM    8  N   UNL     1     -12.127  11.807  68.479  1.00  0.00    -0.455 NA 
HETATM    9  C   UNL     1     -11.606  10.869  69.339  1.00  0.00    -0.316 A  
HETATM   10  H   UNL     1     -12.783  12.542  68.745  1.00  0.00     0.000 HD 
HETATM   11  C   UNL     1     -10.757  10.053  68.595  1.00  0.00    -0.256 A  
HETATM   12  C   UNL     1     -10.091   8.997  69.260  1.00  0.00    -0.197 A  
HETATM   13  C   UNL     1     -10.278   8.790  70.641  1.00  0.00    -0.247 A  
HETATM   14  C   UNL     1     -11.152   9.634  71.341  1.00  0.00    -0.397 A  
HETATM   15  C   UNL     1     -11.820  10.689  70.709  1.00  0.00    -0.459 A  
BRANCH  13  16
HETATM   16  C   UNL     1      -9.553   7.657  71.336  1.00  0.00    -0.158 C  
BRANCH  16  17
HETATM   17  S   UNL     1     -10.706   6.771  72.412  1.00  0.00    -0.236 S  
HETATM   18  O   UNL     1     -11.870   6.375  71.643  1.00  0.00    -0.310 OA 
HETATM   19  O   UNL     1     -10.839   7.466  73.672  1.00  0.00    -0.346 OA 
BRANCH  17  20
HETATM   20  N   UNL     1      -9.875   5.324  72.766  1.00  0.00    -0.156 N  
HETATM   21  C   UNL     1      -8.794   5.504  73.774  1.00  0.00    -0.124 C  
HETATM   22  C   UNL     1      -8.494   4.099  74.258  1.00  0.00    -0.097 C  
HETATM   23  C   UNL     1      -9.853   3.427  74.262  1.00  0.00    -0.160 C  
HETATM   24  C   UNL     1     -10.661   4.128  73.171  1.00  0.00    -0.184 C  
ENDBRANCH  17  20
ENDBRANCH  16  17
ENDBRANCH  13  16
ENDBRANCH   5   6
ENDBRANCH   4   5
ENDBRANCH   2   4
TORSDOF 6
ENDMDL
MODEL      178
REMARK 921   NORMALIZED FREE ENERGY PREDICTED BY IDOCK:   -4.07 KCAL/MOL
REMARK 922        TOTAL FREE ENERGY PREDICTED BY IDOCK:   -6.09 KCAL/MOL
REMARK 923 INTER-LIGAND FREE ENERGY PREDICTED BY IDOCK:   -5.55 KCAL/MOL
REMARK 924 INTRA-LIGAND FREE ENERGY PREDICTED BY IDOCK:   -0.54 KCAL/MOL
REMARK 927      BINDING AFFINITY PREDICTED BY RF-SCORE:    0.00 PKD
ROOT
HETATM    1  C   UNL     1      -6.259  17.122  69.269  1.00  0.00    -0.224 C  
HETATM    2  N   UNL     1      -7.656  17.220  68.829  1.00  0.00    -0.256 NA 
HETATM    3  C   UNL     1      -7.729  18.040  67.618  1.00  0.00    -0.215 C  
ENDROOT
BRANCH   2   4
HETATM    4  C   UNL     1      -8.196  15.861  68.613  1.00  0.00    -0.182 C  
BRANCH   4   5
HETATM    5  C   UNL     1      -9.482  15.537  69.399  1.00  0.00    -0.278 C  
BRANCH   5   6
HETATM    6  C   UNL     1     -10.476  14.792  68.556  1.00  0.00    -0.249 A  
HETATM    7  C   UNL     1     -11.566  15.342  67.906  1.00  0.00    -0.289 A  
HETATM    8  N   UNL     1     -12.253  14.333  67.290  1.00  0.00    -0.597 NA 
HETATM    9  C   UNL     1     -11.624  13.129  67.505  1.00  0.00    -0.352 A  
HETATM   10  H   UNL     1     -13.110  14.455  66.750  1.00  0.00     0.000 HD 
HETATM   11  C   UNL     1     -10.498  13.384  68.285  1.00  0.00    -0.256 A  
HETATM   12  C   UNL     1      -9.673  12.294  68.645  1.00  0.00    -0.074 A  
HETATM   13  C   UNL     1      -9.994  10.986  68.233  1.00  0.00    -0.190 A  
HETATM   14  C   UNL     1     -11.133  10.786  67.440  1.00  0.00    -0.363 A  
HETATM   15  C   UNL     1     -11.969  11.845  67.072  1.00  0.00    -0.024 A  
BRANCH  13  16
HETATM   16  C   UNL     1      -9.099   9.831  68.633  1.00  0.00    -0.130 C  
BRANCH  16  17
HETATM   17  S   UNL     1      -9.478   9.332  70.330  1.00  0.00    -0.255 S  
HETATM   18  O   UNL     1     -10.756   9.894  70.721  1.00  0.00    -0.306 OA 
HETATM   19  O   UNL     1      -8.305   9.483  71.162  1.00  0.00    -0.285 OA 
BRANCH  17  20
HETATM   20  N   UNL     1      -9.736   7.651  70.193  1.00  0.00    -0.179 N  
HETATM   21  C   UNL     1     -10.901   7.308  69.331  1.00  0.00    -0.190 C  
HETATM   22  C   UNL     1     -10.698   5.845  68.992  1.00  0.00    -0.379 C  
HETATM   23  C   UNL     1      -9.194   5.717  68.852  1.00  0.00    -0.136 C  
HETATM   24  C   UNL     1      -8.604   6.785  69.771  1.00  0.00    -0.141 C  
ENDBRANCH  17  20
ENDBRANCH  16  17
ENDBRANCH  13  16
ENDBRANCH   5   6
ENDBRANCH   4   5
ENDBRANCH   2   4
TORSDOF 6
ENDMDL
MODEL      179
REMARK 921   NORMALIZED FREE ENERGY PREDICTED BY IDOCK:   -4.06 KCAL/MOL
REMARK 922        TOTAL FREE ENERGY PREDICTED BY IDOCK:   -6.08 KCAL/MOL
REMARK 923 INTER-LIGAND FREE ENERGY PREDICTED BY IDOCK:   -5.47 KCAL/MOL
REMARK 924 INTRA-LIGAND FREE ENERGY PREDICTED BY IDOCK:   -0.61 KCAL/MOL
REMARK 927      BINDING AFFINITY PREDICTED BY RF-SCORE:    0.00 PKD
ROOT
HETATM    1  C   UNL     1      -6.876   7.001  67.287  1.00  0.00    -0.069 C  
HETATM    2  N   UNL     1      -8.282   7.074  66.873  1.00  0.00    -0.115 NA 
HETATM    3  C   UNL     1      -8.355   7.197  65.415  1.00  0.00    -0.118 C  
ENDROOT
BRANCH   2   4
HETATM    4  C   UNL     1      -8.998   5.878  67.365  1.00  0.00    -0.108 C  
BRANCH   4   5
HETATM    5  C   UNL     1     -10.516   6.060  67.557  1.00  0.00    -0.302 C  
BRANCH   5   6
HETATM    6  C   UNL     1     -10.841   6.657  68.896  1.00  0.00    -0.326 A  
HETATM    7  C   UNL     1     -11.318   5.973  69.999  1.00  0.00    -0.284 A  
HETATM    8  N   UNL     1     -11.537   6.874  71.003  1.00  0.00    -0.309 NA 
HETATM    9  C   UNL     1     -11.190   8.139  70.590  1.00  0.00    -0.260 A  
HETATM   10  H   UNL     1     -11.903   6.642  71.927  1.00  0.00     0.000 HD 
HETATM   11  C   UNL     1     -10.738   8.036  69.277  1.00  0.00    -0.140 A  
HETATM   12  C   UNL     1     -10.317   9.215  68.619  1.00  0.00    -0.233 A  
HETATM   13  C   UNL     1     -10.369  10.459  69.278  1.00  0.00    -0.250 A  
HETATM   14  C   UNL     1     -10.823  10.506  70.604  1.00  0.00     0.063 A  
HETATM   15  C   UNL     1     -11.249   9.356  71.277  1.00  0.00    -0.437 A  
BRANCH  13  16
HETATM   16  C   UNL     1      -9.918  11.712  68.555  1.00  0.00    -0.194 C  
BRANCH  16  17
HETATM   17  S   UNL     1     -11.364  12.677  68.057  1.00  0.00    -0.313 S  
HETATM   18  O   UNL     1     -11.667  13.653  69.086  1.00  0.00    -0.283 OA 
HETATM   19  O   UNL     1     -12.386  11.800  67.530  1.00  0.00    -0.290 OA 
BRANCH  17  20
HETATM   20  N   UNL     1     -10.793  13.576  66.724  1.00  0.00    -0.281 N  
HETATM   21  C   UNL     1     -11.676  13.473  65.530  1.00  0.00    -0.340 C  
HETATM   22  C   UNL     1     -11.256  14.637  64.653  1.00  0.00    -0.353 C  
HETATM   23  C   UNL     1     -10.934  15.734  65.648  1.00  0.00    -0.248 C  
HETATM   24  C   UNL     1     -10.476  15.016  66.917  1.00  0.00    -0.279 C  
ENDBRANCH  17  20
ENDBRANCH  16  17
ENDBRANCH  13  16
ENDBRANCH   5   6
ENDBRANCH   4   5
ENDBRANCH   2   4
TORSDOF 6
ENDMDL
MODEL      180
REMARK 921   NORMALIZED FREE ENERGY PREDICTED BY IDOCK:   -4.06 KCAL/MOL
REMARK 922        TOTAL FREE ENERGY PREDICTED BY IDOCK:   -6.08 KCAL/MOL
REMARK 923 INTER-LIGAND FREE ENERGY PREDICTED BY IDOCK:   -5.56 KCAL/MOL
REMARK 924 INTRA-LIGAND FREE ENERGY PREDICTED BY IDOCK:   -0.51 KCAL/MOL
REMARK 927      BINDING AFFINITY PREDICTED BY RF-SCORE:    0.00 PKD
ROOT
HETATM    1  C   UNL     1      -5.490  10.707  65.533  1.00  0.00    -0.136 C  
HETATM    2  N   UNL     1      -6.519   9.964  66.269  1.00  0.00    -0.074 NA 
HETATM    3  C   UNL     1      -5.974   9.522  67.555  1.00  0.00    -0.052 C  
ENDROOT
BRANCH   2   4
HETATM    4  C   UNL     1      -7.713  10.818  66.437  1.00  0.00    -0.145 C  
BRANCH   4   5
HETATM    5  C   UNL     1      -9.049  10.157  66.044  1.00  0.00    -0.185 C  
BRANCH   5   6
HETATM    6  C   UNL     1     -10.210  10.774  66.769  1.00  0.00    -0.279 A  
HETATM    7  C   UNL     1     -11.154  11.623  66.222  1.00  0.00    -0.290 A  
HETATM    8  N   UNL     1     -12.014  12.007  67.213  1.00  0.00    -0.590 NA 
HETATM    9  C   UNL     1     -11.667  11.409  68.401  1.00  0.00    -0.303 A  
HETATM   10  H   UNL     1     -12.800  12.646  67.088  1.00  0.00     0.000 HD 
HETATM   11  C   UNL     1     -10.546  10.619  68.155  1.00  0.00    -0.237 A  
HETATM   12  C   UNL     1      -9.991   9.890  69.232  1.00  0.00    -0.217 A  
HETATM   13  C   UNL     1     -10.554   9.977  70.520  1.00  0.00    -0.313 A  
HETATM   14  C   UNL     1     -11.688  10.779  70.712  1.00  0.00    -0.400 A  
HETATM   15  C   UNL     1     -12.256  11.514  69.665  1.00  0.00    -0.296 A  
BRANCH  13  16
HETATM   16  C   UNL     1      -9.942   9.192  71.662  1.00  0.00    -0.249 C  
BRANCH  16  17
HETATM   17  S   UNL     1     -10.836   7.634  71.873  1.00  0.00    -0.243 S  
HETATM   18  O   UNL     1     -12.130   7.733  71.228  1.00  0.00    -0.301 OA 
HETATM   19  O   UNL     1     -10.712   7.174  73.239  1.00  0.00    -0.312 OA 
BRANCH  17  20
HETATM   20  N   UNL     1      -9.934   6.536  70.930  1.00  0.00    -0.184 N  
HETATM   21  C   UNL     1      -9.117   5.598  71.749  1.00  0.00    -0.135 C  
HETATM   22  C   UNL     1      -8.762   4.477  70.792  1.00  0.00    -0.124 C  
HETATM   23  C   UNL     1     -10.003   4.337  69.932  1.00  0.00    -0.179 C  
HETATM   24  C   UNL     1     -10.641   5.725  69.904  1.00  0.00    -0.318 C  
ENDBRANCH  17  20
ENDBRANCH  16  17
ENDBRANCH  13  16
ENDBRANCH   5   6
ENDBRANCH   4   5
ENDBRANCH   2   4
TORSDOF 6
ENDMDL
MODEL      181
REMARK 921   NORMALIZED FREE ENERGY PREDICTED BY IDOCK:   -4.03 KCAL/MOL
REMARK 922        TOTAL FREE ENERGY PREDICTED BY IDOCK:   -6.04 KCAL/MOL
REMARK 923 INTER-LIGAND FREE ENERGY PREDICTED BY IDOCK:   -5.33 KCAL/MOL
REMARK 924 INTRA-LIGAND FREE ENERGY PREDICTED BY IDOCK:   -0.71 KCAL/MOL
REMARK 927      BINDING AFFINITY PREDICTED BY RF-SCORE:    0.00 PKD
ROOT
HETATM    1  C   UNL     1     -10.465  11.586  65.808  1.00  0.00    -0.259 C  
HETATM    2  N   UNL     1     -10.338  10.126  65.884  1.00  0.00    -0.198 NA 
HETATM    3  C   UNL     1      -9.069   9.716  65.280  1.00  0.00    -0.218 C  
ENDROOT
BRANCH   2   4
HETATM    4  C   UNL     1     -10.445   9.699  67.295  1.00  0.00    -0.258 C  
BRANCH   4   5
HETATM    5  C   UNL     1     -10.079  10.778  68.332  1.00  0.00    -0.183 C  
BRANCH   5   6
HETATM    6  C   UNL     1      -8.918  10.359  69.186  1.00  0.00    -0.188 A  
HETATM    7  C   UNL     1      -7.586  10.644  68.947  1.00  0.00    -0.113 A  
HETATM    8  N   UNL     1      -6.836  10.046  69.921  1.00  0.00    -0.091 NA 
HETATM    9  C   UNL     1      -7.651   9.389  70.812  1.00  0.00    -0.114 A  
HETATM   10  H   UNL     1      -5.818  10.082  69.978  1.00  0.00     0.000 HD 
HETATM   11  C   UNL     1      -8.964   9.576  70.387  1.00  0.00    -0.291 A  
HETATM   12  C   UNL     1     -10.004   8.992  71.148  1.00  0.00    -0.365 A  
HETATM   13  C   UNL     1      -9.710   8.231  72.296  1.00  0.00    -0.362 A  
HETATM   14  C   UNL     1      -8.371   8.082  72.686  1.00  0.00    -0.221 A  
HETATM   15  C   UNL     1      -7.323   8.646  71.950  1.00  0.00    -0.092 A  
BRANCH  13  16
HETATM   16  C   UNL     1     -10.836   7.609  73.095  1.00  0.00    -0.382 C  
BRANCH  16  17
HETATM   17  S   UNL     1     -11.571   6.253  72.151  1.00  0.00    -0.312 S  
HETATM   18  O   UNL     1     -12.588   6.782  71.264  1.00  0.00    -0.353 OA 
HETATM   19  O   UNL     1     -11.846   5.135  73.025  1.00  0.00    -0.273 OA 
BRANCH  17  20
HETATM   20  N   UNL     1     -10.295   5.747  71.138  1.00  0.00    -0.217 N  
HETATM   21  C   UNL     1      -9.579   4.549  71.656  1.00  0.00    -0.159 C  
HETATM   22  C   UNL     1      -8.818   4.019  70.457  1.00  0.00    -0.136 C  
HETATM   23  C   UNL     1      -9.758   4.279  69.296  1.00  0.00    -0.240 C  
HETATM   24  C   UNL     1     -10.578   5.504  69.699  1.00  0.00    -0.305 C  
ENDBRANCH  17  20
ENDBRANCH  16  17
ENDBRANCH  13  16
ENDBRANCH   5   6
ENDBRANCH   4   5
ENDBRANCH   2   4
TORSDOF 6
ENDMDL
MODEL      182
REMARK 921   NORMALIZED FREE ENERGY PREDICTED BY IDOCK:   -4.03 KCAL/MOL
REMARK 922        TOTAL FREE ENERGY PREDICTED BY IDOCK:   -6.04 KCAL/MOL
REMARK 923 INTER-LIGAND FREE ENERGY PREDICTED BY IDOCK:   -6.21 KCAL/MOL
REMARK 924 INTRA-LIGAND FREE ENERGY PREDICTED BY IDOCK:    0.18 KCAL/MOL
REMARK 927      BINDING AFFINITY PREDICTED BY RF-SCORE:    0.00 PKD
ROOT
HETATM    1  C   UNL     1     -10.610   9.878  69.432  1.00  0.00    -0.229 C  
HETATM    2  N   UNL     1      -9.166   9.922  69.689  1.00  0.00    -0.217 NA 
HETATM    3  C   UNL     1      -8.822   8.924  70.704  1.00  0.00    -0.198 C  
ENDROOT
BRANCH   2   4
HETATM    4  C   UNL     1      -8.438   9.697  68.422  1.00  0.00    -0.118 C  
BRANCH   4   5
HETATM    5  C   UNL     1      -7.903  10.973  67.742  1.00  0.00    -0.110 C  
BRANCH   5   6
HETATM    6  C   UNL     1      -8.837  11.469  66.676  1.00  0.00    -0.187 A  
HETATM    7  C   UNL     1      -8.793  11.136  65.335  1.00  0.00    -0.102 A  
HETATM    8  N   UNL     1      -9.774  11.831  64.686  1.00  0.00    -0.389 NA 
HETATM    9  C   UNL     1     -10.481  12.601  65.579  1.00  0.00    -0.281 A  
HETATM   10  H   UNL     1      -9.956  11.785  63.683  1.00  0.00     0.000 HD 
HETATM   11  C   UNL     1      -9.926  12.388  66.839  1.00  0.00    -0.223 A  
HETATM   12  C   UNL     1     -10.485  13.074  67.942  1.00  0.00    -0.234 A  
HETATM   13  C   UNL     1     -11.566  13.959  67.761  1.00  0.00    -0.381 A  
HETATM   14  C   UNL     1     -12.094  14.130  66.473  1.00  0.00    -0.481 A  
HETATM   15  C   UNL     1     -11.558  13.467  65.363  1.00  0.00    -0.335 A  
BRANCH  13  16
HETATM   16  C   UNL     1     -12.148  14.689  68.954  1.00  0.00    -0.216 C  
BRANCH  16  17
HETATM   17  S   UNL     1     -10.813  15.443  69.912  1.00  0.00    -0.314 S  
HETATM   18  O   UNL     1     -10.829  16.879  69.709  1.00  0.00    -0.281 OA 
HETATM   19  O   UNL     1      -9.597  14.677  69.754  1.00  0.00     0.147 OA 
BRANCH  17  20
HETATM   20  N   UNL     1     -11.307  15.201  71.527  1.00  0.00    -0.361 N  
HETATM   21  C   UNL     1     -11.911  16.415  72.140  1.00  0.00    -0.403 C  
HETATM   22  C   UNL     1     -12.653  15.892  73.354  1.00  0.00    -0.666 C  
HETATM   23  C   UNL     1     -13.190  14.551  72.893  1.00  0.00    -0.612 C  
HETATM   24  C   UNL     1     -12.204  14.056  71.836  1.00  0.00    -0.022 C  
ENDBRANCH  17  20
ENDBRANCH  16  17
ENDBRANCH  13  16
ENDBRANCH   5   6
ENDBRANCH   4   5
ENDBRANCH   2   4
TORSDOF 6
ENDMDL
MODEL      183
REMARK 921   NORMALIZED FREE ENERGY PREDICTED BY IDOCK:   -4.03 KCAL/MOL
REMARK 922        TOTAL FREE ENERGY PREDICTED BY IDOCK:   -6.04 KCAL/MOL
REMARK 923 INTER-LIGAND FREE ENERGY PREDICTED BY IDOCK:   -5.55 KCAL/MOL
REMARK 924 INTRA-LIGAND FREE ENERGY PREDICTED BY IDOCK:   -0.49 KCAL/MOL
REMARK 927      BINDING AFFINITY PREDICTED BY RF-SCORE:    0.00 PKD
ROOT
HETATM    1  C   UNL     1      -6.585   7.523  65.669  1.00  0.00    -0.045 C  
HETATM    2  N   UNL     1      -7.462   8.397  66.456  1.00  0.00    -0.081 NA 
HETATM    3  C   UNL     1      -6.650   9.380  67.177  1.00  0.00    -0.071 C  
ENDROOT
BRANCH   2   4
HETATM    4  C   UNL     1      -8.443   9.041  65.558  1.00  0.00    -0.144 C  
BRANCH   4   5
HETATM    5  C   UNL     1      -8.704  10.534  65.838  1.00  0.00    -0.178 C  
BRANCH   5   6
HETATM    6  C   UNL     1      -9.839  10.730  66.802  1.00  0.00    -0.233 A  
HETATM    7  C   UNL     1     -10.783   9.781  67.152  1.00  0.00    -0.202 A  
HETATM    8  N   UNL     1     -11.675  10.359  68.011  1.00  0.00    -0.729 NA 
HETATM    9  C   UNL     1     -11.324  11.666  68.253  1.00  0.00    -0.285 A  
HETATM   10  H   UNL     1     -12.485   9.888  68.416  1.00  0.00     0.000 HD 
HETATM   11  C   UNL     1     -10.169  11.927  67.519  1.00  0.00    -0.212 A  
HETATM   12  C   UNL     1      -9.601  13.219  67.600  1.00  0.00    -0.213 A  
HETATM   13  C   UNL     1     -10.201  14.216  68.394  1.00  0.00    -0.247 A  
HETATM   14  C   UNL     1     -11.357  13.898  69.122  1.00  0.00    -0.331 A  
HETATM   15  C   UNL     1     -11.943  12.629  69.057  1.00  0.00    -0.282 A  
BRANCH  13  16
HETATM   16  C   UNL     1      -9.581  15.596  68.465  1.00  0.00    -0.199 C  
BRANCH  16  17
HETATM   17  S   UNL     1     -10.264  16.635  67.152  1.00  0.00    -0.292 S  
HETATM   18  O   UNL     1     -10.775  17.863  67.729  1.00  0.00    -0.400 OA 
HETATM   19  O   UNL     1     -11.071  15.834  66.258  1.00  0.00    -0.223 OA 
BRANCH  17  20
HETATM   20  N   UNL     1      -8.886  17.086  66.254  1.00  0.00    -0.268 N  
HETATM   21  C   UNL     1      -8.689  18.561  66.190  1.00  0.00    -0.118 C  
HETATM   22  C   UNL     1      -7.246  18.727  65.757  1.00  0.00    -0.235 C  
HETATM   23  C   UNL     1      -6.531  17.586  66.454  1.00  0.00    -0.283 C  
HETATM   24  C   UNL     1      -7.574  16.480  66.605  1.00  0.00    -0.275 C  
ENDBRANCH  17  20
ENDBRANCH  16  17
ENDBRANCH  13  16
ENDBRANCH   5   6
ENDBRANCH   4   5
ENDBRANCH   2   4
TORSDOF 6
ENDMDL
MODEL      184
REMARK 921   NORMALIZED FREE ENERGY PREDICTED BY IDOCK:   -4.03 KCAL/MOL
REMARK 922        TOTAL FREE ENERGY PREDICTED BY IDOCK:   -6.03 KCAL/MOL
REMARK 923 INTER-LIGAND FREE ENERGY PREDICTED BY IDOCK:   -5.62 KCAL/MOL
REMARK 924 INTRA-LIGAND FREE ENERGY PREDICTED BY IDOCK:   -0.41 KCAL/MOL
REMARK 927      BINDING AFFINITY PREDICTED BY RF-SCORE:    0.00 PKD
ROOT
HETATM    1  C   UNL     1     -10.293  11.255  64.346  1.00  0.00    -0.329 C  
HETATM    2  N   UNL     1     -11.330  12.293  64.304  1.00  0.00    -0.330 NA 
HETATM    3  C   UNL     1     -12.417  11.860  63.423  1.00  0.00    -0.463 C  
ENDROOT
BRANCH   2   4
HETATM    4  C   UNL     1     -11.804  12.565  65.677  1.00  0.00    -0.438 C  
BRANCH   4   5
HETATM    5  C   UNL     1     -12.337  13.992  65.913  1.00  0.00    -0.515 C  
BRANCH   5   6
HETATM    6  C   UNL     1     -11.235  15.011  65.879  1.00  0.00    -0.313 A  
HETATM    7  C   UNL     1     -11.275  16.232  65.230  1.00  0.00    -0.033 A  
HETATM    8  N   UNL     1     -10.063  16.845  65.392  1.00  0.00    -0.590 NA 
HETATM    9  C   UNL     1      -9.232  16.059  66.156  1.00  0.00    -0.352 A  
HETATM   10  H   UNL     1      -9.813  17.754  65.002  1.00  0.00     0.000 HD 
HETATM   11  C   UNL     1      -9.941  14.907  66.488  1.00  0.00    -0.277 A  
HETATM   12  C   UNL     1      -9.297  13.930  67.281  1.00  0.00    -0.231 A  
HETATM   13  C   UNL     1      -7.967  14.117  67.708  1.00  0.00    -0.175 A  
HETATM   14  C   UNL     1      -7.302  15.300  67.355  1.00  0.00    -0.241 A  
HETATM   15  C   UNL     1      -7.914  16.282  66.568  1.00  0.00    -0.326 A  
BRANCH  13  16
HETATM   16  C   UNL     1      -7.292  13.057  68.553  1.00  0.00    -0.115 C  
BRANCH  16  17
HETATM   17  S   UNL     1      -6.808  11.665  67.504  1.00  0.00    -0.115 S  
HETATM   18  O   UNL     1      -5.722  12.075  66.636  1.00  0.00    -0.277 OA 
HETATM   19  O   UNL     1      -7.985  11.012  66.976  1.00  0.00    -0.125 OA 
BRANCH  17  20
HETATM   20  N   UNL     1      -6.122  10.563  68.610  1.00  0.00    -0.043 N  
HETATM   21  C   UNL     1      -6.432  10.892  70.029  1.00  0.00    -0.151 C  
HETATM   22  C   UNL     1      -6.129   9.613  70.785  1.00  0.00    -0.086 C  
HETATM   23  C   UNL     1      -6.562   8.522  69.825  1.00  0.00    -0.039 C  
HETATM   24  C   UNL     1      -6.383   9.110  68.427  1.00  0.00    -0.054 C  
ENDBRANCH  17  20
ENDBRANCH  16  17
ENDBRANCH  13  16
ENDBRANCH   5   6
ENDBRANCH   4   5
ENDBRANCH   2   4
TORSDOF 6
ENDMDL
MODEL      185
REMARK 921   NORMALIZED FREE ENERGY PREDICTED BY IDOCK:   -4.01 KCAL/MOL
REMARK 922        TOTAL FREE ENERGY PREDICTED BY IDOCK:   -6.01 KCAL/MOL
REMARK 923 INTER-LIGAND FREE ENERGY PREDICTED BY IDOCK:   -5.59 KCAL/MOL
REMARK 924 INTRA-LIGAND FREE ENERGY PREDICTED BY IDOCK:   -0.42 KCAL/MOL
REMARK 927      BINDING AFFINITY PREDICTED BY RF-SCORE:    0.00 PKD
ROOT
HETATM    1  C   UNL     1      -6.794   5.597  73.003  1.00  0.00    -0.075 C  
HETATM    2  N   UNL     1      -7.893   4.637  73.156  1.00  0.00    -0.095 NA 
HETATM    3  C   UNL     1      -8.320   4.605  74.557  1.00  0.00    -0.100 C  
ENDROOT
BRANCH   2   4
HETATM    4  C   UNL     1      -8.998   5.011  72.249  1.00  0.00    -0.131 C  
BRANCH   4   5
HETATM    5  C   UNL     1      -9.294   6.521  72.168  1.00  0.00    -0.142 C  
BRANCH   5   6
HETATM    6  C   UNL     1     -10.769   6.797  72.114  1.00  0.00    -0.249 A  
HETATM    7  C   UNL     1     -11.776   5.923  72.480  1.00  0.00    -0.236 A  
HETATM    8  N   UNL     1     -12.979   6.525  72.237  1.00  0.00    -0.531 NA 
HETATM    9  C   UNL     1     -12.783   7.791  71.738  1.00  0.00    -0.329 A  
HETATM   10  H   UNL     1     -13.890   6.097  72.402  1.00  0.00     0.000 HD 
HETATM   11  C   UNL     1     -11.408   7.998  71.660  1.00  0.00    -0.306 A  
HETATM   12  C   UNL     1     -10.944   9.242  71.172  1.00  0.00    -0.409 A  
HETATM   13  C   UNL     1     -11.856  10.236  70.765  1.00  0.00    -0.459 A  
HETATM   14  C   UNL     1     -13.231   9.980  70.873  1.00  0.00    -0.336 A  
HETATM   15  C   UNL     1     -13.717   8.757  71.349  1.00  0.00    -0.311 A  
BRANCH  13  16
HETATM   16  C   UNL     1     -11.340  11.560  70.240  1.00  0.00     0.047 C  
BRANCH  16  17
HETATM   17  S   UNL     1     -10.942  11.401  68.483  1.00  0.00    -0.243 S  
HETATM   18  O   UNL     1      -9.944  12.391  68.126  1.00  0.00    -0.204 OA 
HETATM   19  O   UNL     1     -12.157  11.249  67.713  1.00  0.00    -0.631 OA 
BRANCH  17  20
HETATM   20  N   UNL     1     -10.147   9.894  68.397  1.00  0.00    -0.161 N  
HETATM   21  C   UNL     1     -10.658   9.027  67.300  1.00  0.00    -0.231 C  
HETATM   22  C   UNL     1      -9.578   7.979  67.118  1.00  0.00    -0.227 C  
HETATM   23  C   UNL     1      -8.293   8.746  67.360  1.00  0.00    -0.109 C  
HETATM   24  C   UNL     1      -8.663   9.872  68.324  1.00  0.00    -0.119 C  
ENDBRANCH  17  20
ENDBRANCH  16  17
ENDBRANCH  13  16
ENDBRANCH   5   6
ENDBRANCH   4   5
ENDBRANCH   2   4
TORSDOF 6
ENDMDL
MODEL      186
REMARK 921   NORMALIZED FREE ENERGY PREDICTED BY IDOCK:   -4.00 KCAL/MOL
REMARK 922        TOTAL FREE ENERGY PREDICTED BY IDOCK:   -5.99 KCAL/MOL
REMARK 923 INTER-LIGAND FREE ENERGY PREDICTED BY IDOCK:   -5.83 KCAL/MOL
REMARK 924 INTRA-LIGAND FREE ENERGY PREDICTED BY IDOCK:   -0.16 KCAL/MOL
REMARK 927      BINDING AFFINITY PREDICTED BY RF-SCORE:    0.00 PKD
ROOT
HETATM    1  C   UNL     1      -8.120  14.331  68.069  1.00  0.00    -0.145 C  
HETATM    2  N   UNL     1      -9.472  14.064  68.574  1.00  0.00    -0.210 NA 
HETATM    3  C   UNL     1     -10.253  15.303  68.553  1.00  0.00    -0.224 C  
ENDROOT
BRANCH   2   4
HETATM    4  C   UNL     1     -10.096  13.000  67.761  1.00  0.00    -0.229 C  
BRANCH   4   5
HETATM    5  C   UNL     1      -9.869  11.566  68.276  1.00  0.00    -0.203 C  
BRANCH   5   6
HETATM    6  C   UNL     1     -10.915  11.160  69.273  1.00  0.00    -0.300 A  
HETATM    7  C   UNL     1     -12.143  11.768  69.459  1.00  0.00    -0.250 A  
HETATM    8  N   UNL     1     -12.783  11.140  70.491  1.00  0.00    -0.257 NA 
HETATM    9  C   UNL     1     -12.009  10.112  70.975  1.00  0.00    -0.378 A  
HETATM   10  H   UNL     1     -13.703  11.397  70.850  1.00  0.00     0.000 HD 
HETATM   11  C   UNL     1     -10.835  10.089  70.225  1.00  0.00    -0.370 A  
HETATM   12  C   UNL     1      -9.864   9.109  70.531  1.00  0.00    -0.285 A  
HETATM   13  C   UNL     1     -10.078   8.191  71.578  1.00  0.00    -0.243 A  
HETATM   14  C   UNL     1     -11.282   8.251  72.296  1.00  0.00    -0.443 A  
HETATM   15  C   UNL     1     -12.259   9.213  72.016  1.00  0.00    -0.443 A  
BRANCH  13  16
HETATM   16  C   UNL     1      -9.024   7.151  71.894  1.00  0.00    -0.127 C  
BRANCH  16  17
HETATM   17  S   UNL     1      -9.723   5.496  71.683  1.00  0.00    -0.165 S  
HETATM   18  O   UNL     1     -11.063   5.468  72.238  1.00  0.00    -0.250 OA 
HETATM   19  O   UNL     1      -8.742   4.496  72.040  1.00  0.00    -0.114 OA 
BRANCH  17  20
HETATM   20  N   UNL     1      -9.922   5.369  69.994  1.00  0.00    -0.212 N  
HETATM   21  C   UNL     1     -11.172   6.012  69.504  1.00  0.00    -0.346 C  
HETATM   22  C   UNL     1     -10.950   6.174  68.013  1.00  0.00    -0.399 C  
HETATM   23  C   UNL     1      -9.472   6.499  67.907  1.00  0.00    -0.120 C  
HETATM   24  C   UNL     1      -8.816   5.820  69.108  1.00  0.00    -0.112 C  
ENDBRANCH  17  20
ENDBRANCH  16  17
ENDBRANCH  13  16
ENDBRANCH   5   6
ENDBRANCH   4   5
ENDBRANCH   2   4
TORSDOF 6
ENDMDL
MODEL      187
REMARK 921   NORMALIZED FREE ENERGY PREDICTED BY IDOCK:   -3.99 KCAL/MOL
REMARK 922        TOTAL FREE ENERGY PREDICTED BY IDOCK:   -5.98 KCAL/MOL
REMARK 923 INTER-LIGAND FREE ENERGY PREDICTED BY IDOCK:   -5.68 KCAL/MOL
REMARK 924 INTRA-LIGAND FREE ENERGY PREDICTED BY IDOCK:   -0.30 KCAL/MOL
REMARK 927      BINDING AFFINITY PREDICTED BY RF-SCORE:    0.00 PKD
ROOT
HETATM    1  C   UNL     1     -12.234  14.539  64.277  1.00  0.00    -0.415 C  
HETATM    2  N   UNL     1     -12.693  13.206  64.685  1.00  0.00    -0.699 NA 
HETATM    3  C   UNL     1     -12.444  12.252  63.602  1.00  0.00    -0.541 C  
ENDROOT
BRANCH   2   4
HETATM    4  C   UNL     1     -12.009  12.816  65.936  1.00  0.00    -0.449 C  
BRANCH   4   5
HETATM    5  C   UNL     1     -11.042  11.623  65.806  1.00  0.00    -0.313 C  
BRANCH   5   6
HETATM    6  C   UNL     1     -10.846  10.919  67.118  1.00  0.00    -0.337 A  
HETATM    7  C   UNL     1     -11.150  11.427  68.368  1.00  0.00    -0.242 A  
HETATM    8  N   UNL     1     -10.780  10.506  69.308  1.00  0.00    -0.218 NA 
HETATM    9  C   UNL     1     -10.257   9.390  68.699  1.00  0.00    -0.201 A  
HETATM   10  H   UNL     1     -10.877  10.630  70.316  1.00  0.00     0.000 HD 
HETATM   11  C   UNL     1     -10.296   9.611  67.325  1.00  0.00    -0.310 A  
HETATM   12  C   UNL     1      -9.810   8.596  66.469  1.00  0.00    -0.348 A  
HETATM   13  C   UNL     1      -9.288   7.400  67.001  1.00  0.00    -0.183 A  
HETATM   14  C   UNL     1      -9.281   7.224  68.392  1.00  0.00    -0.137 A  
HETATM   15  C   UNL     1      -9.753   8.213  69.262  1.00  0.00    -0.170 A  
BRANCH  13  16
HETATM   16  C   UNL     1      -8.767   6.327  66.068  1.00  0.00    -0.151 C  
BRANCH  16  17
HETATM   17  S   UNL     1      -9.356   4.708  66.620  1.00  0.00    -0.163 S  
HETATM   18  O   UNL     1     -10.764   4.798  66.951  1.00  0.00    -0.096 OA 
HETATM   19  O   UNL     1      -8.404   4.124  67.540  1.00  0.00    -0.098 OA 
BRANCH  17  20
HETATM   20  N   UNL     1      -9.275   3.760  65.204  1.00  0.00    -0.141 N  
HETATM   21  C   UNL     1     -10.373   4.053  64.243  1.00  0.00    -0.188 C  
HETATM   22  C   UNL     1      -9.890   3.463  62.932  1.00  0.00    -0.113 C  
HETATM   23  C   UNL     1      -8.396   3.721  62.955  1.00  0.00    -0.081 C  
HETATM   24  C   UNL     1      -8.005   3.736  64.432  1.00  0.00    -0.086 C  
ENDBRANCH  17  20
ENDBRANCH  16  17
ENDBRANCH  13  16
ENDBRANCH   5   6
ENDBRANCH   4   5
ENDBRANCH   2   4
TORSDOF 6
ENDMDL
MODEL      188
REMARK 921   NORMALIZED FREE ENERGY PREDICTED BY IDOCK:   -3.98 KCAL/MOL
REMARK 922        TOTAL FREE ENERGY PREDICTED BY IDOCK:   -5.97 KCAL/MOL
REMARK 923 INTER-LIGAND FREE ENERGY PREDICTED BY IDOCK:   -5.42 KCAL/MOL
REMARK 924 INTRA-LIGAND FREE ENERGY PREDICTED BY IDOCK:   -0.55 KCAL/MOL
REMARK 927      BINDING AFFINITY PREDICTED BY RF-SCORE:    0.00 PKD
ROOT
HETATM    1  C   UNL     1      -7.152   6.776  67.255  1.00  0.00    -0.080 C  
HETATM    2  N   UNL     1      -8.519   6.250  67.159  1.00  0.00    -0.108 NA 
HETATM    3  C   UNL     1      -8.792   5.856  65.775  1.00  0.00    -0.139 C  
ENDROOT
BRANCH   2   4
HETATM    4  C   UNL     1      -8.674   5.119  68.098  1.00  0.00    -0.102 C  
BRANCH   4   5
HETATM    5  C   UNL     1     -10.098   4.922  68.652  1.00  0.00    -0.159 C  
BRANCH   5   6
HETATM    6  C   UNL     1     -10.226   5.435  70.057  1.00  0.00    -0.349 A  
HETATM    7  C   UNL     1     -10.047   4.698  71.213  1.00  0.00    -0.175 A  
HETATM    8  N   UNL     1     -10.301   5.508  72.284  1.00  0.00    -0.202 NA 
HETATM    9  C   UNL     1     -10.624   6.775  71.856  1.00  0.00    -0.209 A  
HETATM   10  H   UNL     1     -10.258   5.216  73.261  1.00  0.00     0.000 HD 
HETATM   11  C   UNL     1     -10.573   6.766  70.464  1.00  0.00    -0.260 A  
HETATM   12  C   UNL     1     -10.868   7.965  69.776  1.00  0.00    -0.202 A  
HETATM   13  C   UNL     1     -11.215   9.132  70.486  1.00  0.00    -0.309 A  
HETATM   14  C   UNL     1     -11.240   9.089  71.888  1.00  0.00    -0.438 A  
HETATM   15  C   UNL     1     -10.957   7.915  72.594  1.00  0.00    -0.440 A  
BRANCH  13  16
HETATM   16  C   UNL     1     -11.531  10.406  69.731  1.00  0.00    -0.280 C  
BRANCH  16  17
HETATM   17  S   UNL     1     -10.175  10.791  68.598  1.00  0.00    -0.194 S  
HETATM   18  O   UNL     1     -10.364  10.062  67.359  1.00  0.00    -0.207 OA 
HETATM   19  O   UNL     1      -8.914  10.754  69.306  1.00  0.00    -0.136 OA 
BRANCH  17  20
HETATM   20  N   UNL     1     -10.442  12.431  68.213  1.00  0.00    -0.219 N  
HETATM   21  C   UNL     1     -10.838  12.639  66.792  1.00  0.00    -0.250 C  
HETATM   22  C   UNL     1     -11.434  14.033  66.770  1.00  0.00    -0.379 C  
HETATM   23  C   UNL     1     -12.151  14.134  68.102  1.00  0.00    -0.297 C  
HETATM   24  C   UNL     1     -11.382  13.219  69.053  1.00  0.00    -0.285 C  
ENDBRANCH  17  20
ENDBRANCH  16  17
ENDBRANCH  13  16
ENDBRANCH   5   6
ENDBRANCH   4   5
ENDBRANCH   2   4
TORSDOF 6
ENDMDL
MODEL      189
REMARK 921   NORMALIZED FREE ENERGY PREDICTED BY IDOCK:   -3.98 KCAL/MOL
REMARK 922        TOTAL FREE ENERGY PREDICTED BY IDOCK:   -5.97 KCAL/MOL
REMARK 923 INTER-LIGAND FREE ENERGY PREDICTED BY IDOCK:   -5.89 KCAL/MOL
REMARK 924 INTRA-LIGAND FREE ENERGY PREDICTED BY IDOCK:   -0.08 KCAL/MOL
REMARK 927      BINDING AFFINITY PREDICTED BY RF-SCORE:    0.00 PKD
ROOT
HETATM    1  C   UNL     1      -9.344   5.304  69.268  1.00  0.00    -0.123 C  
HETATM    2  N   UNL     1     -10.304   6.413  69.201  1.00  0.00    -0.191 NA 
HETATM    3  C   UNL     1     -10.938   6.587  70.510  1.00  0.00    -0.294 C  
ENDROOT
BRANCH   2   4
HETATM    4  C   UNL     1      -9.605   7.637  68.757  1.00  0.00    -0.153 C  
BRANCH   4   5
HETATM    5  C   UNL     1      -8.434   7.403  67.783  1.00  0.00    -0.118 C  
BRANCH   5   6
HETATM    6  C   UNL     1      -8.675   8.057  66.454  1.00  0.00    -0.169 A  
HETATM    7  C   UNL     1      -8.148   7.653  65.240  1.00  0.00    -0.133 A  
HETATM    8  N   UNL     1      -8.560   8.533  64.278  1.00  0.00    -0.390 NA 
HETATM    9  C   UNL     1      -9.369   9.497  64.832  1.00  0.00    -0.198 A  
HETATM   10  H   UNL     1      -8.305   8.481  63.292  1.00  0.00     0.000 HD 
HETATM   11  C   UNL     1      -9.472   9.220  66.193  1.00  0.00    -0.298 A  
HETATM   12  C   UNL     1     -10.260  10.078  66.993  1.00  0.00    -0.295 A  
HETATM   13  C   UNL     1     -10.912  11.190  66.424  1.00  0.00    -0.248 A  
HETATM   14  C   UNL     1     -10.784  11.418  65.046  1.00  0.00    -0.340 A  
HETATM   15  C   UNL     1     -10.007  10.588  64.231  1.00  0.00    -0.398 A  
BRANCH  13  16
HETATM   16  C   UNL     1     -11.749  12.101  67.298  1.00  0.00    -0.299 C  
BRANCH  16  17
HETATM   17  S   UNL     1     -10.706  13.413  67.977  1.00  0.00    -0.255 S  
HETATM   18  O   UNL     1      -9.320  13.143  67.649  1.00  0.00    -0.191 OA 
HETATM   19  O   UNL     1     -11.112  13.715  69.332  1.00  0.00    -0.226 OA 
BRANCH  17  20
HETATM   20  N   UNL     1     -11.142  14.777  67.049  1.00  0.00    -0.325 N  
HETATM   21  C   UNL     1      -9.977  15.629  66.683  1.00  0.00    -0.258 C  
HETATM   22  C   UNL     1     -10.487  16.491  65.544  1.00  0.00    -0.320 C  
HETATM   23  C   UNL     1     -11.409  15.562  64.780  1.00  0.00    -0.362 C  
HETATM   24  C   UNL     1     -11.946  14.574  65.814  1.00  0.00    -0.306 C  
ENDBRANCH  17  20
ENDBRANCH  16  17
ENDBRANCH  13  16
ENDBRANCH   5   6
ENDBRANCH   4   5
ENDBRANCH   2   4
TORSDOF 6
ENDMDL
MODEL      190
REMARK 921   NORMALIZED FREE ENERGY PREDICTED BY IDOCK:   -3.97 KCAL/MOL
REMARK 922        TOTAL FREE ENERGY PREDICTED BY IDOCK:   -5.95 KCAL/MOL
REMARK 923 INTER-LIGAND FREE ENERGY PREDICTED BY IDOCK:   -5.31 KCAL/MOL
REMARK 924 INTRA-LIGAND FREE ENERGY PREDICTED BY IDOCK:   -0.64 KCAL/MOL
REMARK 927      BINDING AFFINITY PREDICTED BY RF-SCORE:    0.00 PKD
ROOT
HETATM    1  C   UNL     1     -10.561  15.526  66.850  1.00  0.00    -0.307 C  
HETATM    2  N   UNL     1     -10.278  14.092  66.720  1.00  0.00    -0.259 NA 
HETATM    3  C   UNL     1      -9.326  13.688  67.757  1.00  0.00    -0.218 C  
ENDROOT
BRANCH   2   4
HETATM    4  C   UNL     1     -11.545  13.335  66.806  1.00  0.00    -0.365 C  
BRANCH   4   5
HETATM    5  C   UNL     1     -12.042  12.743  65.473  1.00  0.00    -0.517 C  
BRANCH   5   6
HETATM    6  C   UNL     1     -10.962  11.976  64.766  1.00  0.00    -0.361 A  
HETATM    7  C   UNL     1     -10.407  12.293  63.540  1.00  0.00    -0.410 A  
HETATM    8  N   UNL     1      -9.496  11.327  63.217  1.00  0.00    -0.367 NA 
HETATM    9  C   UNL     1      -9.423  10.388  64.219  1.00  0.00    -0.294 A  
HETATM   10  H   UNL     1      -8.949  11.305  62.356  1.00  0.00     0.000 HD 
HETATM   11  C   UNL     1     -10.322  10.773  65.212  1.00  0.00    -0.327 A  
HETATM   12  C   UNL     1     -10.434   9.962  66.365  1.00  0.00    -0.197 A  
HETATM   13  C   UNL     1      -9.663   8.789  66.492  1.00  0.00    -0.328 A  
HETATM   14  C   UNL     1      -8.766   8.453  65.468  1.00  0.00    -0.196 A  
HETATM   15  C   UNL     1      -8.638   9.235  64.315  1.00  0.00    -0.214 A  
BRANCH  13  16
HETATM   16  C   UNL     1      -9.801   7.930  67.732  1.00  0.00    -0.163 C  
BRANCH  16  17
HETATM   17  S   UNL     1      -8.193   7.783  68.547  1.00  0.00    -0.129 S  
HETATM   18  O   UNL     1      -7.301   7.003  67.711  1.00  0.00    -0.091 OA 
HETATM   19  O   UNL     1      -8.375   7.469  69.947  1.00  0.00    -0.129 OA 
BRANCH  17  20
HETATM   20  N   UNL     1      -7.586   9.377  68.505  1.00  0.00    -0.081 N  
HETATM   21  C   UNL     1      -7.865  10.140  69.753  1.00  0.00    -0.166 C  
HETATM   22  C   UNL     1      -6.906  11.313  69.696  1.00  0.00    -0.095 C  
HETATM   23  C   UNL     1      -5.661  10.725  69.062  1.00  0.00    -0.040 C  
HETATM   24  C   UNL     1      -6.153   9.588  68.169  1.00  0.00    -0.055 C  
ENDBRANCH  17  20
ENDBRANCH  16  17
ENDBRANCH  13  16
ENDBRANCH   5   6
ENDBRANCH   4   5
ENDBRANCH   2   4
TORSDOF 6
ENDMDL
MODEL      191
REMARK 921   NORMALIZED FREE ENERGY PREDICTED BY IDOCK:   -3.96 KCAL/MOL
REMARK 922        TOTAL FREE ENERGY PREDICTED BY IDOCK:   -5.94 KCAL/MOL
REMARK 923 INTER-LIGAND FREE ENERGY PREDICTED BY IDOCK:   -5.38 KCAL/MOL
REMARK 924 INTRA-LIGAND FREE ENERGY PREDICTED BY IDOCK:   -0.56 KCAL/MOL
REMARK 927      BINDING AFFINITY PREDICTED BY RF-SCORE:    0.00 PKD
ROOT
HETATM    1  C   UNL     1     -13.544  14.127  71.979  1.00  0.00    -0.451 C  
HETATM    2  N   UNL     1     -12.955  14.971  70.932  1.00  0.00    -0.387 NA 
HETATM    3  C   UNL     1     -11.954  15.858  71.529  1.00  0.00    -0.471 C  
ENDROOT
BRANCH   2   4
HETATM    4  C   UNL     1     -12.376  14.111  69.879  1.00  0.00    -0.327 C  
BRANCH   4   5
HETATM    5  C   UNL     1     -11.716  14.866  68.709  1.00  0.00    -0.353 C  
BRANCH   5   6
HETATM    6  C   UNL     1     -11.616  14.011  67.479  1.00  0.00    -0.397 A  
HETATM    7  C   UNL     1     -12.493  14.017  66.410  1.00  0.00    -0.355 A  
HETATM    8  N   UNL     1     -12.089  13.064  65.517  1.00  0.00    -0.427 NA 
HETATM    9  C   UNL     1     -10.947  12.444  65.968  1.00  0.00    -0.289 A  
HETATM   10  H   UNL     1     -12.566  12.844  64.642  1.00  0.00     0.000 HD 
HETATM   11  C   UNL     1     -10.616  13.024  67.190  1.00  0.00    -0.251 A  
HETATM   12  C   UNL     1      -9.466  12.555  67.865  1.00  0.00    -0.196 A  
HETATM   13  C   UNL     1      -8.686  11.518  67.314  1.00  0.00    -0.151 A  
HETATM   14  C   UNL     1      -9.057  10.976  66.075  1.00  0.00    -0.212 A  
HETATM   15  C   UNL     1     -10.193  11.419  65.388  1.00  0.00    -0.320 A  
BRANCH  13  16
HETATM   16  C   UNL     1      -7.460  11.026  68.053  1.00  0.00    -0.090 C  
BRANCH  16  17
HETATM   17  S   UNL     1      -7.865   9.513  68.958  1.00  0.00    -0.080 S  
HETATM   18  O   UNL     1      -9.287   9.491  69.243  1.00  0.00    -0.154 OA 
HETATM   19  O   UNL     1      -6.888   9.284  69.999  1.00  0.00    -0.043 OA 
BRANCH  17  20
HETATM   20  N   UNL     1      -7.608   8.286  67.802  1.00  0.00    -0.100 N  
HETATM   21  C   UNL     1      -6.453   7.406  68.132  1.00  0.00    -0.046 C  
HETATM   22  C   UNL     1      -6.660   6.177  67.269  1.00  0.00    -0.055 C  
HETATM   23  C   UNL     1      -8.165   5.999  67.257  1.00  0.00    -0.106 C  
HETATM   24  C   UNL     1      -8.745   7.402  67.433  1.00  0.00    -0.121 C  
ENDBRANCH  17  20
ENDBRANCH  16  17
ENDBRANCH  13  16
ENDBRANCH   5   6
ENDBRANCH   4   5
ENDBRANCH   2   4
TORSDOF 6
ENDMDL
MODEL      192
REMARK 921   NORMALIZED FREE ENERGY PREDICTED BY IDOCK:   -3.96 KCAL/MOL
REMARK 922        TOTAL FREE ENERGY PREDICTED BY IDOCK:   -5.94 KCAL/MOL
REMARK 923 INTER-LIGAND FREE ENERGY PREDICTED BY IDOCK:   -5.56 KCAL/MOL
REMARK 924 INTRA-LIGAND FREE ENERGY PREDICTED BY IDOCK:   -0.38 KCAL/MOL
REMARK 927      BINDING AFFINITY PREDICTED BY RF-SCORE:    0.00 PKD
ROOT
HETATM    1  C   UNL     1     -11.888  13.093  64.252  1.00  0.00    -0.406 C  
HETATM    2  N   UNL     1     -11.286  12.036  65.073  1.00  0.00    -0.324 NA 
HETATM    3  C   UNL     1     -10.561  11.103  64.208  1.00  0.00    -0.357 C  
ENDROOT
BRANCH   2   4
HETATM    4  C   UNL     1     -10.406  12.648  66.090  1.00  0.00    -0.256 C  
BRANCH   4   5
HETATM    5  C   UNL     1      -9.725  11.652  67.048  1.00  0.00    -0.201 C  
BRANCH   5   6
HETATM    6  C   UNL     1     -10.671  11.162  68.107  1.00  0.00    -0.244 A  
HETATM    7  C   UNL     1     -12.033  11.394  68.152  1.00  0.00    -0.130 A  
HETATM    8  N   UNL     1     -12.528  10.828  69.294  1.00  0.00    -0.684 NA 
HETATM    9  C   UNL     1     -11.520  10.207  69.992  1.00  0.00    -0.277 A  
HETATM   10  H   UNL     1     -13.505  10.862  69.585  1.00  0.00     0.000 HD 
HETATM   11  C   UNL     1     -10.343  10.387  69.268  1.00  0.00    -0.250 A  
HETATM   12  C   UNL     1      -9.149   9.833  69.782  1.00  0.00    -0.246 A  
HETATM   13  C   UNL     1      -9.154   9.130  71.003  1.00  0.00    -0.305 A  
HETATM   14  C   UNL     1     -10.368   8.968  71.687  1.00  0.00    -0.420 A  
HETATM   15  C   UNL     1     -11.563   9.509  71.203  1.00  0.00    -0.439 A  
BRANCH  13  16
HETATM   16  C   UNL     1      -7.863   8.547  71.541  1.00  0.00    -0.125 C  
BRANCH  16  17
HETATM   17  S   UNL     1      -7.853   6.757  71.283  1.00  0.00    -0.102 S  
HETATM   18  O   UNL     1      -8.908   6.153  72.073  1.00  0.00    -0.139 OA 
HETATM   19  O   UNL     1      -6.497   6.258  71.334  1.00  0.00    -0.047 OA 
BRANCH  17  20
HETATM   20  N   UNL     1      -8.346   6.595  69.658  1.00  0.00    -0.130 N  
HETATM   21  C   UNL     1      -7.273   6.061  68.774  1.00  0.00    -0.083 C  
HETATM   22  C   UNL     1      -8.009   5.592  67.533  1.00  0.00    -0.102 C  
HETATM   23  C   UNL     1      -9.312   5.042  68.079  1.00  0.00    -0.152 C  
HETATM   24  C   UNL     1      -9.585   5.829  69.360  1.00  0.00    -0.140 C  
ENDBRANCH  17  20
ENDBRANCH  16  17
ENDBRANCH  13  16
ENDBRANCH   5   6
ENDBRANCH   4   5
ENDBRANCH   2   4
TORSDOF 6
ENDMDL
MODEL      193
REMARK 921   NORMALIZED FREE ENERGY PREDICTED BY IDOCK:   -3.94 KCAL/MOL
REMARK 922        TOTAL FREE ENERGY PREDICTED BY IDOCK:   -5.91 KCAL/MOL
REMARK 923 INTER-LIGAND FREE ENERGY PREDICTED BY IDOCK:   -5.22 KCAL/MOL
REMARK 924 INTRA-LIGAND FREE ENERGY PREDICTED BY IDOCK:   -0.69 KCAL/MOL
REMARK 927      BINDING AFFINITY PREDICTED BY RF-SCORE:    0.00 PKD
ROOT
HETATM    1  C   UNL     1     -10.523  14.920  65.510  1.00  0.00    -0.360 C  
HETATM    2  N   UNL     1      -9.556  14.183  66.332  1.00  0.00    -0.293 NA 
HETATM    3  C   UNL     1      -9.333  14.906  67.586  1.00  0.00    -0.191 C  
ENDROOT
BRANCH   2   4
HETATM    4  C   UNL     1     -10.057  12.812  66.564  1.00  0.00    -0.258 C  
BRANCH   4   5
HETATM    5  C   UNL     1     -11.551  12.717  66.930  1.00  0.00    -0.438 C  
BRANCH   5   6
HETATM    6  C   UNL     1     -11.750  12.363  68.375  1.00  0.00    -0.386 A  
HETATM    7  C   UNL     1     -12.147  13.229  69.378  1.00  0.00    -0.248 A  
HETATM    8  N   UNL     1     -12.161  12.541  70.560  1.00  0.00    -0.404 NA 
HETATM    9  C   UNL     1     -11.802  11.230  70.350  1.00  0.00    -0.350 A  
HETATM   10  H   UNL     1     -12.404  12.943  71.466  1.00  0.00     0.000 HD 
HETATM   11  C   UNL     1     -11.549  11.083  68.989  1.00  0.00    -0.392 A  
HETATM   12  C   UNL     1     -11.159   9.809  68.514  1.00  0.00    -0.138 A  
HETATM   13  C   UNL     1     -11.018   8.726  69.404  1.00  0.00    -0.046 A  
HETATM   14  C   UNL     1     -11.295   8.926  70.765  1.00  0.00    -0.325 A  
HETATM   15  C   UNL     1     -11.679  10.176  71.262  1.00  0.00    -0.426 A  
BRANCH  13  16
HETATM   16  C   UNL     1     -10.594   7.371  68.878  1.00  0.00    -0.176 C  
BRANCH  16  17
HETATM   17  S   UNL     1      -8.809   7.366  68.587  1.00  0.00    -0.125 S  
HETATM   18  O   UNL     1      -8.523   8.068  67.350  1.00  0.00    -0.124 OA 
HETATM   19  O   UNL     1      -8.270   6.049  68.843  1.00  0.00    -0.103 OA 
BRANCH  17  20
HETATM   20  N   UNL     1      -8.207   8.364  69.832  1.00  0.00    -0.119 N  
HETATM   21  C   UNL     1      -7.403   7.619  70.839  1.00  0.00    -0.066 C  
HETATM   22  C   UNL     1      -6.627   8.697  71.571  1.00  0.00    -0.075 C  
HETATM   23  C   UNL     1      -6.306   9.705  70.484  1.00  0.00    -0.088 C  
HETATM   24  C   UNL     1      -7.437   9.581  69.464  1.00  0.00    -0.092 C  
ENDBRANCH  17  20
ENDBRANCH  16  17
ENDBRANCH  13  16
ENDBRANCH   5   6
ENDBRANCH   4   5
ENDBRANCH   2   4
TORSDOF 6
ENDMDL
MODEL      194
REMARK 921   NORMALIZED FREE ENERGY PREDICTED BY IDOCK:   -3.93 KCAL/MOL
REMARK 922        TOTAL FREE ENERGY PREDICTED BY IDOCK:   -5.90 KCAL/MOL
REMARK 923 INTER-LIGAND FREE ENERGY PREDICTED BY IDOCK:   -5.58 KCAL/MOL
REMARK 924 INTRA-LIGAND FREE ENERGY PREDICTED BY IDOCK:   -0.32 KCAL/MOL
REMARK 927      BINDING AFFINITY PREDICTED BY RF-SCORE:    0.00 PKD
ROOT
HETATM    1  C   UNL     1      -7.568   3.787  71.074  1.00  0.00    -0.047 C  
HETATM    2  N   UNL     1      -8.129   4.891  70.287  1.00  0.00    -0.076 NA 
HETATM    3  C   UNL     1      -9.571   4.689  70.125  1.00  0.00    -0.196 C  
ENDROOT
BRANCH   2   4
HETATM    4  C   UNL     1      -7.821   6.173  70.955  1.00  0.00    -0.114 C  
BRANCH   4   5
HETATM    5  C   UNL     1      -8.220   7.434  70.164  1.00  0.00    -0.133 C  
BRANCH   5   6
HETATM    6  C   UNL     1      -9.366   8.158  70.811  1.00  0.00    -0.174 A  
HETATM    7  C   UNL     1      -9.890   7.899  72.064  1.00  0.00    -0.192 A  
HETATM    8  N   UNL     1     -10.952   8.735  72.267  1.00  0.00    -0.331 NA 
HETATM    9  C   UNL     1     -11.125   9.556  71.179  1.00  0.00    -0.379 A  
HETATM   10  H   UNL     1     -11.533   8.746  73.106  1.00  0.00     0.000 HD 
HETATM   11  C   UNL     1     -10.138   9.229  70.252  1.00  0.00    -0.262 A  
HETATM   12  C   UNL     1     -10.102   9.943  69.032  1.00  0.00    -0.199 A  
HETATM   13  C   UNL     1     -11.051  10.949  68.763  1.00  0.00    -0.310 A  
HETATM   14  C   UNL     1     -12.017  11.247  69.735  1.00  0.00    -0.431 A  
HETATM   15  C   UNL     1     -12.079  10.553  70.948  1.00  0.00    -0.487 A  
BRANCH  13  16
HETATM   16  C   UNL     1     -10.998  11.700  67.449  1.00  0.00    -0.261 C  
BRANCH  16  17
HETATM   17  S   UNL     1      -9.703  12.960  67.523  1.00  0.00    -0.211 S  
HETATM   18  O   UNL     1      -9.567  13.585  66.222  1.00  0.00    -0.272 OA 
HETATM   19  O   UNL     1      -8.552  12.445  68.232  1.00  0.00    -0.177 OA 
BRANCH  17  20
HETATM   20  N   UNL     1     -10.377  14.154  68.539  1.00  0.00    -0.245 N  
HETATM   21  C   UNL     1      -9.398  15.203  68.935  1.00  0.00    -0.207 C  
HETATM   22  C   UNL     1     -10.257  16.347  69.437  1.00  0.00    -0.273 C  
HETATM   23  C   UNL     1     -11.468  16.309  68.525  1.00  0.00    -0.272 C  
HETATM   24  C   UNL     1     -11.616  14.849  68.100  1.00  0.00    -0.334 C  
ENDBRANCH  17  20
ENDBRANCH  16  17
ENDBRANCH  13  16
ENDBRANCH   5   6
ENDBRANCH   4   5
ENDBRANCH   2   4
TORSDOF 6
ENDMDL
MODEL      195
REMARK 921   NORMALIZED FREE ENERGY PREDICTED BY IDOCK:   -3.92 KCAL/MOL
REMARK 922        TOTAL FREE ENERGY PREDICTED BY IDOCK:   -5.89 KCAL/MOL
REMARK 923 INTER-LIGAND FREE ENERGY PREDICTED BY IDOCK:   -5.85 KCAL/MOL
REMARK 924 INTRA-LIGAND FREE ENERGY PREDICTED BY IDOCK:   -0.04 KCAL/MOL
REMARK 927      BINDING AFFINITY PREDICTED BY RF-SCORE:    0.00 PKD
ROOT
HETATM    1  C   UNL     1      -5.444  10.100  65.440  1.00  0.00    -0.075 C  
HETATM    2  N   UNL     1      -6.426   9.329  66.211  1.00  0.00    -0.065 NA 
HETATM    3  C   UNL     1      -6.032   9.311  67.621  1.00  0.00    -0.053 C  
ENDROOT
BRANCH   2   4
HETATM    4  C   UNL     1      -7.768   9.917  66.018  1.00  0.00    -0.108 C  
BRANCH   4   5
HETATM    5  C   UNL     1      -8.476   9.513  64.710  1.00  0.00    -0.170 C  
BRANCH   5   6
HETATM    6  C   UNL     1      -9.439  10.569  64.248  1.00  0.00    -0.337 A  
HETATM    7  C   UNL     1      -9.886  10.752  62.952  1.00  0.00    -0.256 A  
HETATM    8  N   UNL     1     -10.708  11.844  62.931  1.00  0.00    -0.599 NA 
HETATM    9  C   UNL     1     -10.829  12.372  64.195  1.00  0.00    -0.372 A  
HETATM   10  H   UNL     1     -11.166  12.214  62.098  1.00  0.00     0.000 HD 
HETATM   11  C   UNL     1     -10.055  11.588  65.047  1.00  0.00    -0.315 A  
HETATM   12  C   UNL     1     -10.014  11.928  66.419  1.00  0.00    -0.237 A  
HETATM   13  C   UNL     1     -10.730  13.042  66.901  1.00  0.00    -0.273 A  
HETATM   14  C   UNL     1     -11.502  13.792  66.003  1.00  0.00    -0.336 A  
HETATM   15  C   UNL     1     -11.557  13.480  64.640  1.00  0.00    -0.395 A  
BRANCH  13  16
HETATM   16  C   UNL     1     -10.670  13.394  68.373  1.00  0.00    -0.256 C  
BRANCH  16  17
HETATM   17  S   UNL     1     -11.649  12.205  69.320  1.00  0.00    -0.329 S  
HETATM   18  O   UNL     1     -10.765  11.405  70.145  1.00  0.00     0.226 OA 
HETATM   19  O   UNL     1     -12.640  11.589  68.466  1.00  0.00    -0.142 OA 
BRANCH  17  20
HETATM   20  N   UNL     1     -12.521  13.192  70.404  1.00  0.00    -0.256 N  
HETATM   21  C   UNL     1     -12.868  12.498  71.675  1.00  0.00    -0.263 C  
HETATM   22  C   UNL     1     -13.225  13.621  72.629  1.00  0.00    -0.533 C  
HETATM   23  C   UNL     1     -12.263  14.730  72.249  1.00  0.00    -0.382 C  
HETATM   24  C   UNL     1     -11.964  14.523  70.765  1.00  0.00    -0.322 C  
ENDBRANCH  17  20
ENDBRANCH  16  17
ENDBRANCH  13  16
ENDBRANCH   5   6
ENDBRANCH   4   5
ENDBRANCH   2   4
TORSDOF 6
ENDMDL
MODEL      196
REMARK 921   NORMALIZED FREE ENERGY PREDICTED BY IDOCK:   -3.91 KCAL/MOL
REMARK 922        TOTAL FREE ENERGY PREDICTED BY IDOCK:   -5.87 KCAL/MOL
REMARK 923 INTER-LIGAND FREE ENERGY PREDICTED BY IDOCK:   -5.40 KCAL/MOL
REMARK 924 INTRA-LIGAND FREE ENERGY PREDICTED BY IDOCK:   -0.47 KCAL/MOL
REMARK 927      BINDING AFFINITY PREDICTED BY RF-SCORE:    0.00 PKD
ROOT
HETATM    1  C   UNL     1      -9.754  14.784  65.801  1.00  0.00    -0.313 C  
HETATM    2  N   UNL     1     -10.934  13.912  65.832  1.00  0.00    -0.283 NA 
HETATM    3  C   UNL     1     -11.818  14.251  64.715  1.00  0.00    -0.429 C  
ENDROOT
BRANCH   2   4
HETATM    4  C   UNL     1     -10.499  12.500  65.785  1.00  0.00    -0.271 C  
BRANCH   4   5
HETATM    5  C   UNL     1      -9.703  12.022  67.015  1.00  0.00    -0.204 C  
BRANCH   5   6
HETATM    6  C   UNL     1     -10.600  11.425  68.061  1.00  0.00    -0.224 A  
HETATM    7  C   UNL     1     -11.962  11.636  68.183  1.00  0.00    -0.144 A  
HETATM    8  N   UNL     1     -12.405  10.962  69.287  1.00  0.00    -0.641 NA 
HETATM    9  C   UNL     1     -11.363  10.290  69.883  1.00  0.00    -0.290 A  
HETATM   10  H   UNL     1     -13.369  10.957  69.620  1.00  0.00     0.000 HD 
HETATM   11  C   UNL     1     -10.219  10.550  69.131  1.00  0.00    -0.241 A  
HETATM   12  C   UNL     1      -9.000   9.965  69.544  1.00  0.00    -0.224 A  
HETATM   13  C   UNL     1      -8.949   9.152  70.694  1.00  0.00    -0.292 A  
HETATM   14  C   UNL     1     -10.132   8.914  71.408  1.00  0.00    -0.379 A  
HETATM   15  C   UNL     1     -11.351   9.483  71.025  1.00  0.00    -0.423 A  
BRANCH  13  16
HETATM   16  C   UNL     1      -7.633   8.538  71.122  1.00  0.00    -0.096 C  
BRANCH  16  17
HETATM   17  S   UNL     1      -7.544   6.828  70.538  1.00  0.00    -0.093 S  
HETATM   18  O   UNL     1      -6.167   6.375  70.588  1.00  0.00    -0.036 OA 
HETATM   19  O   UNL     1      -8.341   6.673  69.342  1.00  0.00    -0.125 OA 
BRANCH  17  20
HETATM   20  N   UNL     1      -8.360   5.956  71.756  1.00  0.00    -0.119 N  
HETATM   21  C   UNL     1      -9.586   5.271  71.260  1.00  0.00    -0.159 C  
HETATM   22  C   UNL     1      -9.898   4.243  72.330  1.00  0.00    -0.227 C  
HETATM   23  C   UNL     1      -8.529   3.779  72.788  1.00  0.00    -0.094 C  
HETATM   24  C   UNL     1      -7.596   4.968  72.562  1.00  0.00    -0.096 C  
ENDBRANCH  17  20
ENDBRANCH  16  17
ENDBRANCH  13  16
ENDBRANCH   5   6
ENDBRANCH   4   5
ENDBRANCH   2   4
TORSDOF 6
ENDMDL
MODEL      197
REMARK 921   NORMALIZED FREE ENERGY PREDICTED BY IDOCK:   -3.89 KCAL/MOL
REMARK 922        TOTAL FREE ENERGY PREDICTED BY IDOCK:   -5.84 KCAL/MOL
REMARK 923 INTER-LIGAND FREE ENERGY PREDICTED BY IDOCK:   -5.94 KCAL/MOL
REMARK 924 INTRA-LIGAND FREE ENERGY PREDICTED BY IDOCK:    0.09 KCAL/MOL
REMARK 927      BINDING AFFINITY PREDICTED BY RF-SCORE:    0.00 PKD
ROOT
HETATM    1  C   UNL     1     -12.043  16.239  72.269  1.00  0.00    -0.486 C  
HETATM    2  N   UNL     1     -12.199  15.692  70.916  1.00  0.00    -0.391 NA 
HETATM    3  C   UNL     1     -10.879  15.520  70.305  1.00  0.00    -0.339 C  
ENDROOT
BRANCH   2   4
HETATM    4  C   UNL     1     -12.947  14.419  70.987  1.00  0.00    -0.349 C  
BRANCH   4   5
HETATM    5  C   UNL     1     -12.268  13.223  70.291  1.00  0.00    -0.391 C  
BRANCH   5   6
HETATM    6  C   UNL     1     -12.589  11.925  70.975  1.00  0.00    -0.381 A  
HETATM    7  C   UNL     1     -13.523  11.742  71.978  1.00  0.00    -0.214 A  
HETATM    8  N   UNL     1     -13.481  10.433  72.371  1.00  0.00    -0.548 NA 
HETATM    9  C   UNL     1     -12.552   9.744  71.628  1.00  0.00    -0.416 A  
HETATM   10  H   UNL     1     -14.057  10.027  73.109  1.00  0.00     0.000 HD 
HETATM   11  C   UNL     1     -11.983  10.648  70.734  1.00  0.00    -0.477 A  
HETATM   12  C   UNL     1     -10.987  10.177  69.848  1.00  0.00    -0.344 A  
HETATM   13  C   UNL     1     -10.577   8.829  69.883  1.00  0.00    -0.230 A  
HETATM   14  C   UNL     1     -11.190   7.958  70.795  1.00  0.00    -0.274 A  
HETATM   15  C   UNL     1     -12.175   8.398  71.687  1.00  0.00    -0.358 A  
BRANCH  13  16
HETATM   16  C   UNL     1      -9.506   8.344  68.929  1.00  0.00    -0.147 C  
BRANCH  16  17
HETATM   17  S   UNL     1      -8.040   9.392  69.081  1.00  0.00    -0.112 S  
HETATM   18  O   UNL     1      -8.382  10.589  69.824  1.00  0.00    -0.087 OA 
HETATM   19  O   UNL     1      -7.353   9.469  67.810  1.00  0.00    -0.082 OA 
BRANCH  17  20
HETATM   20  N   UNL     1      -7.019   8.489  70.106  1.00  0.00    -0.042 N  
HETATM   21  C   UNL     1      -7.483   8.470  71.521  1.00  0.00    -0.105 C  
HETATM   22  C   UNL     1      -6.733   7.309  72.145  1.00  0.00    -0.055 C  
HETATM   23  C   UNL     1      -6.671   6.284  71.030  1.00  0.00    -0.058 C  
HETATM   24  C   UNL     1      -6.686   7.089  69.731  1.00  0.00    -0.049 C  
ENDBRANCH  17  20
ENDBRANCH  16  17
ENDBRANCH  13  16
ENDBRANCH   5   6
ENDBRANCH   4   5
ENDBRANCH   2   4
TORSDOF 6
ENDMDL
MODEL      198
REMARK 921   NORMALIZED FREE ENERGY PREDICTED BY IDOCK:   -3.89 KCAL/MOL
REMARK 922        TOTAL FREE ENERGY PREDICTED BY IDOCK:   -5.84 KCAL/MOL
REMARK 923 INTER-LIGAND FREE ENERGY PREDICTED BY IDOCK:   -5.43 KCAL/MOL
REMARK 924 INTRA-LIGAND FREE ENERGY PREDICTED BY IDOCK:   -0.41 KCAL/MOL
REMARK 927      BINDING AFFINITY PREDICTED BY RF-SCORE:    0.00 PKD
ROOT
HETATM    1  C   UNL     1     -12.890  14.080  65.272  1.00  0.00    -0.384 C  
HETATM    2  N   UNL     1     -12.702  12.661  64.946  1.00  0.00    -0.778 NA 
HETATM    3  C   UNL     1     -12.373  12.527  63.526  1.00  0.00    -0.525 C  
ENDROOT
BRANCH   2   4
HETATM    4  C   UNL     1     -11.648  12.097  65.815  1.00  0.00    -0.355 C  
BRANCH   4   5
HETATM    5  C   UNL     1     -10.208  12.491  65.434  1.00  0.00    -0.303 C  
BRANCH   5   6
HETATM    6  C   UNL     1      -9.327  12.621  66.643  1.00  0.00    -0.236 A  
HETATM    7  C   UNL     1      -8.985  13.801  67.279  1.00  0.00    -0.224 A  
HETATM    8  N   UNL     1      -8.129  13.505  68.303  1.00  0.00    -0.150 NA 
HETATM    9  C   UNL     1      -7.917  12.148  68.368  1.00  0.00    -0.152 A  
HETATM   10  H   UNL     1      -7.709  14.193  68.928  1.00  0.00     0.000 HD 
HETATM   11  C   UNL     1      -8.664  11.563  67.348  1.00  0.00    -0.147 A  
HETATM   12  C   UNL     1      -8.614  10.157  67.204  1.00  0.00    -0.125 A  
HETATM   13  C   UNL     1      -7.818   9.377  68.066  1.00  0.00    -0.091 A  
HETATM   14  C   UNL     1      -7.094  10.016  69.083  1.00  0.00    -0.069 A  
HETATM   15  C   UNL     1      -7.121  11.405  69.245  1.00  0.00    -0.100 A  
BRANCH  13  16
HETATM   16  C   UNL     1      -7.774   7.873  67.893  1.00  0.00    -0.125 C  
BRANCH  16  17
HETATM   17  S   UNL     1      -8.441   7.075  69.373  1.00  0.00    -0.134 S  
HETATM   18  O   UNL     1      -7.355   6.771  70.284  1.00  0.00    -0.080 OA 
HETATM   19  O   UNL     1      -9.409   6.068  68.997  1.00  0.00    -0.124 OA 
BRANCH  17  20
HETATM   20  N   UNL     1      -9.334   8.321  70.120  1.00  0.00    -0.158 N  
HETATM   21  C   UNL     1     -10.759   8.355  69.692  1.00  0.00    -0.198 C  
HETATM   22  C   UNL     1     -11.447   9.197  70.749  1.00  0.00    -0.337 C  
HETATM   23  C   UNL     1     -10.728   8.820  72.029  1.00  0.00    -0.417 C  
HETATM   24  C   UNL     1      -9.315   8.423  71.604  1.00  0.00    -0.214 C  
ENDBRANCH  17  20
ENDBRANCH  16  17
ENDBRANCH  13  16
ENDBRANCH   5   6
ENDBRANCH   4   5
ENDBRANCH   2   4
TORSDOF 6
ENDMDL
MODEL      199
REMARK 921   NORMALIZED FREE ENERGY PREDICTED BY IDOCK:   -3.88 KCAL/MOL
REMARK 922        TOTAL FREE ENERGY PREDICTED BY IDOCK:   -5.83 KCAL/MOL
REMARK 923 INTER-LIGAND FREE ENERGY PREDICTED BY IDOCK:   -5.29 KCAL/MOL
REMARK 924 INTRA-LIGAND FREE ENERGY PREDICTED BY IDOCK:   -0.55 KCAL/MOL
REMARK 927      BINDING AFFINITY PREDICTED BY RF-SCORE:    0.00 PKD
ROOT
HETATM    1  C   UNL     1      -7.902   6.274  74.216  1.00  0.00    -0.098 C  
HETATM    2  N   UNL     1      -9.098   5.866  73.469  1.00  0.00    -0.132 NA 
HETATM    3  C   UNL     1     -10.091   5.324  74.399  1.00  0.00    -0.251 C  
ENDROOT
BRANCH   2   4
HETATM    4  C   UNL     1      -9.620   7.023  72.713  1.00  0.00    -0.148 C  
BRANCH   4   5
HETATM    5  C   UNL     1      -8.631   7.645  71.707  1.00  0.00    -0.130 C  
BRANCH   5   6
HETATM    6  C   UNL     1      -8.924   7.215  70.299  1.00  0.00    -0.152 A  
HETATM    7  C   UNL     1      -8.934   5.913  69.831  1.00  0.00    -0.139 A  
HETATM    8  N   UNL     1      -9.193   5.941  68.489  1.00  0.00    -0.117 NA 
HETATM    9  C   UNL     1      -9.376   7.237  68.067  1.00  0.00    -0.130 A  
HETATM   10  H   UNL     1      -9.242   5.119  67.887  1.00  0.00     0.000 HD 
HETATM   11  C   UNL     1      -9.226   8.060  69.181  1.00  0.00    -0.151 A  
HETATM   12  C   UNL     1      -9.371   9.456  69.007  1.00  0.00    -0.153 A  
HETATM   13  C   UNL     1      -9.646   9.993  67.734  1.00  0.00    -0.168 A  
HETATM   14  C   UNL     1      -9.797   9.120  66.647  1.00  0.00    -0.307 A  
HETATM   15  C   UNL     1      -9.655   7.735  66.790  1.00  0.00    -0.274 A  
BRANCH  13  16
HETATM   16  C   UNL     1      -9.793  11.491  67.566  1.00  0.00    -0.190 C  
BRANCH  16  17
HETATM   17  S   UNL     1     -11.548  11.925  67.511  1.00  0.00    -0.271 S  
HETATM   18  O   UNL     1     -12.269  11.127  68.483  1.00  0.00    -0.600 OA 
HETATM   19  O   UNL     1     -11.991  12.017  66.138  1.00  0.00    -0.581 OA 
BRANCH  17  20
HETATM   20  N   UNL     1     -11.575  13.520  68.115  1.00  0.00    -0.311 N  
HETATM   21  C   UNL     1     -12.312  13.645  69.402  1.00  0.00    -0.153 C  
HETATM   22  C   UNL     1     -11.859  14.977  69.966  1.00  0.00    -0.360 C  
HETATM   23  C   UNL     1     -10.400  15.057  69.562  1.00  0.00    -0.230 C  
HETATM   24  C   UNL     1     -10.287  14.247  68.271  1.00  0.00    -0.242 C  
ENDBRANCH  17  20
ENDBRANCH  16  17
ENDBRANCH  13  16
ENDBRANCH   5   6
ENDBRANCH   4   5
ENDBRANCH   2   4
TORSDOF 6
ENDMDL
MODEL      200
REMARK 921   NORMALIZED FREE ENERGY PREDICTED BY IDOCK:   -3.88 KCAL/MOL
REMARK 922        TOTAL FREE ENERGY PREDICTED BY IDOCK:   -5.83 KCAL/MOL
REMARK 923 INTER-LIGAND FREE ENERGY PREDICTED BY IDOCK:   -5.56 KCAL/MOL
REMARK 924 INTRA-LIGAND FREE ENERGY PREDICTED BY IDOCK:   -0.27 KCAL/MOL
REMARK 927      BINDING AFFINITY PREDICTED BY RF-SCORE:    0.00 PKD
ROOT
HETATM    1  C   UNL     1      -9.920   4.235  65.446  1.00  0.00    -0.223 C  
HETATM    2  N   UNL     1      -9.771   4.491  66.883  1.00  0.00    -0.190 NA 
HETATM    3  C   UNL     1      -9.397   3.248  67.562  1.00  0.00    -0.206 C  
ENDROOT
BRANCH   2   4
HETATM    4  C   UNL     1      -8.769   5.558  67.089  1.00  0.00    -0.107 C  
BRANCH   4   5
HETATM    5  C   UNL     1      -9.353   6.955  67.375  1.00  0.00    -0.144 C  
BRANCH   5   6
HETATM    6  C   UNL     1      -9.222   7.868  66.190  1.00  0.00    -0.208 A  
HETATM    7  C   UNL     1      -8.474   7.623  65.053  1.00  0.00    -0.013 A  
HETATM    8  N   UNL     1      -8.570   8.712  64.232  1.00  0.00    -0.377 NA 
HETATM    9  C   UNL     1      -9.387   9.663  64.798  1.00  0.00    -0.222 A  
HETATM   10  H   UNL     1      -8.103   8.806  63.330  1.00  0.00     0.000 HD 
HETATM   11  C   UNL     1      -9.822   9.159  66.021  1.00  0.00    -0.342 A  
HETATM   12  C   UNL     1     -10.686   9.958  66.805  1.00  0.00    -0.154 A  
HETATM   13  C   UNL     1     -11.081  11.235  66.360  1.00  0.00    -0.257 A  
HETATM   14  C   UNL     1     -10.622  11.690  65.115  1.00  0.00    -0.343 A  
HETATM   15  C   UNL     1      -9.764  10.922  64.321  1.00  0.00    -0.347 A  
BRANCH  13  16
HETATM   16  C   UNL     1     -12.004  12.078  67.215  1.00  0.00    -0.039 C  
BRANCH  16  17
HETATM   17  S   UNL     1     -11.266  12.312  68.850  1.00  0.00    -0.285 S  
HETATM   18  O   UNL     1     -11.926  13.416  69.520  1.00  0.00    -0.308 OA 
HETATM   19  O   UNL     1      -9.825  12.245  68.756  1.00  0.00    -0.136 OA 
BRANCH  17  20
HETATM   20  N   UNL     1     -11.741  10.910  69.697  1.00  0.00    -0.302 N  
HETATM   21  C   UNL     1     -10.590  10.142  70.247  1.00  0.00    -0.264 C  
HETATM   22  C   UNL     1     -11.210   9.232  71.288  1.00  0.00    -0.425 C  
HETATM   23  C   UNL     1     -12.311  10.081  71.894  1.00  0.00    -0.348 C  
HETATM   24  C   UNL     1     -12.746  11.038  70.785  1.00  0.00    -0.323 C  
ENDBRANCH  17  20
ENDBRANCH  16  17
ENDBRANCH  13  16
ENDBRANCH   5   6
ENDBRANCH   4   5
ENDBRANCH   2   4
TORSDOF 6
ENDMDL
MODEL      201
REMARK 921   NORMALIZED FREE ENERGY PREDICTED BY IDOCK:   -3.86 KCAL/MOL
REMARK 922        TOTAL FREE ENERGY PREDICTED BY IDOCK:   -5.81 KCAL/MOL
REMARK 923 INTER-LIGAND FREE ENERGY PREDICTED BY IDOCK:   -6.02 KCAL/MOL
REMARK 924 INTRA-LIGAND FREE ENERGY PREDICTED BY IDOCK:    0.21 KCAL/MOL
REMARK 927      BINDING AFFINITY PREDICTED BY RF-SCORE:    0.00 PKD
ROOT
HETATM    1  C   UNL     1      -8.767   7.608  73.319  1.00  0.00    -0.190 C  
HETATM    2  N   UNL     1      -9.818   7.675  72.297  1.00  0.00    -0.168 NA 
HETATM    3  C   UNL     1     -11.082   7.204  72.867  1.00  0.00    -0.298 C  
ENDROOT
BRANCH   2   4
HETATM    4  C   UNL     1      -9.920   9.060  71.791  1.00  0.00    -0.289 C  
BRANCH   4   5
HETATM    5  C   UNL     1      -8.907   9.428  70.689  1.00  0.00    -0.275 C  
BRANCH   5   6
HETATM    6  C   UNL     1      -9.522   9.360  69.321  1.00  0.00    -0.164 A  
HETATM    7  C   UNL     1     -10.005   8.222  68.701  1.00  0.00    -0.190 A  
HETATM    8  N   UNL     1     -10.436   8.564  67.449  1.00  0.00    -0.321 NA 
HETATM    9  C   UNL     1     -10.266   9.913  67.241  1.00  0.00    -0.222 A  
HETATM   10  H   UNL     1     -10.826   7.912  66.768  1.00  0.00     0.000 HD 
HETATM   11  C   UNL     1      -9.706  10.444  68.400  1.00  0.00    -0.167 A  
HETATM   12  C   UNL     1      -9.433  11.831  68.438  1.00  0.00    -0.188 A  
HETATM   13  C   UNL     1      -9.711  12.645  67.322  1.00  0.00    -0.207 A  
HETATM   14  C   UNL     1     -10.284  12.061  66.183  1.00  0.00    -0.255 A  
HETATM   15  C   UNL     1     -10.560  10.692  66.117  1.00  0.00    -0.211 A  
BRANCH  13  16
HETATM   16  C   UNL     1      -9.407  14.128  67.379  1.00  0.00    -0.215 C  
BRANCH  16  17
HETATM   17  S   UNL     1     -10.830  15.061  66.766  1.00  0.00    -0.320 S  
HETATM   18  O   UNL     1     -11.782  14.145  66.169  1.00  0.00    -0.363 OA 
HETATM   19  O   UNL     1     -10.379  16.240  66.060  1.00  0.00    -0.319 OA 
BRANCH  17  20
HETATM   20  N   UNL     1     -11.569  15.629  68.194  1.00  0.00    -0.330 N  
HETATM   21  C   UNL     1     -12.182  14.541  69.006  1.00  0.00    -0.180 C  
HETATM   22  C   UNL     1     -12.378  15.161  70.375  1.00  0.00    -0.411 C  
HETATM   23  C   UNL     1     -11.167  16.059  70.537  1.00  0.00    -0.397 C  
HETATM   24  C   UNL     1     -10.775  16.478  69.121  1.00  0.00    -0.335 C  
ENDBRANCH  17  20
ENDBRANCH  16  17
ENDBRANCH  13  16
ENDBRANCH   5   6
ENDBRANCH   4   5
ENDBRANCH   2   4
TORSDOF 6
ENDMDL
MODEL      202
REMARK 921   NORMALIZED FREE ENERGY PREDICTED BY IDOCK:   -3.85 KCAL/MOL
REMARK 922        TOTAL FREE ENERGY PREDICTED BY IDOCK:   -5.80 KCAL/MOL
REMARK 923 INTER-LIGAND FREE ENERGY PREDICTED BY IDOCK:   -5.71 KCAL/MOL
REMARK 924 INTRA-LIGAND FREE ENERGY PREDICTED BY IDOCK:   -0.09 KCAL/MOL
REMARK 927      BINDING AFFINITY PREDICTED BY RF-SCORE:    0.00 PKD
ROOT
HETATM    1  C   UNL     1      -5.934   8.578  67.861  1.00  0.00    -0.047 C  
HETATM    2  N   UNL     1      -7.324   8.381  67.433  1.00  0.00    -0.088 NA 
HETATM    3  C   UNL     1      -7.348   7.561  66.220  1.00  0.00    -0.082 C  
ENDROOT
BRANCH   2   4
HETATM    4  C   UNL     1      -8.091   7.764  68.535  1.00  0.00    -0.123 C  
BRANCH   4   5
HETATM    5  C   UNL     1      -7.713   8.253  69.947  1.00  0.00    -0.097 C  
BRANCH   5   6
HETATM    6  C   UNL     1      -8.928   8.571  70.770  1.00  0.00    -0.193 A  
HETATM    7  C   UNL     1      -9.245   8.024  72.000  1.00  0.00    -0.171 A  
HETATM    8  N   UNL     1     -10.451   8.529  72.398  1.00  0.00    -0.325 NA 
HETATM    9  C   UNL     1     -10.926   9.418  71.463  1.00  0.00    -0.359 A  
HETATM   10  H   UNL     1     -10.929   8.282  73.265  1.00  0.00     0.000 HD 
HETATM   11  C   UNL     1      -9.988   9.477  70.434  1.00  0.00    -0.325 A  
HETATM   12  C   UNL     1     -10.248  10.333  69.340  1.00  0.00    -0.255 A  
HETATM   13  C   UNL     1     -11.433  11.093  69.291  1.00  0.00    -0.363 A  
HETATM   14  C   UNL     1     -12.339  11.005  70.358  1.00  0.00    -0.442 A  
HETATM   15  C   UNL     1     -12.109  10.163  71.451  1.00  0.00    -0.475 A  
BRANCH  13  16
HETATM   16  C   UNL     1     -11.696  12.001  68.108  1.00  0.00    -0.333 C  
BRANCH  16  17
HETATM   17  S   UNL     1     -10.131  12.682  67.508  1.00  0.00    -0.214 S  
HETATM   18  O   UNL     1      -9.673  11.904  66.374  1.00  0.00    -0.210 OA 
HETATM   19  O   UNL     1      -9.258  12.969  68.624  1.00  0.00    -0.105 OA 
BRANCH  17  20
HETATM   20  N   UNL     1     -10.585  14.199  66.872  1.00  0.00    -0.279 N  
HETATM   21  C   UNL     1     -10.506  15.298  67.873  1.00  0.00    -0.253 C  
HETATM   22  C   UNL     1     -10.513  16.565  67.040  1.00  0.00    -0.289 C  
HETATM   23  C   UNL     1      -9.712  16.185  65.810  1.00  0.00    -0.325 C  
HETATM   24  C   UNL     1      -9.920  14.682  65.633  1.00  0.00    -0.351 C  
ENDBRANCH  17  20
ENDBRANCH  16  17
ENDBRANCH  13  16
ENDBRANCH   5   6
ENDBRANCH   4   5
ENDBRANCH   2   4
TORSDOF 6
ENDMDL
MODEL      203
REMARK 921   NORMALIZED FREE ENERGY PREDICTED BY IDOCK:   -3.85 KCAL/MOL
REMARK 922        TOTAL FREE ENERGY PREDICTED BY IDOCK:   -5.79 KCAL/MOL
REMARK 923 INTER-LIGAND FREE ENERGY PREDICTED BY IDOCK:   -5.32 KCAL/MOL
REMARK 924 INTRA-LIGAND FREE ENERGY PREDICTED BY IDOCK:   -0.47 KCAL/MOL
REMARK 927      BINDING AFFINITY PREDICTED BY RF-SCORE:    0.00 PKD
ROOT
HETATM    1  C   UNL     1      -7.267   7.964  67.850  1.00  0.00    -0.091 C  
HETATM    2  N   UNL     1      -8.545   7.247  67.924  1.00  0.00    -0.121 NA 
HETATM    3  C   UNL     1      -8.444   5.994  67.173  1.00  0.00    -0.104 C  
ENDROOT
BRANCH   2   4
HETATM    4  C   UNL     1      -8.895   7.017  69.342  1.00  0.00    -0.136 C  
BRANCH   4   5
HETATM    5  C   UNL     1     -10.405   6.974  69.643  1.00  0.00    -0.222 C  
BRANCH   5   6
HETATM    6  C   UNL     1     -10.883   8.247  70.280  1.00  0.00    -0.241 A  
HETATM    7  C   UNL     1     -11.169   8.429  71.621  1.00  0.00    -0.278 A  
HETATM    8  N   UNL     1     -11.622   9.707  71.795  1.00  0.00    -0.336 NA 
HETATM    9  C   UNL     1     -11.620  10.379  70.595  1.00  0.00    -0.349 A  
HETATM   10  H   UNL     1     -11.920  10.104  72.686  1.00  0.00     0.000 HD 
HETATM   11  C   UNL     1     -11.150   9.495  69.627  1.00  0.00    -0.196 A  
HETATM   12  C   UNL     1     -11.051   9.954  68.293  1.00  0.00    -0.207 A  
HETATM   13  C   UNL     1     -11.433  11.268  67.958  1.00  0.00    -0.369 A  
HETATM   14  C   UNL     1     -11.890  12.121  68.973  1.00  0.00    -0.361 A  
HETATM   15  C   UNL     1     -12.001  11.692  70.300  1.00  0.00    -0.445 A  
BRANCH  13  16
HETATM   16  C   UNL     1     -11.324  11.740  66.523  1.00  0.00    -0.305 C  
BRANCH  16  17
HETATM   17  S   UNL     1     -10.274  13.211  66.447  1.00  0.00    -0.292 S  
HETATM   18  O   UNL     1     -10.908  14.291  67.178  1.00  0.00    -0.288 OA 
HETATM   19  O   UNL     1      -9.787  13.401  65.099  1.00  0.00    -0.194 OA 
BRANCH  17  20
HETATM   20  N   UNL     1      -8.912  12.766  67.374  1.00  0.00    -0.186 N  
HETATM   21  C   UNL     1      -8.178  11.601  66.809  1.00  0.00    -0.161 C  
HETATM   22  C   UNL     1      -6.824  11.647  67.489  1.00  0.00    -0.104 C  
HETATM   23  C   UNL     1      -6.536  13.130  67.612  1.00  0.00    -0.165 C  
HETATM   24  C   UNL     1      -7.903  13.806  67.706  1.00  0.00    -0.172 C  
ENDBRANCH  17  20
ENDBRANCH  16  17
ENDBRANCH  13  16
ENDBRANCH   5   6
ENDBRANCH   4   5
ENDBRANCH   2   4
TORSDOF 6
ENDMDL
MODEL      204
REMARK 921   NORMALIZED FREE ENERGY PREDICTED BY IDOCK:   -3.85 KCAL/MOL
REMARK 922        TOTAL FREE ENERGY PREDICTED BY IDOCK:   -5.79 KCAL/MOL
REMARK 923 INTER-LIGAND FREE ENERGY PREDICTED BY IDOCK:   -5.84 KCAL/MOL
REMARK 924 INTRA-LIGAND FREE ENERGY PREDICTED BY IDOCK:    0.05 KCAL/MOL
REMARK 927      BINDING AFFINITY PREDICTED BY RF-SCORE:    0.00 PKD
ROOT
HETATM    1  C   UNL     1     -12.000  16.218  72.323  1.00  0.00    -0.520 C  
HETATM    2  N   UNL     1     -12.060  15.941  70.883  1.00  0.00    -0.399 NA 
HETATM    3  C   UNL     1     -10.702  15.754  70.367  1.00  0.00    -0.289 C  
ENDROOT
BRANCH   2   4
HETATM    4  C   UNL     1     -12.910  14.756  70.648  1.00  0.00    -0.343 C  
BRANCH   4   5
HETATM    5  C   UNL     1     -12.212  13.582  69.934  1.00  0.00    -0.356 C  
BRANCH   5   6
HETATM    6  C   UNL     1     -12.458  12.278  70.635  1.00  0.00    -0.323 A  
HETATM    7  C   UNL     1     -13.280  12.083  71.730  1.00  0.00    -0.317 A  
HETATM    8  N   UNL     1     -13.196  10.771  72.103  1.00  0.00    -0.591 NA 
HETATM    9  C   UNL     1     -12.351  10.090  71.259  1.00  0.00    -0.398 A  
HETATM   10  H   UNL     1     -13.691  10.357  72.894  1.00  0.00     0.000 HD 
HETATM   11  C   UNL     1     -11.880  11.003  70.319  1.00  0.00    -0.456 A  
HETATM   12  C   UNL     1     -10.984  10.542  69.327  1.00  0.00    -0.291 A  
HETATM   13  C   UNL     1     -10.573   9.195  69.306  1.00  0.00    -0.229 A  
HETATM   14  C   UNL     1     -11.085   8.314  70.269  1.00  0.00    -0.220 A  
HETATM   15  C   UNL     1     -11.969   8.744  71.264  1.00  0.00    -0.353 A  
BRANCH  13  16
HETATM   16  C   UNL     1      -9.608   8.720  68.238  1.00  0.00    -0.146 C  
BRANCH  16  17
HETATM   17  S   UNL     1      -8.268   7.781  69.008  1.00  0.00    -0.127 S  
HETATM   18  O   UNL     1      -8.028   6.574  68.241  1.00  0.00    -0.107 OA 
HETATM   19  O   UNL     1      -8.457   7.734  70.441  1.00  0.00    -0.128 OA 
BRANCH  17  20
HETATM   20  N   UNL     1      -6.902   8.769  68.752  1.00  0.00    -0.061 N  
HETATM   21  C   UNL     1      -7.241  10.214  68.634  1.00  0.00    -0.080 C  
HETATM   22  C   UNL     1      -5.921  10.927  68.850  1.00  0.00    -0.040 C  
HETATM   23  C   UNL     1      -5.224  10.078  69.895  1.00  0.00    -0.037 C  
HETATM   24  C   UNL     1      -5.754   8.659  69.691  1.00  0.00    -0.029 C  
ENDBRANCH  17  20
ENDBRANCH  16  17
ENDBRANCH  13  16
ENDBRANCH   5   6
ENDBRANCH   4   5
ENDBRANCH   2   4
TORSDOF 6
ENDMDL
MODEL      205
REMARK 921   NORMALIZED FREE ENERGY PREDICTED BY IDOCK:   -3.85 KCAL/MOL
REMARK 922        TOTAL FREE ENERGY PREDICTED BY IDOCK:   -5.79 KCAL/MOL
REMARK 923 INTER-LIGAND FREE ENERGY PREDICTED BY IDOCK:   -5.66 KCAL/MOL
REMARK 924 INTRA-LIGAND FREE ENERGY PREDICTED BY IDOCK:   -0.12 KCAL/MOL
REMARK 927      BINDING AFFINITY PREDICTED BY RF-SCORE:    0.00 PKD
ROOT
HETATM    1  C   UNL     1      -7.957   2.768  69.424  1.00  0.00    -0.044 C  
HETATM    2  N   UNL     1      -7.545   4.031  70.048  1.00  0.00    -0.048 NA 
HETATM    3  C   UNL     1      -6.091   4.175  69.941  1.00  0.00    -0.023 C  
ENDROOT
BRANCH   2   4
HETATM    4  C   UNL     1      -8.262   5.151  69.403  1.00  0.00    -0.087 C  
BRANCH   4   5
HETATM    5  C   UNL     1      -9.792   4.989  69.328  1.00  0.00    -0.266 C  
BRANCH   5   6
HETATM    6  C   UNL     1     -10.488   5.745  70.422  1.00  0.00    -0.342 A  
HETATM    7  C   UNL     1     -11.132   5.191  71.514  1.00  0.00     0.142 A  
HETATM    8  N   UNL     1     -11.680   6.204  72.250  1.00  0.00    -0.360 NA 
HETATM    9  C   UNL     1     -11.390   7.419  71.676  1.00  0.00    -0.256 A  
HETATM   10  H   UNL     1     -12.225   6.076  73.103  1.00  0.00     0.000 HD 
HETATM   11  C   UNL     1     -10.632   7.168  70.534  1.00  0.00    -0.243 A  
HETATM   12  C   UNL     1     -10.203   8.269  69.760  1.00  0.00    -0.204 A  
HETATM   13  C   UNL     1     -10.547   9.584  70.132  1.00  0.00    -0.298 A  
HETATM   14  C   UNL     1     -11.303   9.783  71.296  1.00  0.00    -0.445 A  
HETATM   15  C   UNL     1     -11.745   8.711  72.079  1.00  0.00    -0.439 A  
BRANCH  13  16
HETATM   16  C   UNL     1     -10.082  10.751  69.286  1.00  0.00    -0.177 C  
BRANCH  16  17
HETATM   17  S   UNL     1     -11.480  11.847  68.945  1.00  0.00    -0.328 S  
HETATM   18  O   UNL     1     -11.985  12.382  70.193  1.00  0.00    -0.341 OA 
HETATM   19  O   UNL     1     -12.364  11.233  67.979  1.00  0.00    -0.432 OA 
BRANCH  17  20
HETATM   20  N   UNL     1     -10.755  13.164  68.138  1.00  0.00    -0.235 N  
HETATM   21  C   UNL     1      -9.890  12.747  67.001  1.00  0.00    -0.231 C  
HETATM   22  C   UNL     1      -9.711  14.011  66.183  1.00  0.00    -0.300 C  
HETATM   23  C   UNL     1     -11.054  14.704  66.302  1.00  0.00    -0.336 C  
HETATM   24  C   UNL     1     -11.623  14.269  67.651  1.00  0.00    -0.368 C  
ENDBRANCH  17  20
ENDBRANCH  16  17
ENDBRANCH  13  16
ENDBRANCH   5   6
ENDBRANCH   4   5
ENDBRANCH   2   4
TORSDOF 6
ENDMDL
MODEL      206
REMARK 921   NORMALIZED FREE ENERGY PREDICTED BY IDOCK:   -3.83 KCAL/MOL
REMARK 922        TOTAL FREE ENERGY PREDICTED BY IDOCK:   -5.76 KCAL/MOL
REMARK 923 INTER-LIGAND FREE ENERGY PREDICTED BY IDOCK:   -4.92 KCAL/MOL
REMARK 924 INTRA-LIGAND FREE ENERGY PREDICTED BY IDOCK:   -0.85 KCAL/MOL
REMARK 927      BINDING AFFINITY PREDICTED BY RF-SCORE:    0.00 PKD
ROOT
HETATM    1  C   UNL     1      -7.113  10.121  64.892  1.00  0.00    -0.131 C  
HETATM    2  N   UNL     1      -8.405   9.677  64.355  1.00  0.00    -0.155 NA 
HETATM    3  C   UNL     1      -8.732  10.462  63.162  1.00  0.00    -0.203 C  
ENDROOT
BRANCH   2   4
HETATM    4  C   UNL     1      -8.343   8.229  64.067  1.00  0.00    -0.031 C  
BRANCH   4   5
HETATM    5  C   UNL     1      -7.582   7.388  65.110  1.00  0.00    -0.104 C  
BRANCH   5   6
HETATM    6  C   UNL     1      -8.515   6.743  66.094  1.00  0.00    -0.135 A  
HETATM    7  C   UNL     1      -8.933   5.425  66.077  1.00  0.00    -0.147 A  
HETATM    8  N   UNL     1      -9.815   5.239  67.104  1.00  0.00    -0.150 NA 
HETATM    9  C   UNL     1      -9.970   6.407  67.813  1.00  0.00    -0.128 A  
HETATM   10  H   UNL     1     -10.290   4.361  67.314  1.00  0.00     0.000 HD 
HETATM   11  C   UNL     1      -9.159   7.367  67.213  1.00  0.00    -0.135 A  
HETATM   12  C   UNL     1      -9.141   8.668  67.765  1.00  0.00    -0.143 A  
HETATM   13  C   UNL     1      -9.936   8.982  68.885  1.00  0.00    -0.197 A  
HETATM   14  C   UNL     1     -10.727   7.975  69.458  1.00  0.00    -0.185 A  
HETATM   15  C   UNL     1     -10.767   6.680  68.930  1.00  0.00    -0.304 A  
BRANCH  13  16
HETATM   16  C   UNL     1      -9.907  10.383  69.460  1.00  0.00    -0.184 C  
BRANCH  16  17
HETATM   17  S   UNL     1     -11.486  11.203  69.135  1.00  0.00    -0.328 S  
HETATM   18  O   UNL     1     -12.295  11.178  70.338  1.00  0.00    -0.320 OA 
HETATM   19  O   UNL     1     -12.017  10.766  67.863  1.00  0.00    -0.518 OA 
BRANCH  17  20
HETATM   20  N   UNL     1     -11.039  12.835  68.916  1.00  0.00    -0.261 N  
HETATM   21  C   UNL     1      -9.766  12.995  68.160  1.00  0.00    -0.228 C  
HETATM   22  C   UNL     1      -9.780  14.441  67.705  1.00  0.00    -0.221 C  
HETATM   23  C   UNL     1     -11.241  14.705  67.399  1.00  0.00    -0.351 C  
HETATM   24  C   UNL     1     -12.028  13.772  68.320  1.00  0.00    -0.357 C  
ENDBRANCH  17  20
ENDBRANCH  16  17
ENDBRANCH  13  16
ENDBRANCH   5   6
ENDBRANCH   4   5
ENDBRANCH   2   4
TORSDOF 6
ENDMDL
MODEL      207
REMARK 921   NORMALIZED FREE ENERGY PREDICTED BY IDOCK:   -3.82 KCAL/MOL
REMARK 922        TOTAL FREE ENERGY PREDICTED BY IDOCK:   -5.75 KCAL/MOL
REMARK 923 INTER-LIGAND FREE ENERGY PREDICTED BY IDOCK:   -5.22 KCAL/MOL
REMARK 924 INTRA-LIGAND FREE ENERGY PREDICTED BY IDOCK:   -0.53 KCAL/MOL
REMARK 927      BINDING AFFINITY PREDICTED BY RF-SCORE:    0.00 PKD
ROOT
HETATM    1  C   UNL     1     -11.598  15.750  70.662  1.00  0.00    -0.390 C  
HETATM    2  N   UNL     1     -11.470  14.417  70.062  1.00  0.00    -0.257 NA 
HETATM    3  C   UNL     1     -12.506  13.537  70.607  1.00  0.00    -0.333 C  
ENDROOT
BRANCH   2   4
HETATM    4  C   UNL     1     -11.557  14.532  68.592  1.00  0.00    -0.315 C  
BRANCH   4   5
HETATM    5  C   UNL     1     -12.281  13.368  67.888  1.00  0.00    -0.149 C  
BRANCH   5   6
HETATM    6  C   UNL     1     -11.582  12.960  66.624  1.00  0.00    -0.428 A  
HETATM    7  C   UNL     1     -11.730  13.552  65.382  1.00  0.00    -0.332 A  
HETATM    8  N   UNL     1     -10.967  12.862  64.482  1.00  0.00    -0.330 NA 
HETATM    9  C   UNL     1     -10.300  11.838  65.112  1.00  0.00    -0.279 A  
HETATM   10  H   UNL     1     -10.902  13.076  63.487  1.00  0.00     0.000 HD 
HETATM   11  C   UNL     1     -10.653  11.879  66.459  1.00  0.00    -0.278 A  
HETATM   12  C   UNL     1     -10.091  10.917  67.329  1.00  0.00    -0.225 A  
HETATM   13  C   UNL     1      -9.206   9.937  66.837  1.00  0.00    -0.171 A  
HETATM   14  C   UNL     1      -8.875   9.946  65.474  1.00  0.00    -0.186 A  
HETATM   15  C   UNL     1      -9.420  10.884  64.590  1.00  0.00    -0.285 A  
BRANCH  13  16
HETATM   16  C   UNL     1      -8.617   8.912  67.784  1.00  0.00    -0.125 C  
BRANCH  16  17
HETATM   17  S   UNL     1      -9.820   7.593  68.071  1.00  0.00    -0.167 S  
HETATM   18  O   UNL     1     -10.204   7.008  66.801  1.00  0.00    -0.227 OA 
HETATM   19  O   UNL     1     -10.814   8.030  69.027  1.00  0.00    -0.136 OA 
BRANCH  17  20
HETATM   20  N   UNL     1      -8.903   6.396  68.870  1.00  0.00    -0.125 N  
HETATM   21  C   UNL     1      -7.689   6.941  69.538  1.00  0.00    -0.104 C  
HETATM   22  C   UNL     1      -7.279   5.856  70.514  1.00  0.00    -0.083 C  
HETATM   23  C   UNL     1      -8.602   5.296  71.000  1.00  0.00    -0.127 C  
HETATM   24  C   UNL     1      -9.585   5.508  69.849  1.00  0.00    -0.164 C  
ENDBRANCH  17  20
ENDBRANCH  16  17
ENDBRANCH  13  16
ENDBRANCH   5   6
ENDBRANCH   4   5
ENDBRANCH   2   4
TORSDOF 6
ENDMDL
MODEL      208
REMARK 921   NORMALIZED FREE ENERGY PREDICTED BY IDOCK:   -3.81 KCAL/MOL
REMARK 922        TOTAL FREE ENERGY PREDICTED BY IDOCK:   -5.74 KCAL/MOL
REMARK 923 INTER-LIGAND FREE ENERGY PREDICTED BY IDOCK:   -5.91 KCAL/MOL
REMARK 924 INTRA-LIGAND FREE ENERGY PREDICTED BY IDOCK:    0.17 KCAL/MOL
REMARK 927      BINDING AFFINITY PREDICTED BY RF-SCORE:    0.00 PKD
ROOT
HETATM    1  C   UNL     1     -10.333  17.025  66.090  1.00  0.00    -0.319 C  
HETATM    2  N   UNL     1      -9.679  15.726  65.887  1.00  0.00    -0.336 NA 
HETATM    3  C   UNL     1      -8.380  15.724  66.563  1.00  0.00    -0.278 C  
ENDROOT
BRANCH   2   4
HETATM    4  C   UNL     1     -10.564  14.652  66.384  1.00  0.00    -0.301 C  
BRANCH   4   5
HETATM    5  C   UNL     1     -11.746  14.301  65.460  1.00  0.00    -0.353 C  
BRANCH   5   6
HETATM    6  C   UNL     1     -11.422  13.148  64.554  1.00  0.00    -0.390 A  
HETATM    7  C   UNL     1     -12.039  12.860  63.350  1.00  0.00    -0.530 A  
HETATM    8  N   UNL     1     -11.498  11.707  62.854  1.00  0.00    -0.644 NA 
HETATM    9  C   UNL     1     -10.519  11.240  63.699  1.00  0.00    -0.405 A  
HETATM   10  H   UNL     1     -11.780  11.257  61.983  1.00  0.00     0.000 HD 
HETATM   11  C   UNL     1     -10.437  12.128  64.769  1.00  0.00    -0.332 A  
HETATM   12  C   UNL     1      -9.491  11.867  65.786  1.00  0.00    -0.210 A  
HETATM   13  C   UNL     1      -8.665  10.727  65.719  1.00  0.00    -0.194 A  
HETATM   14  C   UNL     1      -8.780   9.870  64.615  1.00  0.00    -0.215 A  
HETATM   15  C   UNL     1      -9.710  10.103  63.596  1.00  0.00    -0.168 A  
BRANCH  13  16
HETATM   16  C   UNL     1      -7.660  10.461  66.821  1.00  0.00    -0.110 C  
BRANCH  16  17
HETATM   17  S   UNL     1      -8.319   9.212  67.952  1.00  0.00    -0.117 S  
HETATM   18  O   UNL     1      -7.324   8.907  68.961  1.00  0.00    -0.071 OA 
HETATM   19  O   UNL     1      -8.974   8.163  67.202  1.00  0.00    -0.134 OA 
BRANCH  17  20
HETATM   20  N   UNL     1      -9.563  10.044  68.770  1.00  0.00    -0.162 N  
HETATM   21  C   UNL     1      -9.334  11.514  68.840  1.00  0.00     0.007 C  
HETATM   22  C   UNL     1     -10.693  12.089  69.187  1.00  0.00    -0.121 C  
HETATM   23  C   UNL     1     -11.660  11.196  68.434  1.00  0.00    -0.376 C  
HETATM   24  C   UNL     1     -10.969   9.837  68.332  1.00  0.00    -0.152 C  
ENDBRANCH  17  20
ENDBRANCH  16  17
ENDBRANCH  13  16
ENDBRANCH   5   6
ENDBRANCH   4   5
ENDBRANCH   2   4
TORSDOF 6
ENDMDL
MODEL      209
REMARK 921   NORMALIZED FREE ENERGY PREDICTED BY IDOCK:   -3.81 KCAL/MOL
REMARK 922        TOTAL FREE ENERGY PREDICTED BY IDOCK:   -5.74 KCAL/MOL
REMARK 923 INTER-LIGAND FREE ENERGY PREDICTED BY IDOCK:   -5.08 KCAL/MOL
REMARK 924 INTRA-LIGAND FREE ENERGY PREDICTED BY IDOCK:   -0.66 KCAL/MOL
REMARK 927      BINDING AFFINITY PREDICTED BY RF-SCORE:    0.00 PKD
ROOT
HETATM    1  C   UNL     1     -10.286  19.122  67.804  1.00  0.00    -0.421 C  
HETATM    2  N   UNL     1      -9.449  19.543  66.675  1.00  0.00    -0.338 NA 
HETATM    3  C   UNL     1     -10.303  19.868  65.530  1.00  0.00    -0.197 C  
ENDROOT
BRANCH   2   4
HETATM    4  C   UNL     1      -8.614  20.691  67.087  1.00  0.00    -0.199 C  
BRANCH   4   5
HETATM    5  C   UNL     1      -7.095  20.479  66.938  1.00  0.00    -0.344 C  
BRANCH   5   6
HETATM    6  C   UNL     1      -6.453  20.108  68.243  1.00  0.00    -0.326 A  
HETATM    7  C   UNL     1      -5.881  20.984  69.148  1.00  0.00    -0.173 A  
HETATM    8  N   UNL     1      -5.362  20.256  70.182  1.00  0.00    -0.249 NA 
HETATM    9  C   UNL     1      -5.601  18.916  69.987  1.00  0.00    -0.234 A  
HETATM   10  H   UNL     1      -4.868  20.651  70.983  1.00  0.00     0.000 HD 
HETATM   11  C   UNL     1      -6.295  18.790  68.786  1.00  0.00    -0.252 A  
HETATM   12  C   UNL     1      -6.664  17.494  68.359  1.00  0.00    -0.193 A  
HETATM   13  C   UNL     1      -6.323  16.363  69.127  1.00  0.00    -0.177 A  
HETATM   14  C   UNL     1      -5.633  16.546  70.334  1.00  0.00    -0.151 A  
HETATM   15  C   UNL     1      -5.252  17.817  70.779  1.00  0.00    -0.278 A  
BRANCH  13  16
HETATM   16  C   UNL     1      -6.723  14.982  68.651  1.00  0.00    -0.093 C  
BRANCH  16  17
HETATM   17  S   UNL     1      -8.510  14.930  68.377  1.00  0.00    -0.160 S  
HETATM   18  O   UNL     1      -8.796  15.303  67.006  1.00  0.00    -0.204 OA 
HETATM   19  O   UNL     1      -9.198  15.557  69.484  1.00  0.00    -0.269 OA 
BRANCH  17  20
HETATM   20  N   UNL     1      -8.874  13.267  68.488  1.00  0.00    -0.112 N  
HETATM   21  C   UNL     1     -10.122  12.894  67.767  1.00  0.00    -0.229 C  
HETATM   22  C   UNL     1     -10.030  11.388  67.615  1.00  0.00    -0.196 C  
HETATM   23  C   UNL     1      -8.552  11.143  67.384  1.00  0.00    -0.137 C  
HETATM   24  C   UNL     1      -7.830  12.280  68.105  1.00  0.00    -0.148 C  
ENDBRANCH  17  20
ENDBRANCH  16  17
ENDBRANCH  13  16
ENDBRANCH   5   6
ENDBRANCH   4   5
ENDBRANCH   2   4
TORSDOF 6
ENDMDL
MODEL      210
REMARK 921   NORMALIZED FREE ENERGY PREDICTED BY IDOCK:   -3.79 KCAL/MOL
REMARK 922        TOTAL FREE ENERGY PREDICTED BY IDOCK:   -5.71 KCAL/MOL
REMARK 923 INTER-LIGAND FREE ENERGY PREDICTED BY IDOCK:   -5.11 KCAL/MOL
REMARK 924 INTRA-LIGAND FREE ENERGY PREDICTED BY IDOCK:   -0.60 KCAL/MOL
REMARK 927      BINDING AFFINITY PREDICTED BY RF-SCORE:    0.00 PKD
ROOT
HETATM    1  C   UNL     1     -11.780  15.966  71.062  1.00  0.00    -0.432 C  
HETATM    2  N   UNL     1     -11.454  15.014  69.993  1.00  0.00    -0.260 NA 
HETATM    3  C   UNL     1     -12.084  13.724  70.283  1.00  0.00    -0.355 C  
ENDROOT
BRANCH   2   4
HETATM    4  C   UNL     1     -11.895  15.567  68.696  1.00  0.00    -0.300 C  
BRANCH   4   5
HETATM    5  C   UNL     1     -10.760  16.061  67.777  1.00  0.00    -0.323 C  
BRANCH   5   6
HETATM    6  C   UNL     1      -9.410  15.654  68.292  1.00  0.00    -0.192 A  
HETATM    7  C   UNL     1      -8.472  16.492  68.868  1.00  0.00    -0.235 A  
HETATM    8  N   UNL     1      -7.357  15.755  69.156  1.00  0.00    -0.180 NA 
HETATM    9  C   UNL     1      -7.552  14.441  68.802  1.00  0.00    -0.131 A  
HETATM   10  H   UNL     1      -6.504  16.127  69.575  1.00  0.00     0.000 HD 
HETATM   11  C   UNL     1      -8.834  14.341  68.269  1.00  0.00    -0.185 A  
HETATM   12  C   UNL     1      -9.279  13.074  67.826  1.00  0.00    -0.200 A  
HETATM   13  C   UNL     1      -8.435  11.949  67.914  1.00  0.00    -0.154 A  
HETATM   14  C   UNL     1      -7.157  12.102  68.469  1.00  0.00    -0.099 A  
HETATM   15  C   UNL     1      -6.690  13.344  68.911  1.00  0.00    -0.110 A  
BRANCH  13  16
HETATM   16  C   UNL     1      -8.928  10.601  67.430  1.00  0.00    -0.136 C  
BRANCH  16  17
HETATM   17  S   UNL     1     -10.317  10.061  68.455  1.00  0.00    -0.202 S  
HETATM   18  O   UNL     1     -11.555  10.550  67.880  1.00  0.00    -0.461 OA 
HETATM   19  O   UNL     1     -10.008  10.263  69.853  1.00  0.00    -0.222 OA 
BRANCH  17  20
HETATM   20  N   UNL     1     -10.339   8.371  68.224  1.00  0.00    -0.208 N  
HETATM   21  C   UNL     1     -10.457   7.979  66.792  1.00  0.00    -0.248 C  
HETATM   22  C   UNL     1     -10.027   6.526  66.765  1.00  0.00    -0.224 C  
HETATM   23  C   UNL     1      -8.920   6.462  67.798  1.00  0.00    -0.113 C  
HETATM   24  C   UNL     1      -9.246   7.555  68.816  1.00  0.00    -0.145 C  
ENDBRANCH  17  20
ENDBRANCH  16  17
ENDBRANCH  13  16
ENDBRANCH   5   6
ENDBRANCH   4   5
ENDBRANCH   2   4
TORSDOF 6
ENDMDL
MODEL      211
REMARK 921   NORMALIZED FREE ENERGY PREDICTED BY IDOCK:   -3.77 KCAL/MOL
REMARK 922        TOTAL FREE ENERGY PREDICTED BY IDOCK:   -5.68 KCAL/MOL
REMARK 923 INTER-LIGAND FREE ENERGY PREDICTED BY IDOCK:   -5.15 KCAL/MOL
REMARK 924 INTRA-LIGAND FREE ENERGY PREDICTED BY IDOCK:   -0.53 KCAL/MOL
REMARK 927      BINDING AFFINITY PREDICTED BY RF-SCORE:    0.00 PKD
ROOT
HETATM    1  C   UNL     1     -10.836  15.803  69.688  1.00  0.00    -0.300 C  
HETATM    2  N   UNL     1     -11.542  14.684  69.053  1.00  0.00    -0.282 NA 
HETATM    3  C   UNL     1     -11.150  14.597  67.645  1.00  0.00    -0.304 C  
ENDROOT
BRANCH   2   4
HETATM    4  C   UNL     1     -11.244  13.438  69.790  1.00  0.00     0.023 C  
BRANCH   4   5
HETATM    5  C   UNL     1     -12.467  12.550  70.092  1.00  0.00    -0.092 C  
BRANCH   5   6
HETATM    6  C   UNL     1     -12.062  11.158  70.484  1.00  0.00    -0.474 A  
HETATM    7  C   UNL     1     -12.166  10.605  71.748  1.00  0.00     0.007 A  
HETATM    8  N   UNL     1     -11.646   9.342  71.709  1.00  0.00    -0.385 NA 
HETATM    9  C   UNL     1     -11.221   9.042  70.436  1.00  0.00    -0.241 A  
HETATM   10  H   UNL     1     -11.584   8.712  72.509  1.00  0.00     0.000 HD 
HETATM   11  C   UNL     1     -11.479  10.156  69.640  1.00  0.00    -0.256 A  
HETATM   12  C   UNL     1     -11.129  10.097  68.272  1.00  0.00    -0.285 A  
HETATM   13  C   UNL     1     -10.523   8.942  67.737  1.00  0.00    -0.300 A  
HETATM   14  C   UNL     1     -10.295   7.845  68.580  1.00  0.00    -0.229 A  
HETATM   15  C   UNL     1     -10.628   7.877  69.938  1.00  0.00    -0.242 A  
BRANCH  13  16
HETATM   16  C   UNL     1     -10.151   8.900  66.270  1.00  0.00    -0.214 C  
BRANCH  16  17
HETATM   17  S   UNL     1      -8.568   9.739  66.022  1.00  0.00    -0.139 S  
HETATM   18  O   UNL     1      -7.585   8.781  65.555  1.00  0.00    -0.084 OA 
HETATM   19  O   UNL     1      -8.293  10.613  67.141  1.00  0.00    -0.123 OA 
BRANCH  17  20
HETATM   20  N   UNL     1      -8.875  10.767  64.695  1.00  0.00    -0.175 N  
HETATM   21  C   UNL     1      -9.222  10.025  63.452  1.00  0.00    -0.281 C  
HETATM   22  C   UNL     1      -9.864  11.070  62.560  1.00  0.00    -0.072 C  
HETATM   23  C   UNL     1     -10.635  11.942  63.530  1.00  0.00    -0.507 C  
HETATM   24  C   UNL     1      -9.873  11.858  64.852  1.00  0.00    -0.199 C  
ENDBRANCH  17  20
ENDBRANCH  16  17
ENDBRANCH  13  16
ENDBRANCH   5   6
ENDBRANCH   4   5
ENDBRANCH   2   4
TORSDOF 6
ENDMDL
MODEL      212
REMARK 921   NORMALIZED FREE ENERGY PREDICTED BY IDOCK:   -3.77 KCAL/MOL
REMARK 922        TOTAL FREE ENERGY PREDICTED BY IDOCK:   -5.68 KCAL/MOL
REMARK 923 INTER-LIGAND FREE ENERGY PREDICTED BY IDOCK:   -6.29 KCAL/MOL
REMARK 924 INTRA-LIGAND FREE ENERGY PREDICTED BY IDOCK:    0.62 KCAL/MOL
REMARK 927      BINDING AFFINITY PREDICTED BY RF-SCORE:    0.00 PKD
ROOT
HETATM    1  C   UNL     1     -11.985  15.874  71.993  1.00  0.00    -0.513 C  
HETATM    2  N   UNL     1     -12.363  15.638  70.595  1.00  0.00    -0.413 NA 
HETATM    3  C   UNL     1     -11.187  15.805  69.738  1.00  0.00    -0.330 C  
ENDROOT
BRANCH   2   4
HETATM    4  C   UNL     1     -12.954  14.289  70.470  1.00  0.00    -0.201 C  
BRANCH   4   5
HETATM    5  C   UNL     1     -11.934  13.137  70.377  1.00  0.00    -0.343 C  
BRANCH   5   6
HETATM    6  C   UNL     1     -12.411  11.911  71.101  1.00  0.00    -0.365 A  
HETATM    7  C   UNL     1     -13.359  11.877  72.108  1.00  0.00    -0.256 A  
HETATM    8  N   UNL     1     -13.479  10.586  72.543  1.00  0.00    -0.436 NA 
HETATM    9  C   UNL     1     -12.642   9.764  71.825  1.00  0.00    -0.416 A  
HETATM   10  H   UNL     1     -14.099  10.278  73.292  1.00  0.00     0.000 HD 
HETATM   11  C   UNL     1     -11.968  10.561  70.904  1.00  0.00    -0.481 A  
HETATM   12  C   UNL     1     -11.039   9.943  70.036  1.00  0.00    -0.335 A  
HETATM   13  C   UNL     1     -10.797   8.557  70.117  1.00  0.00    -0.238 A  
HETATM   14  C   UNL     1     -11.511   7.798  71.055  1.00  0.00    -0.298 A  
HETATM   15  C   UNL     1     -12.433   8.385  71.929  1.00  0.00    -0.390 A  
BRANCH  13  16
HETATM   16  C   UNL     1      -9.795   7.913  69.181  1.00  0.00    -0.174 C  
BRANCH  16  17
HETATM   17  S   UNL     1      -9.615   6.162  69.600  1.00  0.00    -0.150 S  
HETATM   18  O   UNL     1      -8.981   5.468  68.496  1.00  0.00    -0.110 OA 
HETATM   19  O   UNL     1     -10.837   5.668  70.194  1.00  0.00    -0.316 OA 
BRANCH  17  20
HETATM   20  N   UNL     1      -8.462   6.178  70.857  1.00  0.00    -0.126 N  
HETATM   21  C   UNL     1      -7.631   7.414  70.870  1.00  0.00    -0.083 C  
HETATM   22  C   UNL     1      -7.012   7.433  72.254  1.00  0.00    -0.063 C  
HETATM   23  C   UNL     1      -8.106   6.876  73.142  1.00  0.00    -0.116 C  
HETATM   24  C   UNL     1      -8.920   5.939  72.251  1.00  0.00    -0.142 C  
ENDBRANCH  17  20
ENDBRANCH  16  17
ENDBRANCH  13  16
ENDBRANCH   5   6
ENDBRANCH   4   5
ENDBRANCH   2   4
TORSDOF 6
ENDMDL
MODEL      213
REMARK 921   NORMALIZED FREE ENERGY PREDICTED BY IDOCK:   -3.76 KCAL/MOL
REMARK 922        TOTAL FREE ENERGY PREDICTED BY IDOCK:   -5.67 KCAL/MOL
REMARK 923 INTER-LIGAND FREE ENERGY PREDICTED BY IDOCK:   -5.32 KCAL/MOL
REMARK 924 INTRA-LIGAND FREE ENERGY PREDICTED BY IDOCK:   -0.36 KCAL/MOL
REMARK 927      BINDING AFFINITY PREDICTED BY RF-SCORE:    0.00 PKD
ROOT
HETATM    1  C   UNL     1      -7.942   6.686  64.002  1.00  0.00    -0.084 C  
HETATM    2  N   UNL     1      -6.931   7.650  64.451  1.00  0.00    -0.058 NA 
HETATM    3  C   UNL     1      -6.322   8.296  63.286  1.00  0.00    -0.081 C  
ENDROOT
BRANCH   2   4
HETATM    4  C   UNL     1      -7.560   8.629  65.362  1.00  0.00    -0.087 C  
BRANCH   4   5
HETATM    5  C   UNL     1      -8.844   8.140  66.059  1.00  0.00    -0.206 C  
BRANCH   5   6
HETATM    6  C   UNL     1      -9.757   9.279  66.410  1.00  0.00    -0.325 A  
HETATM    7  C   UNL     1     -10.281  10.205  65.525  1.00  0.00    -0.218 A  
HETATM    8  N   UNL     1     -11.019  11.109  66.237  1.00  0.00    -0.215 NA 
HETATM    9  C   UNL     1     -11.011  10.783  67.572  1.00  0.00    -0.312 A  
HETATM   10  H   UNL     1     -11.507  11.910  65.834  1.00  0.00     0.000 HD 
HETATM   11  C   UNL     1     -10.239   9.633  67.714  1.00  0.00    -0.253 A  
HETATM   12  C   UNL     1     -10.075   9.090  69.009  1.00  0.00    -0.204 A  
HETATM   13  C   UNL     1     -10.671   9.711  70.125  1.00  0.00    -0.321 A  
HETATM   14  C   UNL     1     -11.448  10.861  69.926  1.00  0.00    -0.402 A  
HETATM   15  C   UNL     1     -11.623  11.422  68.656  1.00  0.00    -0.384 A  
BRANCH  13  16
HETATM   16  C   UNL     1     -10.481   9.117  71.505  1.00  0.00    -0.352 C  
BRANCH  16  17
HETATM   17  S   UNL     1     -11.733   7.844  71.794  1.00  0.00    -0.304 S  
HETATM   18  O   UNL     1     -12.264   7.397  70.522  1.00  0.00    -0.145 OA 
HETATM   19  O   UNL     1     -12.608   8.248  72.873  1.00  0.00    -0.166 OA 
BRANCH  17  20
HETATM   20  N   UNL     1     -10.824   6.534  72.400  1.00  0.00    -0.224 N  
HETATM   21  C   UNL     1     -10.021   6.887  73.603  1.00  0.00    -0.286 C  
HETATM   22  C   UNL     1      -9.660   5.550  74.218  1.00  0.00    -0.160 C  
HETATM   23  C   UNL     1     -10.891   4.700  73.971  1.00  0.00    -0.328 C  
HETATM   24  C   UNL     1     -11.523   5.255  72.695  1.00  0.00    -0.201 C  
ENDBRANCH  17  20
ENDBRANCH  16  17
ENDBRANCH  13  16
ENDBRANCH   5   6
ENDBRANCH   4   5
ENDBRANCH   2   4
TORSDOF 6
ENDMDL
MODEL      214
REMARK 921   NORMALIZED FREE ENERGY PREDICTED BY IDOCK:   -3.76 KCAL/MOL
REMARK 922        TOTAL FREE ENERGY PREDICTED BY IDOCK:   -5.67 KCAL/MOL
REMARK 923 INTER-LIGAND FREE ENERGY PREDICTED BY IDOCK:   -5.04 KCAL/MOL
REMARK 924 INTRA-LIGAND FREE ENERGY PREDICTED BY IDOCK:   -0.63 KCAL/MOL
REMARK 927      BINDING AFFINITY PREDICTED BY RF-SCORE:    0.00 PKD
ROOT
HETATM    1  C   UNL     1     -11.458  15.192  69.022  1.00  0.00    -0.309 C  
HETATM    2  N   UNL     1     -12.038  14.085  68.254  1.00  0.00    -0.334 NA 
HETATM    3  C   UNL     1     -12.128  14.466  66.843  1.00  0.00    -0.356 C  
ENDROOT
BRANCH   2   4
HETATM    4  C   UNL     1     -11.217  12.872  68.449  1.00  0.00    -0.270 C  
BRANCH   4   5
HETATM    5  C   UNL     1     -11.642  11.653  67.606  1.00  0.00    -0.349 C  
BRANCH   5   6
HETATM    6  C   UNL     1     -10.511  11.136  66.765  1.00  0.00    -0.297 A  
HETATM    7  C   UNL     1      -9.691  11.894  65.949  1.00  0.00    -0.238 A  
HETATM    8  N   UNL     1      -8.821  11.052  65.313  1.00  0.00    -0.310 NA 
HETATM    9  C   UNL     1      -9.038   9.754  65.713  1.00  0.00    -0.177 A  
HETATM   10  H   UNL     1      -8.112  11.345  64.640  1.00  0.00     0.000 HD 
HETATM   11  C   UNL     1     -10.083   9.774  66.633  1.00  0.00    -0.303 A  
HETATM   12  C   UNL     1     -10.500   8.547  67.199  1.00  0.00    -0.370 A  
HETATM   13  C   UNL     1      -9.877   7.339  66.828  1.00  0.00    -0.281 A  
HETATM   14  C   UNL     1      -8.822   7.377  65.905  1.00  0.00    -0.149 A  
HETATM   15  C   UNL     1      -8.392   8.576  65.326  1.00  0.00    -0.168 A  
BRANCH  13  16
HETATM   16  C   UNL     1     -10.341   6.035  67.442  1.00  0.00    -0.216 C  
BRANCH  16  17
HETATM   17  S   UNL     1      -9.390   5.701  68.944  1.00  0.00    -0.123 S  
HETATM   18  O   UNL     1     -10.236   5.024  69.907  1.00  0.00    -0.259 OA 
HETATM   19  O   UNL     1      -8.621   6.870  69.311  1.00  0.00    -0.131 OA 
BRANCH  17  20
HETATM   20  N   UNL     1      -8.250   4.538  68.435  1.00  0.00    -0.086 N  
HETATM   21  C   UNL     1      -8.845   3.475  67.578  1.00  0.00    -0.126 C  
HETATM   22  C   UNL     1      -7.653   2.831  66.899  1.00  0.00    -0.071 C  
HETATM   23  C   UNL     1      -6.711   3.994  66.654  1.00  0.00    -0.050 C  
HETATM   24  C   UNL     1      -7.007   5.002  67.764  1.00  0.00    -0.061 C  
ENDBRANCH  17  20
ENDBRANCH  16  17
ENDBRANCH  13  16
ENDBRANCH   5   6
ENDBRANCH   4   5
ENDBRANCH   2   4
TORSDOF 6
ENDMDL
MODEL      215
REMARK 921   NORMALIZED FREE ENERGY PREDICTED BY IDOCK:   -3.75 KCAL/MOL
REMARK 922        TOTAL FREE ENERGY PREDICTED BY IDOCK:   -5.65 KCAL/MOL
REMARK 923 INTER-LIGAND FREE ENERGY PREDICTED BY IDOCK:   -5.38 KCAL/MOL
REMARK 924 INTRA-LIGAND FREE ENERGY PREDICTED BY IDOCK:   -0.27 KCAL/MOL
REMARK 927      BINDING AFFINITY PREDICTED BY RF-SCORE:    0.00 PKD
ROOT
HETATM    1  C   UNL     1     -12.299   6.919  70.994  1.00  0.00    -0.351 C  
HETATM    2  N   UNL     1     -10.965   7.175  71.551  1.00  0.00    -0.234 NA 
HETATM    3  C   UNL     1     -11.086   7.496  72.975  1.00  0.00    -0.362 C  
ENDROOT
BRANCH   2   4
HETATM    4  C   UNL     1     -10.105   5.995  71.319  1.00  0.00    -0.192 C  
BRANCH   4   5
HETATM    5  C   UNL     1      -8.647   6.316  70.938  1.00  0.00    -0.135 C  
BRANCH   5   6
HETATM    6  C   UNL     1      -8.396   6.109  69.472  1.00  0.00    -0.120 A  
HETATM    7  C   UNL     1      -7.729   5.039  68.902  1.00  0.00    -0.077 A  
HETATM    8  N   UNL     1      -7.664   5.242  67.552  1.00  0.00    -0.095 NA 
HETATM    9  C   UNL     1      -8.297   6.416  67.217  1.00  0.00    -0.112 A  
HETATM   10  H   UNL     1      -7.211   4.613  66.889  1.00  0.00     0.000 HD 
HETATM   11  C   UNL     1      -8.778   6.978  68.397  1.00  0.00    -0.125 A  
HETATM   12  C   UNL     1      -9.477   8.205  68.318  1.00  0.00    -0.148 A  
HETATM   13  C   UNL     1      -9.666   8.842  67.076  1.00  0.00    -0.249 A  
HETATM   14  C   UNL     1      -9.170   8.229  65.917  1.00  0.00    -0.185 A  
HETATM   15  C   UNL     1      -8.471   7.017  65.966  1.00  0.00    -0.141 A  
BRANCH  13  16
HETATM   16  C   UNL     1     -10.413  10.158  67.012  1.00  0.00    -0.240 C  
BRANCH  16  17
HETATM   17  S   UNL     1      -9.752  11.165  65.663  1.00  0.00    -0.237 S  
HETATM   18  O   UNL     1     -10.199  10.621  64.396  1.00  0.00    -0.346 OA 
HETATM   19  O   UNL     1      -8.356  11.458  65.903  1.00  0.00    -0.094 OA 
BRANCH  17  20
HETATM   20  N   UNL     1     -10.575  12.648  65.843  1.00  0.00    -0.268 N  
HETATM   21  C   UNL     1     -10.306  13.603  64.733  1.00  0.00    -0.392 C  
HETATM   22  C   UNL     1     -11.419  14.627  64.842  1.00  0.00    -0.401 C  
HETATM   23  C   UNL     1     -12.617  13.805  65.273  1.00  0.00    -0.510 C  
HETATM   24  C   UNL     1     -12.045  12.628  66.062  1.00  0.00    -0.364 C  
ENDBRANCH  17  20
ENDBRANCH  16  17
ENDBRANCH  13  16
ENDBRANCH   5   6
ENDBRANCH   4   5
ENDBRANCH   2   4
TORSDOF 6
ENDMDL
MODEL      216
REMARK 921   NORMALIZED FREE ENERGY PREDICTED BY IDOCK:   -3.74 KCAL/MOL
REMARK 922        TOTAL FREE ENERGY PREDICTED BY IDOCK:   -5.65 KCAL/MOL
REMARK 923 INTER-LIGAND FREE ENERGY PREDICTED BY IDOCK:   -5.57 KCAL/MOL
REMARK 924 INTRA-LIGAND FREE ENERGY PREDICTED BY IDOCK:   -0.07 KCAL/MOL
REMARK 927      BINDING AFFINITY PREDICTED BY RF-SCORE:    0.00 PKD
ROOT
HETATM    1  C   UNL     1     -12.259  14.486  64.057  1.00  0.00    -0.229 C  
HETATM    2  N   UNL     1     -11.718  13.257  64.649  1.00  0.00    -0.347 NA 
HETATM    3  C   UNL     1     -10.988  12.505  63.627  1.00  0.00    -0.456 C  
ENDROOT
BRANCH   2   4
HETATM    4  C   UNL     1     -10.859  13.606  65.800  1.00  0.00    -0.273 C  
BRANCH   4   5
HETATM    5  C   UNL     1     -10.095  12.423  66.426  1.00  0.00    -0.252 C  
BRANCH   5   6
HETATM    6  C   UNL     1     -10.669  12.030  67.756  1.00  0.00    -0.243 A  
HETATM    7  C   UNL     1     -11.710  12.661  68.413  1.00  0.00    -0.333 A  
HETATM    8  N   UNL     1     -11.903  12.038  69.614  1.00  0.00    -0.328 NA 
HETATM    9  C   UNL     1     -11.022  10.991  69.752  1.00  0.00    -0.193 A  
HETATM   10  H   UNL     1     -12.599  12.310  70.308  1.00  0.00     0.000 HD 
HETATM   11  C   UNL     1     -10.242  10.950  68.599  1.00  0.00    -0.201 A  
HETATM   12  C   UNL     1      -9.250   9.949  68.496  1.00  0.00    -0.136 A  
HETATM   13  C   UNL     1      -9.052   9.027  69.543  1.00  0.00    -0.151 A  
HETATM   14  C   UNL     1      -9.871   9.105  70.679  1.00  0.00    -0.308 A  
HETATM   15  C   UNL     1     -10.858  10.089  70.809  1.00  0.00    -0.330 A  
BRANCH  13  16
HETATM   16  C   UNL     1      -7.981   7.964  69.416  1.00  0.00    -0.117 C  
BRANCH  16  17
HETATM   17  S   UNL     1      -8.584   6.619  68.368  1.00  0.00    -0.123 S  
HETATM   18  O   UNL     1      -7.523   5.651  68.173  1.00  0.00    -0.072 OA 
HETATM   19  O   UNL     1      -9.322   7.159  67.248  1.00  0.00    -0.129 OA 
BRANCH  17  20
HETATM   20  N   UNL     1      -9.739   5.843  69.354  1.00  0.00    -0.146 N  
HETATM   21  C   UNL     1      -9.318   5.745  70.779  1.00  0.00    -0.163 C  
HETATM   22  C   UNL     1     -10.601   5.448  71.530  1.00  0.00    -0.285 C  
HETATM   23  C   UNL     1     -11.646   6.251  70.780  1.00  0.00    -0.347 C  
HETATM   24  C   UNL     1     -11.140   6.341  69.341  1.00  0.00    -0.410 C  
ENDBRANCH  17  20
ENDBRANCH  16  17
ENDBRANCH  13  16
ENDBRANCH   5   6
ENDBRANCH   4   5
ENDBRANCH   2   4
TORSDOF 6
ENDMDL
MODEL      217
REMARK 921   NORMALIZED FREE ENERGY PREDICTED BY IDOCK:   -3.72 KCAL/MOL
REMARK 922        TOTAL FREE ENERGY PREDICTED BY IDOCK:   -5.62 KCAL/MOL
REMARK 923 INTER-LIGAND FREE ENERGY PREDICTED BY IDOCK:   -5.14 KCAL/MOL
REMARK 924 INTRA-LIGAND FREE ENERGY PREDICTED BY IDOCK:   -0.48 KCAL/MOL
REMARK 927      BINDING AFFINITY PREDICTED BY RF-SCORE:    0.00 PKD
ROOT
HETATM    1  C   UNL     1     -12.660   7.770  71.265  1.00  0.00    -0.264 C  
HETATM    2  N   UNL     1     -11.294   8.021  71.739  1.00  0.00    -0.258 NA 
HETATM    3  C   UNL     1     -11.238   7.821  73.189  1.00  0.00    -0.218 C  
ENDROOT
BRANCH   2   4
HETATM    4  C   UNL     1     -10.357   7.131  71.020  1.00  0.00    -0.196 C  
BRANCH   4   5
HETATM    5  C   UNL     1      -8.893   7.612  70.991  1.00  0.00    -0.142 C  
BRANCH   5   6
HETATM    6  C   UNL     1      -8.451   7.969  69.602  1.00  0.00    -0.131 A  
HETATM    7  C   UNL     1      -7.379   7.421  68.922  1.00  0.00    -0.091 A  
HETATM    8  N   UNL     1      -7.274   8.043  67.709  1.00  0.00    -0.089 NA 
HETATM    9  C   UNL     1      -8.272   8.978  67.568  1.00  0.00    -0.109 A  
HETATM   10  H   UNL     1      -6.558   7.843  67.010  1.00  0.00     0.000 HD 
HETATM   11  C   UNL     1      -9.036   8.948  68.732  1.00  0.00    -0.134 A  
HETATM   12  C   UNL     1     -10.138   9.828  68.833  1.00  0.00    -0.194 A  
HETATM   13  C   UNL     1     -10.442  10.718  67.784  1.00  0.00    -0.243 A  
HETATM   14  C   UNL     1      -9.647  10.700  66.628  1.00  0.00    -0.209 A  
HETATM   15  C   UNL     1      -8.548   9.843  66.504  1.00  0.00    -0.131 A  
BRANCH  13  16
HETATM   16  C   UNL     1     -11.624  11.656  67.912  1.00  0.00    -0.298 C  
BRANCH  16  17
HETATM   17  S   UNL     1     -11.030  13.350  68.138  1.00  0.00    -0.266 S  
HETATM   18  O   UNL     1     -11.795  14.243  67.290  1.00  0.00    -0.381 OA 
HETATM   19  O   UNL     1      -9.585  13.371  68.140  1.00  0.00    -0.212 OA 
BRANCH  17  20
HETATM   20  N   UNL     1     -11.502  13.718  69.736  1.00  0.00    -0.233 N  
HETATM   21  C   UNL     1     -12.316  14.961  69.832  1.00  0.00    -0.280 C  
HETATM   22  C   UNL     1     -12.976  14.871  71.194  1.00  0.00    -0.432 C  
HETATM   23  C   UNL     1     -13.267  13.392  71.352  1.00  0.00    -0.329 C  
HETATM   24  C   UNL     1     -12.194  12.673  70.536  1.00  0.00    -0.299 C  
ENDBRANCH  17  20
ENDBRANCH  16  17
ENDBRANCH  13  16
ENDBRANCH   5   6
ENDBRANCH   4   5
ENDBRANCH   2   4
TORSDOF 6
ENDMDL
MODEL      218
REMARK 921   NORMALIZED FREE ENERGY PREDICTED BY IDOCK:   -3.69 KCAL/MOL
REMARK 922        TOTAL FREE ENERGY PREDICTED BY IDOCK:   -5.57 KCAL/MOL
REMARK 923 INTER-LIGAND FREE ENERGY PREDICTED BY IDOCK:   -5.10 KCAL/MOL
REMARK 924 INTRA-LIGAND FREE ENERGY PREDICTED BY IDOCK:   -0.47 KCAL/MOL
REMARK 927      BINDING AFFINITY PREDICTED BY RF-SCORE:    0.00 PKD
ROOT
HETATM    1  C   UNL     1      -8.268  15.531  68.827  1.00  0.00    -0.177 C  
HETATM    2  N   UNL     1      -7.577  14.974  67.658  1.00  0.00    -0.161 NA 
HETATM    3  C   UNL     1      -6.169  15.377  67.687  1.00  0.00    -0.142 C  
ENDROOT
BRANCH   2   4
HETATM    4  C   UNL     1      -7.733  13.504  67.653  1.00  0.00    -0.176 C  
BRANCH   4   5
HETATM    5  C   UNL     1      -8.966  12.982  66.890  1.00  0.00    -0.210 C  
BRANCH   5   6
HETATM    6  C   UNL     1     -10.161  12.845  67.789  1.00  0.00    -0.229 A  
HETATM    7  C   UNL     1     -11.233  13.716  67.856  1.00  0.00    -0.274 A  
HETATM    8  N   UNL     1     -12.086  13.274  68.829  1.00  0.00    -0.290 NA 
HETATM    9  C   UNL     1     -11.607  12.114  69.390  1.00  0.00    -0.317 A  
HETATM   10  H   UNL     1     -12.954  13.739  69.099  1.00  0.00     0.000 HD 
HETATM   11  C   UNL     1     -10.406  11.811  68.752  1.00  0.00    -0.198 A  
HETATM   12  C   UNL     1      -9.709  10.648  69.154  1.00  0.00    -0.205 A  
HETATM   13  C   UNL     1     -10.215   9.830  70.183  1.00  0.00    -0.328 A  
HETATM   14  C   UNL     1     -11.434  10.175  70.786  1.00  0.00    -0.442 A  
HETATM   15  C   UNL     1     -12.142  11.322  70.411  1.00  0.00    -0.474 A  
BRANCH  13  16
HETATM   16  C   UNL     1      -9.452   8.592  70.603  1.00  0.00    -0.174 C  
BRANCH  16  17
HETATM   17  S   UNL     1     -10.341   7.116  70.052  1.00  0.00    -0.213 S  
HETATM   18  O   UNL     1     -10.669   7.252  68.646  1.00  0.00    -0.203 OA 
HETATM   19  O   UNL     1     -11.347   6.753  71.025  1.00  0.00    -0.274 OA 
BRANCH  17  20
HETATM   20  N   UNL     1      -9.155   5.893  70.132  1.00  0.00    -0.144 N  
HETATM   21  C   UNL     1      -9.680   4.548  69.769  1.00  0.00    -0.215 C  
HETATM   22  C   UNL     1      -8.438   3.727  69.481  1.00  0.00    -0.095 C  
HETATM   23  C   UNL     1      -7.501   4.719  68.820  1.00  0.00    -0.065 C  
HETATM   24  C   UNL     1      -7.880   6.084  69.392  1.00  0.00    -0.099 C  
ENDBRANCH  17  20
ENDBRANCH  16  17
ENDBRANCH  13  16
ENDBRANCH   5   6
ENDBRANCH   4   5
ENDBRANCH   2   4
TORSDOF 6
ENDMDL
MODEL      219
REMARK 921   NORMALIZED FREE ENERGY PREDICTED BY IDOCK:   -3.66 KCAL/MOL
REMARK 922        TOTAL FREE ENERGY PREDICTED BY IDOCK:   -5.53 KCAL/MOL
REMARK 923 INTER-LIGAND FREE ENERGY PREDICTED BY IDOCK:   -4.73 KCAL/MOL
REMARK 924 INTRA-LIGAND FREE ENERGY PREDICTED BY IDOCK:   -0.80 KCAL/MOL
REMARK 927      BINDING AFFINITY PREDICTED BY RF-SCORE:    0.00 PKD
ROOT
HETATM    1  C   UNL     1      -9.872  14.528  67.116  1.00  0.00    -0.245 C  
HETATM    2  N   UNL     1     -10.957  13.633  67.535  1.00  0.00    -0.264 NA 
HETATM    3  C   UNL     1     -12.058  13.720  66.573  1.00  0.00    -0.443 C  
ENDROOT
BRANCH   2   4
HETATM    4  C   UNL     1     -10.435  12.256  67.655  1.00  0.00    -0.214 C  
BRANCH   4   5
HETATM    5  C   UNL     1     -11.021  11.245  66.650  1.00  0.00    -0.326 C  
BRANCH   5   6
HETATM    6  C   UNL     1      -9.985  10.765  65.675  1.00  0.00    -0.317 A  
HETATM    7  C   UNL     1      -9.381  11.523  64.688  1.00  0.00    -0.022 A  
HETATM    8  N   UNL     1      -8.537  10.714  63.980  1.00  0.00    -0.306 NA 
HETATM    9  C   UNL     1      -8.556   9.439  64.496  1.00  0.00    -0.198 A  
HETATM   10  H   UNL     1      -7.974  11.013  63.183  1.00  0.00     0.000 HD 
HETATM   11  C   UNL     1      -9.445   9.440  65.569  1.00  0.00    -0.328 A  
HETATM   12  C   UNL     1      -9.642   8.232  66.276  1.00  0.00    -0.266 A  
HETATM   13  C   UNL     1      -8.963   7.059  65.892  1.00  0.00    -0.092 A  
HETATM   14  C   UNL     1      -8.071   7.115  64.811  1.00  0.00    -0.092 A  
HETATM   15  C   UNL     1      -7.860   8.296  64.091  1.00  0.00    -0.145 A  
BRANCH  13  16
HETATM   16  C   UNL     1      -9.190   5.773  66.659  1.00  0.00    -0.137 C  
BRANCH  16  17
HETATM   17  S   UNL     1      -8.100   5.729  68.102  1.00  0.00    -0.104 S  
HETATM   18  O   UNL     1      -7.298   6.936  68.134  1.00  0.00    -0.091 OA 
HETATM   19  O   UNL     1      -7.495   4.421  68.224  1.00  0.00    -0.064 OA 
BRANCH  17  20
HETATM   20  N   UNL     1      -9.184   5.862  69.414  1.00  0.00    -0.130 N  
HETATM   21  C   UNL     1      -9.382   7.267  69.866  1.00  0.00    -0.154 C  
HETATM   22  C   UNL     1     -10.651   7.218  70.694  1.00  0.00    -0.240 C  
HETATM   23  C   UNL     1     -11.510   6.200  69.969  1.00  0.00    -0.369 C  
HETATM   24  C   UNL     1     -10.530   5.242  69.294  1.00  0.00    -0.185 C  
ENDBRANCH  17  20
ENDBRANCH  16  17
ENDBRANCH  13  16
ENDBRANCH   5   6
ENDBRANCH   4   5
ENDBRANCH   2   4
TORSDOF 6
ENDMDL
MODEL      220
REMARK 921   NORMALIZED FREE ENERGY PREDICTED BY IDOCK:   -3.66 KCAL/MOL
REMARK 922        TOTAL FREE ENERGY PREDICTED BY IDOCK:   -5.53 KCAL/MOL
REMARK 923 INTER-LIGAND FREE ENERGY PREDICTED BY IDOCK:   -4.98 KCAL/MOL
REMARK 924 INTRA-LIGAND FREE ENERGY PREDICTED BY IDOCK:   -0.55 KCAL/MOL
REMARK 927      BINDING AFFINITY PREDICTED BY RF-SCORE:    0.00 PKD
ROOT
HETATM    1  C   UNL     1      -8.285   8.163  65.158  1.00  0.00    -0.154 C  
HETATM    2  N   UNL     1      -7.595   9.458  65.140  1.00  0.00    -0.106 NA 
HETATM    3  C   UNL     1      -7.715  10.054  63.808  1.00  0.00    -0.148 C  
ENDROOT
BRANCH   2   4
HETATM    4  C   UNL     1      -8.164  10.329  66.190  1.00  0.00    -0.138 C  
BRANCH   4   5
HETATM    5  C   UNL     1      -8.128   9.742  67.615  1.00  0.00    -0.113 C  
BRANCH   5   6
HETATM    6  C   UNL     1      -9.486   9.749  68.255  1.00  0.00    -0.148 A  
HETATM    7  C   UNL     1     -10.674  10.105  67.642  1.00  0.00    -0.285 A  
HETATM    8  N   UNL     1     -11.676  10.030  68.569  1.00  0.00    -0.556 NA 
HETATM    9  C   UNL     1     -11.174   9.609  69.778  1.00  0.00    -0.174 A  
HETATM   10  H   UNL     1     -12.655  10.254  68.389  1.00  0.00     0.000 HD 
HETATM   11  C   UNL     1      -9.805   9.412  69.612  1.00  0.00    -0.205 A  
HETATM   12  C   UNL     1      -9.052   8.971  70.725  1.00  0.00    -0.297 A  
HETATM   13  C   UNL     1      -9.676   8.752  71.969  1.00  0.00    -0.370 A  
HETATM   14  C   UNL     1     -11.059   8.956  72.080  1.00  0.00    -0.421 A  
HETATM   15  C   UNL     1     -11.827   9.396  70.996  1.00  0.00    -0.396 A  
BRANCH  13  16
HETATM   16  C   UNL     1      -8.852   8.285  73.151  1.00  0.00    -0.222 C  
BRANCH  16  17
HETATM   17  S   UNL     1      -9.142   6.522  73.431  1.00  0.00    -0.130 S  
HETATM   18  O   UNL     1     -10.531   6.316  73.791  1.00  0.00    -0.260 OA 
HETATM   19  O   UNL     1      -8.070   5.965  74.227  1.00  0.00    -0.104 OA 
BRANCH  17  20
HETATM   20  N   UNL     1      -8.964   5.845  71.875  1.00  0.00    -0.138 N  
HETATM   21  C   UNL     1      -7.725   5.033  71.731  1.00  0.00    -0.107 C  
HETATM   22  C   UNL     1      -7.968   4.197  70.489  1.00  0.00    -0.055 C  
HETATM   23  C   UNL     1      -9.449   3.878  70.559  1.00  0.00    -0.251 C  
HETATM   24  C   UNL     1     -10.085   5.046  71.311  1.00  0.00    -0.206 C  
ENDBRANCH  17  20
ENDBRANCH  16  17
ENDBRANCH  13  16
ENDBRANCH   5   6
ENDBRANCH   4   5
ENDBRANCH   2   4
TORSDOF 6
ENDMDL
MODEL      221
REMARK 921   NORMALIZED FREE ENERGY PREDICTED BY IDOCK:   -3.63 KCAL/MOL
REMARK 922        TOTAL FREE ENERGY PREDICTED BY IDOCK:   -5.50 KCAL/MOL
REMARK 923 INTER-LIGAND FREE ENERGY PREDICTED BY IDOCK:   -4.93 KCAL/MOL
REMARK 924 INTRA-LIGAND FREE ENERGY PREDICTED BY IDOCK:   -0.56 KCAL/MOL
REMARK 927      BINDING AFFINITY PREDICTED BY RF-SCORE:    0.00 PKD
ROOT
HETATM    1  C   UNL     1      -6.983   4.342  64.776  1.00  0.00    -0.050 C  
HETATM    2  N   UNL     1      -7.957   5.223  65.430  1.00  0.00    -0.104 NA 
HETATM    3  C   UNL     1      -8.251   6.359  64.553  1.00  0.00    -0.038 C  
ENDROOT
BRANCH   2   4
HETATM    4  C   UNL     1      -9.171   4.449  65.762  1.00  0.00    -0.142 C  
BRANCH   4   5
HETATM    5  C   UNL     1     -10.296   5.256  66.439  1.00  0.00    -0.315 C  
BRANCH   5   6
HETATM    6  C   UNL     1      -9.833   5.891  67.718  1.00  0.00    -0.138 A  
HETATM    7  C   UNL     1      -9.139   5.261  68.736  1.00  0.00    -0.112 A  
HETATM    8  N   UNL     1      -8.948   6.161  69.747  1.00  0.00    -0.138 NA 
HETATM    9  C   UNL     1      -9.485   7.380  69.406  1.00  0.00    -0.155 A  
HETATM   10  H   UNL     1      -8.476   5.956  70.628  1.00  0.00     0.000 HD 
HETATM   11  C   UNL     1     -10.037   7.248  68.134  1.00  0.00    -0.201 A  
HETATM   12  C   UNL     1     -10.656   8.378  67.552  1.00  0.00    -0.285 A  
HETATM   13  C   UNL     1     -10.721   9.599  68.254  1.00  0.00    -0.262 A  
HETATM   14  C   UNL     1     -10.140   9.681  69.528  1.00  0.00    -0.223 A  
HETATM   15  C   UNL     1      -9.525   8.577  70.128  1.00  0.00    -0.169 A  
BRANCH  13  16
HETATM   16  C   UNL     1     -11.393  10.797  67.616  1.00  0.00    -0.252 C  
BRANCH  16  17
HETATM   17  S   UNL     1     -10.292  11.520  66.376  1.00  0.00    -0.246 S  
HETATM   18  O   UNL     1     -10.538  10.891  65.093  1.00  0.00    -0.269 OA 
HETATM   19  O   UNL     1      -8.953  11.635  66.911  1.00  0.00    -0.178 OA 
BRANCH  17  20
HETATM   20  N   UNL     1     -10.869  13.118  66.225  1.00  0.00    -0.278 N  
HETATM   21  C   UNL     1      -9.781  14.133  66.217  1.00  0.00    -0.297 C  
HETATM   22  C   UNL     1     -10.434  15.379  65.652  1.00  0.00    -0.391 C  
HETATM   23  C   UNL     1     -11.393  14.837  64.610  1.00  0.00    -0.370 C  
HETATM   24  C   UNL     1     -11.785  13.443  65.099  1.00  0.00    -0.321 C  
ENDBRANCH  17  20
ENDBRANCH  16  17
ENDBRANCH  13  16
ENDBRANCH   5   6
ENDBRANCH   4   5
ENDBRANCH   2   4
TORSDOF 6
ENDMDL
MODEL      222
REMARK 921   NORMALIZED FREE ENERGY PREDICTED BY IDOCK:   -3.62 KCAL/MOL
REMARK 922        TOTAL FREE ENERGY PREDICTED BY IDOCK:   -5.48 KCAL/MOL
REMARK 923 INTER-LIGAND FREE ENERGY PREDICTED BY IDOCK:   -5.62 KCAL/MOL
REMARK 924 INTRA-LIGAND FREE ENERGY PREDICTED BY IDOCK:    0.14 KCAL/MOL
REMARK 927      BINDING AFFINITY PREDICTED BY RF-SCORE:    0.00 PKD
ROOT
HETATM    1  C   UNL     1     -10.571  19.059  68.134  1.00  0.00    -0.241 C  
HETATM    2  N   UNL     1      -9.841  19.330  66.890  1.00  0.00    -0.323 NA 
HETATM    3  C   UNL     1     -10.786  19.380  65.772  1.00  0.00    -0.365 C  
ENDROOT
BRANCH   2   4
HETATM    4  C   UNL     1      -9.084  20.591  67.033  1.00  0.00    -0.286 C  
BRANCH   4   5
HETATM    5  C   UNL     1      -7.561  20.465  66.835  1.00  0.00    -0.345 C  
BRANCH   5   6
HETATM    6  C   UNL     1      -6.890  19.875  68.042  1.00  0.00    -0.309 A  
HETATM    7  C   UNL     1      -6.240  20.580  69.038  1.00  0.00    -0.295 A  
HETATM    8  N   UNL     1      -5.719  19.684  69.930  1.00  0.00    -0.249 NA 
HETATM    9  C   UNL     1      -6.034  18.400  69.552  1.00  0.00    -0.253 A  
HETATM   10  H   UNL     1      -5.176  19.933  70.757  1.00  0.00     0.000 HD 
HETATM   11  C   UNL     1      -6.779  18.485  68.378  1.00  0.00    -0.251 A  
HETATM   12  C   UNL     1      -7.229  17.285  67.782  1.00  0.00    -0.169 A  
HETATM   13  C   UNL     1      -6.917  16.038  68.360  1.00  0.00    -0.121 A  
HETATM   14  C   UNL     1      -6.173  16.009  69.549  1.00  0.00    -0.172 A  
HETATM   15  C   UNL     1      -5.712  17.181  70.157  1.00  0.00    -0.221 A  
BRANCH  13  16
HETATM   16  C   UNL     1      -7.405  14.763  67.705  1.00  0.00    -0.186 C  
BRANCH  16  17
HETATM   17  S   UNL     1      -8.930  15.096  66.792  1.00  0.00    -0.280 S  
HETATM   18  O   UNL     1      -9.399  13.869  66.177  1.00  0.00    -0.213 OA 
HETATM   19  O   UNL     1      -8.790  16.314  66.025  1.00  0.00    -0.333 OA 
BRANCH  17  20
HETATM   20  N   UNL     1     -10.054  15.451  68.025  1.00  0.00    -0.225 N  
HETATM   21  C   UNL     1     -11.468  15.348  67.573  1.00  0.00    -0.225 C  
HETATM   22  C   UNL     1     -12.267  15.263  68.858  1.00  0.00    -0.132 C  
HETATM   23  C   UNL     1     -11.380  14.445  69.776  1.00  0.00    -0.285 C  
HETATM   24  C   UNL     1      -9.949  14.724  69.318  1.00  0.00    -0.138 C  
ENDBRANCH  17  20
ENDBRANCH  16  17
ENDBRANCH  13  16
ENDBRANCH   5   6
ENDBRANCH   4   5
ENDBRANCH   2   4
TORSDOF 6
ENDMDL
MODEL      223
REMARK 921   NORMALIZED FREE ENERGY PREDICTED BY IDOCK:   -3.62 KCAL/MOL
REMARK 922        TOTAL FREE ENERGY PREDICTED BY IDOCK:   -5.47 KCAL/MOL
REMARK 923 INTER-LIGAND FREE ENERGY PREDICTED BY IDOCK:   -4.69 KCAL/MOL
REMARK 924 INTRA-LIGAND FREE ENERGY PREDICTED BY IDOCK:   -0.79 KCAL/MOL
REMARK 927      BINDING AFFINITY PREDICTED BY RF-SCORE:    0.00 PKD
ROOT
HETATM    1  C   UNL     1     -11.930  14.192  67.714  1.00  0.00    -0.354 C  
HETATM    2  N   UNL     1     -11.146  13.922  68.925  1.00  0.00    -0.257 NA 
HETATM    3  C   UNL     1     -11.905  14.350  70.102  1.00  0.00    -0.314 C  
ENDROOT
BRANCH   2   4
HETATM    4  C   UNL     1     -10.808  12.484  68.977  1.00  0.00    -0.137 C  
BRANCH   4   5
HETATM    5  C   UNL     1     -11.997  11.526  68.770  1.00  0.00    -0.335 C  
BRANCH   5   6
HETATM    6  C   UNL     1     -12.203  10.629  69.956  1.00  0.00    -0.373 A  
HETATM    7  C   UNL     1     -12.968  10.918  71.072  1.00  0.00    -0.303 A  
HETATM    8  N   UNL     1     -12.862   9.873  71.948  1.00  0.00    -0.419 NA 
HETATM    9  C   UNL     1     -12.060   8.889  71.419  1.00  0.00    -0.322 A  
HETATM   10  H   UNL     1     -13.314   9.830  72.861  1.00  0.00     0.000 HD 
HETATM   11  C   UNL     1     -11.640   9.327  70.165  1.00  0.00    -0.078 A  
HETATM   12  C   UNL     1     -10.795   8.482  69.409  1.00  0.00    -0.103 A  
HETATM   13  C   UNL     1     -10.382   7.237  69.924  1.00  0.00    -0.226 A  
HETATM   14  C   UNL     1     -10.841   6.840  71.188  1.00  0.00    -0.275 A  
HETATM   15  C   UNL     1     -11.675   7.658  71.959  1.00  0.00    -0.340 A  
BRANCH  13  16
HETATM   16  C   UNL     1      -9.472   6.348  69.102  1.00  0.00    -0.134 C  
BRANCH  16  17
HETATM   17  S   UNL     1      -7.750   6.651  69.563  1.00  0.00    -0.106 S  
HETATM   18  O   UNL     1      -7.636   7.974  70.146  1.00  0.00    -0.078 OA 
HETATM   19  O   UNL     1      -6.870   6.222  68.499  1.00  0.00    -0.068 OA 
BRANCH  17  20
HETATM   20  N   UNL     1      -7.492   5.559  70.848  1.00  0.00    -0.086 N  
HETATM   21  C   UNL     1      -7.545   6.209  72.186  1.00  0.00    -0.096 C  
HETATM   22  C   UNL     1      -7.731   5.057  73.154  1.00  0.00    -0.093 C  
HETATM   23  C   UNL     1      -8.631   4.098  72.399  1.00  0.00    -0.109 C  
HETATM   24  C   UNL     1      -8.326   4.330  70.919  1.00  0.00    -0.079 C  
ENDBRANCH  17  20
ENDBRANCH  16  17
ENDBRANCH  13  16
ENDBRANCH   5   6
ENDBRANCH   4   5
ENDBRANCH   2   4
TORSDOF 6
ENDMDL
MODEL      224
REMARK 921   NORMALIZED FREE ENERGY PREDICTED BY IDOCK:   -3.61 KCAL/MOL
REMARK 922        TOTAL FREE ENERGY PREDICTED BY IDOCK:   -5.47 KCAL/MOL
REMARK 923 INTER-LIGAND FREE ENERGY PREDICTED BY IDOCK:   -5.12 KCAL/MOL
REMARK 924 INTRA-LIGAND FREE ENERGY PREDICTED BY IDOCK:   -0.35 KCAL/MOL
REMARK 927      BINDING AFFINITY PREDICTED BY RF-SCORE:    0.00 PKD
ROOT
HETATM    1  C   UNL     1     -12.103  14.427  66.556  1.00  0.00    -0.372 C  
HETATM    2  N   UNL     1     -12.320  12.975  66.526  1.00  0.00    -0.401 NA 
HETATM    3  C   UNL     1     -11.720  12.418  65.312  1.00  0.00    -0.390 C  
ENDROOT
BRANCH   2   4
HETATM    4  C   UNL     1     -11.753  12.372  67.751  1.00  0.00    -0.350 C  
BRANCH   4   5
HETATM    5  C   UNL     1     -11.054  11.014  67.546  1.00  0.00    -0.366 C  
BRANCH   5   6
HETATM    6  C   UNL     1      -9.696  10.985  68.186  1.00  0.00    -0.180 A  
HETATM    7  C   UNL     1      -8.626  11.801  67.865  1.00  0.00    -0.156 A  
HETATM    8  N   UNL     1      -7.557  11.431  68.633  1.00  0.00    -0.123 NA 
HETATM    9  C   UNL     1      -7.909  10.399  69.471  1.00  0.00    -0.155 A  
HETATM   10  H   UNL     1      -6.632  11.858  68.590  1.00  0.00     0.000 HD 
HETATM   11  C   UNL     1      -9.248  10.104  69.225  1.00  0.00    -0.220 A  
HETATM   12  C   UNL     1      -9.853   9.066  69.971  1.00  0.00    -0.203 A  
HETATM   13  C   UNL     1      -9.111   8.346  70.928  1.00  0.00    -0.190 A  
HETATM   14  C   UNL     1      -7.769   8.690  71.144  1.00  0.00    -0.131 A  
HETATM   15  C   UNL     1      -7.144   9.710  70.417  1.00  0.00    -0.138 A  
BRANCH  13  16
HETATM   16  C   UNL     1      -9.775   7.235  71.714  1.00  0.00    -0.153 C  
BRANCH  16  17
HETATM   17  S   UNL     1      -9.373   5.639  70.964  1.00  0.00    -0.155 S  
HETATM   18  O   UNL     1      -7.958   5.600  70.649  1.00  0.00    -0.100 OA 
HETATM   19  O   UNL     1     -10.371   5.291  69.978  1.00  0.00    -0.267 OA 
BRANCH  17  20
HETATM   20  N   UNL     1      -9.589   4.538  72.250  1.00  0.00    -0.147 N  
HETATM   21  C   UNL     1     -10.819   4.805  73.045  1.00  0.00    -0.256 C  
HETATM   22  C   UNL     1     -11.053   3.520  73.815  1.00  0.00    -0.286 C  
HETATM   23  C   UNL     1     -10.627   2.439  72.840  1.00  0.00    -0.231 C  
HETATM   24  C   UNL     1      -9.560   3.081  71.956  1.00  0.00    -0.146 C  
ENDBRANCH  17  20
ENDBRANCH  16  17
ENDBRANCH  13  16
ENDBRANCH   5   6
ENDBRANCH   4   5
ENDBRANCH   2   4
TORSDOF 6
ENDMDL
MODEL      225
REMARK 921   NORMALIZED FREE ENERGY PREDICTED BY IDOCK:   -3.57 KCAL/MOL
REMARK 922        TOTAL FREE ENERGY PREDICTED BY IDOCK:   -5.41 KCAL/MOL
REMARK 923 INTER-LIGAND FREE ENERGY PREDICTED BY IDOCK:   -5.86 KCAL/MOL
REMARK 924 INTRA-LIGAND FREE ENERGY PREDICTED BY IDOCK:    0.44 KCAL/MOL
REMARK 927      BINDING AFFINITY PREDICTED BY RF-SCORE:    0.00 PKD
ROOT
HETATM    1  C   UNL     1     -11.811  13.598  69.868  1.00  0.00    -0.320 C  
HETATM    2  N   UNL     1     -10.923  13.202  68.768  1.00  0.00    -0.258 NA 
HETATM    3  C   UNL     1     -10.836  11.741  68.715  1.00  0.00    -0.227 C  
ENDROOT
BRANCH   2   4
HETATM    4  C   UNL     1     -11.429  13.773  67.503  1.00  0.00    -0.330 C  
BRANCH   4   5
HETATM    5  C   UNL     1     -12.231  12.797  66.621  1.00  0.00    -0.162 C  
BRANCH   5   6
HETATM    6  C   UNL     1     -11.585  12.597  65.280  1.00  0.00    -0.389 A  
HETATM    7  C   UNL     1     -11.862  13.310  64.128  1.00  0.00    -0.443 A  
HETATM    8  N   UNL     1     -11.105  12.796  63.112  1.00  0.00    -0.656 NA 
HETATM    9  C   UNL     1     -10.317  11.771  63.578  1.00  0.00    -0.448 A  
HETATM   10  H   UNL     1     -11.123  13.126  62.146  1.00  0.00     0.000 HD 
HETATM   11  C   UNL     1     -10.584  11.628  64.938  1.00  0.00    -0.349 A  
HETATM   12  C   UNL     1      -9.890  10.628  65.656  1.00  0.00    -0.307 A  
HETATM   13  C   UNL     1      -8.962   9.791  65.003  1.00  0.00    -0.247 A  
HETATM   14  C   UNL     1      -8.722   9.984  63.634  1.00  0.00    -0.227 A  
HETATM   15  C   UNL     1      -9.398  10.964  62.899  1.00  0.00    -0.367 A  
BRANCH  13  16
HETATM   16  C   UNL     1      -8.231   8.722  65.788  1.00  0.00    -0.121 C  
BRANCH  16  17
HETATM   17  S   UNL     1      -7.672   7.421  64.662  1.00  0.00    -0.123 S  
HETATM   18  O   UNL     1      -6.224   7.355  64.689  1.00  0.00    -0.037 OA 
HETATM   19  O   UNL     1      -8.396   7.504  63.413  1.00  0.00    -0.000 OA 
BRANCH  17  20
HETATM   20  N   UNL     1      -8.213   5.991  65.419  1.00  0.00    -0.135 N  
HETATM   21  C   UNL     1      -9.077   6.250  66.603  1.00  0.00    -0.144 C  
HETATM   22  C   UNL     1      -9.781   4.929  66.847  1.00  0.00    -0.193 C  
HETATM   23  C   UNL     1     -10.020   4.389  65.451  1.00  0.00    -0.231 C  
HETATM   24  C   UNL     1      -8.892   4.959  64.593  1.00  0.00    -0.139 C  
ENDBRANCH  17  20
ENDBRANCH  16  17
ENDBRANCH  13  16
ENDBRANCH   5   6
ENDBRANCH   4   5
ENDBRANCH   2   4
TORSDOF 6
ENDMDL
MODEL      226
REMARK 921   NORMALIZED FREE ENERGY PREDICTED BY IDOCK:   -3.57 KCAL/MOL
REMARK 922        TOTAL FREE ENERGY PREDICTED BY IDOCK:   -5.41 KCAL/MOL
REMARK 923 INTER-LIGAND FREE ENERGY PREDICTED BY IDOCK:   -5.31 KCAL/MOL
REMARK 924 INTRA-LIGAND FREE ENERGY PREDICTED BY IDOCK:   -0.10 KCAL/MOL
REMARK 927      BINDING AFFINITY PREDICTED BY RF-SCORE:    0.00 PKD
ROOT
HETATM    1  C   UNL     1      -5.843  15.053  67.940  1.00  0.00    -0.139 C  
HETATM    2  N   UNL     1      -6.939  14.588  68.797  1.00  0.00    -0.098 NA 
HETATM    3  C   UNL     1      -6.509  14.616  70.197  1.00  0.00    -0.166 C  
ENDROOT
BRANCH   2   4
HETATM    4  C   UNL     1      -8.131  15.431  68.566  1.00  0.00    -0.142 C  
BRANCH   4   5
HETATM    5  C   UNL     1      -8.014  16.418  67.389  1.00  0.00    -0.179 C  
BRANCH   5   6
HETATM    6  C   UNL     1      -9.101  16.207  66.374  1.00  0.00    -0.339 A  
HETATM    7  C   UNL     1      -9.701  17.189  65.608  1.00  0.00     0.110 A  
HETATM    8  N   UNL     1     -10.675  16.605  64.847  1.00  0.00    -0.717 NA 
HETATM    9  C   UNL     1     -10.713  15.251  65.081  1.00  0.00    -0.436 A  
HETATM   10  H   UNL     1     -11.286  17.103  64.199  1.00  0.00     0.000 HD 
HETATM   11  C   UNL     1      -9.729  14.966  66.025  1.00  0.00    -0.358 A  
HETATM   12  C   UNL     1      -9.564  13.623  66.436  1.00  0.00    -0.280 A  
HETATM   13  C   UNL     1     -10.387  12.608  65.911  1.00  0.00    -0.295 A  
HETATM   14  C   UNL     1     -11.356  12.947  64.955  1.00  0.00    -0.340 A  
HETATM   15  C   UNL     1     -11.543  14.267  64.532  1.00  0.00    -0.397 A  
BRANCH  13  16
HETATM   16  C   UNL     1     -10.199  11.176  66.368  1.00  0.00    -0.233 C  
BRANCH  16  17
HETATM   17  S   UNL     1      -8.540  10.611  65.921  1.00  0.00    -0.175 S  
HETATM   18  O   UNL     1      -7.560  11.320  66.721  1.00  0.00    -0.141 OA 
HETATM   19  O   UNL     1      -8.417  10.530  64.482  1.00  0.00    -0.173 OA 
BRANCH  17  20
HETATM   20  N   UNL     1      -8.512   9.000  66.480  1.00  0.00    -0.117 N  
HETATM   21  C   UNL     1      -9.854   8.355  66.468  1.00  0.00    -0.268 C  
HETATM   22  C   UNL     1      -9.557   6.872  66.567  1.00  0.00    -0.197 C  
HETATM   23  C   UNL     1      -8.289   6.707  65.754  1.00  0.00    -0.143 C  
HETATM   24  C   UNL     1      -7.557   8.044  65.860  1.00  0.00    -0.086 C  
ENDBRANCH  17  20
ENDBRANCH  16  17
ENDBRANCH  13  16
ENDBRANCH   5   6
ENDBRANCH   4   5
ENDBRANCH   2   4
TORSDOF 6
ENDMDL
MODEL      227
REMARK 921   NORMALIZED FREE ENERGY PREDICTED BY IDOCK:   -3.56 KCAL/MOL
REMARK 922        TOTAL FREE ENERGY PREDICTED BY IDOCK:   -5.39 KCAL/MOL
REMARK 923 INTER-LIGAND FREE ENERGY PREDICTED BY IDOCK:   -4.97 KCAL/MOL
REMARK 924 INTRA-LIGAND FREE ENERGY PREDICTED BY IDOCK:   -0.42 KCAL/MOL
REMARK 927      BINDING AFFINITY PREDICTED BY RF-SCORE:    0.00 PKD
ROOT
HETATM    1  C   UNL     1     -10.681  11.977  64.029  1.00  0.00    -0.375 C  
HETATM    2  N   UNL     1     -11.376  13.259  64.195  1.00  0.00    -0.386 NA 
HETATM    3  C   UNL     1     -12.545  13.296  63.314  1.00  0.00     0.043 C  
ENDROOT
BRANCH   2   4
HETATM    4  C   UNL     1     -11.746  13.433  65.615  1.00  0.00    -0.346 C  
BRANCH   4   5
HETATM    5  C   UNL     1     -11.347  14.788  66.231  1.00  0.00    -0.334 C  
BRANCH   5   6
HETATM    6  C   UNL     1      -9.883  14.841  66.562  1.00  0.00    -0.287 A  
HETATM    7  C   UNL     1      -9.018  15.879  66.267  1.00  0.00    -0.346 A  
HETATM    8  N   UNL     1      -7.765  15.526  66.684  1.00  0.00    -0.252 NA 
HETATM    9  C   UNL     1      -7.792  14.282  67.270  1.00  0.00    -0.147 A  
HETATM   10  H   UNL     1      -6.930  16.103  66.577  1.00  0.00     0.000 HD 
HETATM   11  C   UNL     1      -9.108  13.830  67.221  1.00  0.00    -0.232 A  
HETATM   12  C   UNL     1      -9.400  12.559  67.768  1.00  0.00    -0.198 A  
HETATM   13  C   UNL     1      -8.378  11.771  68.334  1.00  0.00    -0.153 A  
HETATM   14  C   UNL     1      -7.071  12.279  68.367  1.00  0.00    -0.094 A  
HETATM   15  C   UNL     1      -6.754  13.531  67.830  1.00  0.00    -0.173 A  
BRANCH  13  16
HETATM   16  C   UNL     1      -8.710  10.411  68.910  1.00  0.00    -0.157 C  
BRANCH  16  17
HETATM   17  S   UNL     1      -8.954   9.226  67.565  1.00  0.00    -0.117 S  
HETATM   18  O   UNL     1      -7.677   8.941  66.941  1.00  0.00    -0.096 OA 
HETATM   19  O   UNL     1     -10.106   9.604  66.777  1.00  0.00    -0.208 OA 
BRANCH  17  20
HETATM   20  N   UNL     1      -9.398   7.795  68.380  1.00  0.00    -0.143 N  
HETATM   21  C   UNL     1      -9.753   8.024  69.808  1.00  0.00    -0.176 C  
HETATM   22  C   UNL     1     -10.510   6.774  70.211  1.00  0.00    -0.238 C  
HETATM   23  C   UNL     1     -11.292   6.414  68.963  1.00  0.00    -0.332 C  
HETATM   24  C   UNL     1     -10.462   6.939  67.793  1.00  0.00    -0.223 C  
ENDBRANCH  17  20
ENDBRANCH  16  17
ENDBRANCH  13  16
ENDBRANCH   5   6
ENDBRANCH   4   5
ENDBRANCH   2   4
TORSDOF 6
ENDMDL
MODEL      228
REMARK 921   NORMALIZED FREE ENERGY PREDICTED BY IDOCK:   -3.56 KCAL/MOL
REMARK 922        TOTAL FREE ENERGY PREDICTED BY IDOCK:   -5.39 KCAL/MOL
REMARK 923 INTER-LIGAND FREE ENERGY PREDICTED BY IDOCK:   -4.90 KCAL/MOL
REMARK 924 INTRA-LIGAND FREE ENERGY PREDICTED BY IDOCK:   -0.49 KCAL/MOL
REMARK 927      BINDING AFFINITY PREDICTED BY RF-SCORE:    0.00 PKD
ROOT
HETATM    1  C   UNL     1      -8.237   3.302  68.558  1.00  0.00    -0.068 C  
HETATM    2  N   UNL     1      -7.456   3.030  69.771  1.00  0.00    -0.044 NA 
HETATM    3  C   UNL     1      -6.087   3.517  69.587  1.00  0.00    -0.024 C  
ENDROOT
BRANCH   2   4
HETATM    4  C   UNL     1      -8.119   3.663  70.930  1.00  0.00    -0.065 C  
BRANCH   4   5
HETATM    5  C   UNL     1      -9.655   3.532  70.955  1.00  0.00    -0.243 C  
BRANCH   5   6
HETATM    6  C   UNL     1     -10.293   4.618  71.772  1.00  0.00    -0.208 A  
HETATM    7  C   UNL     1     -10.702   4.514  73.089  1.00  0.00    -0.235 A  
HETATM    8  N   UNL     1     -11.280   5.697  73.455  1.00  0.00    -0.457 NA 
HETATM    9  C   UNL     1     -11.239   6.589  72.410  1.00  0.00    -0.275 A  
HETATM   10  H   UNL     1     -11.682   5.891  74.373  1.00  0.00     0.000 HD 
HETATM   11  C   UNL     1     -10.615   5.948  71.342  1.00  0.00    -0.309 A  
HETATM   12  C   UNL     1     -10.450   6.665  70.135  1.00  0.00    -0.248 A  
HETATM   13  C   UNL     1     -10.918   7.988  70.018  1.00  0.00    -0.202 A  
HETATM   14  C   UNL     1     -11.530   8.591  71.127  1.00  0.00    -0.322 A  
HETATM   15  C   UNL     1     -11.710   7.904  72.332  1.00  0.00    -0.423 A  
BRANCH  13  16
HETATM   16  C   UNL     1     -10.736   8.738  68.715  1.00  0.00    -0.077 C  
BRANCH  16  17
HETATM   17  S   UNL     1      -9.869  10.295  69.028  1.00  0.00    -0.217 S  
HETATM   18  O   UNL     1      -8.636  10.021  69.741  1.00  0.00    -0.186 OA 
HETATM   19  O   UNL     1     -10.802  11.293  69.499  1.00  0.00    -0.226 OA 
BRANCH  17  20
HETATM   20  N   UNL     1      -9.397  10.800  67.469  1.00  0.00    -0.147 N  
HETATM   21  C   UNL     1     -10.262  10.247  66.390  1.00  0.00    -0.225 C  
HETATM   22  C   UNL     1      -9.971  11.125  65.190  1.00  0.00    -0.323 C  
HETATM   23  C   UNL     1      -9.771  12.501  65.795  1.00  0.00    -0.196 C  
HETATM   24  C   UNL     1      -9.239  12.254  67.206  1.00  0.00    -0.185 C  
ENDBRANCH  17  20
ENDBRANCH  16  17
ENDBRANCH  13  16
ENDBRANCH   5   6
ENDBRANCH   4   5
ENDBRANCH   2   4
TORSDOF 6
ENDMDL
MODEL      229
REMARK 921   NORMALIZED FREE ENERGY PREDICTED BY IDOCK:   -3.55 KCAL/MOL
REMARK 922        TOTAL FREE ENERGY PREDICTED BY IDOCK:   -5.39 KCAL/MOL
REMARK 923 INTER-LIGAND FREE ENERGY PREDICTED BY IDOCK:   -4.97 KCAL/MOL
REMARK 924 INTRA-LIGAND FREE ENERGY PREDICTED BY IDOCK:   -0.41 KCAL/MOL
REMARK 927      BINDING AFFINITY PREDICTED BY RF-SCORE:    0.00 PKD
ROOT
HETATM    1  C   UNL     1     -12.200  15.117  71.270  1.00  0.00    -0.333 C  
HETATM    2  N   UNL     1     -12.319  14.537  69.927  1.00  0.00    -0.317 NA 
HETATM    3  C   UNL     1     -11.057  14.718  69.206  1.00  0.00    -0.266 C  
ENDROOT
BRANCH   2   4
HETATM    4  C   UNL     1     -12.693  13.112  70.041  1.00  0.00     0.204 C  
BRANCH   4   5
HETATM    5  C   UNL     1     -11.509  12.138  70.201  1.00  0.00    -0.066 C  
BRANCH   5   6
HETATM    6  C   UNL     1     -11.941  10.830  70.800  1.00  0.00    -0.464 A  
HETATM    7  C   UNL     1     -12.998  10.643  71.671  1.00  0.00    -0.477 A  
HETATM    8  N   UNL     1     -13.034   9.323  72.027  1.00  0.00    -0.393 NA 
HETATM    9  C   UNL     1     -12.032   8.632  71.388  1.00  0.00    -0.304 A  
HETATM   10  H   UNL     1     -13.707   8.911  72.674  1.00  0.00     0.000 HD 
HETATM   11  C   UNL     1     -11.335   9.545  70.600  1.00  0.00    -0.364 A  
HETATM   12  C   UNL     1     -10.245   9.074  69.833  1.00  0.00    -0.214 A  
HETATM   13  C   UNL     1      -9.870   7.717  69.881  1.00  0.00    -0.184 A  
HETATM   14  C   UNL     1     -10.612   6.836  70.682  1.00  0.00    -0.257 A  
HETATM   15  C   UNL     1     -11.692   7.276  71.454  1.00  0.00    -0.317 A  
BRANCH  13  16
HETATM   16  C   UNL     1      -8.696   7.232  69.056  1.00  0.00    -0.132 C  
BRANCH  16  17
HETATM   17  S   UNL     1      -9.276   6.722  67.420  1.00  0.00    -0.128 S  
HETATM   18  O   UNL     1      -8.549   7.458  66.404  1.00  0.00    -0.121 OA 
HETATM   19  O   UNL     1     -10.720   6.653  67.407  1.00  0.00    -0.251 OA 
BRANCH  17  20
HETATM   20  N   UNL     1      -8.733   5.110  67.298  1.00  0.00    -0.104 N  
HETATM   21  C   UNL     1      -9.841   4.134  67.110  1.00  0.00    -0.137 C  
HETATM   22  C   UNL     1      -9.155   2.882  66.600  1.00  0.00    -0.161 C  
HETATM   23  C   UNL     1      -8.046   3.418  65.716  1.00  0.00    -0.093 C  
HETATM   24  C   UNL     1      -7.682   4.783  66.298  1.00  0.00    -0.091 C  
ENDBRANCH  17  20
ENDBRANCH  16  17
ENDBRANCH  13  16
ENDBRANCH   5   6
ENDBRANCH   4   5
ENDBRANCH   2   4
TORSDOF 6
ENDMDL
MODEL      230
REMARK 921   NORMALIZED FREE ENERGY PREDICTED BY IDOCK:   -3.55 KCAL/MOL
REMARK 922        TOTAL FREE ENERGY PREDICTED BY IDOCK:   -5.38 KCAL/MOL
REMARK 923 INTER-LIGAND FREE ENERGY PREDICTED BY IDOCK:   -5.98 KCAL/MOL
REMARK 924 INTRA-LIGAND FREE ENERGY PREDICTED BY IDOCK:    0.60 KCAL/MOL
REMARK 927      BINDING AFFINITY PREDICTED BY RF-SCORE:    0.00 PKD
ROOT
HETATM    1  C   UNL     1      -9.173   5.707  71.039  1.00  0.00    -0.152 C  
HETATM    2  N   UNL     1      -9.118   6.272  72.392  1.00  0.00    -0.139 NA 
HETATM    3  C   UNL     1      -7.950   5.737  73.096  1.00  0.00    -0.110 C  
ENDROOT
BRANCH   2   4
HETATM    4  C   UNL     1      -9.086   7.747  72.304  1.00  0.00    -0.149 C  
BRANCH   4   5
HETATM    5  C   UNL     1      -9.392   8.325  70.909  1.00  0.00    -0.187 C  
BRANCH   5   6
HETATM    6  C   UNL     1     -10.544   9.286  70.945  1.00  0.00    -0.366 A  
HETATM    7  C   UNL     1     -11.647   9.206  71.776  1.00  0.00    -0.387 A  
HETATM    8  N   UNL     1     -12.493  10.235  71.469  1.00  0.00    -0.405 NA 
HETATM    9  C   UNL     1     -11.958  11.007  70.466  1.00  0.00    -0.379 A  
HETATM   10  H   UNL     1     -13.392  10.405  71.920  1.00  0.00     0.000 HD 
HETATM   11  C   UNL     1     -10.729  10.447  70.123  1.00  0.00    -0.292 A  
HETATM   12  C   UNL     1      -9.972  11.066  69.102  1.00  0.00    -0.142 A  
HETATM   13  C   UNL     1     -10.460  12.213  68.445  1.00  0.00    -0.242 A  
HETATM   14  C   UNL     1     -11.698  12.743  68.836  1.00  0.00    -0.370 A  
HETATM   15  C   UNL     1     -12.470  12.148  69.839  1.00  0.00     0.005 A  
BRANCH  13  16
HETATM   16  C   UNL     1      -9.636  12.860  67.351  1.00  0.00    -0.203 C  
BRANCH  16  17
HETATM   17  S   UNL     1     -10.733  13.707  66.188  1.00  0.00    -0.289 S  
HETATM   18  O   UNL     1     -12.095  13.256  66.399  1.00  0.00    -0.403 OA 
HETATM   19  O   UNL     1     -10.141  13.716  64.869  1.00  0.00    -0.343 OA 
BRANCH  17  20
HETATM   20  N   UNL     1     -10.696  15.326  66.725  1.00  0.00    -0.309 N  
HETATM   21  C   UNL     1      -9.819  15.527  67.911  1.00  0.00    -0.216 C  
HETATM   22  C   UNL     1      -9.581  17.024  67.951  1.00  0.00    -0.249 C  
HETATM   23  C   UNL     1      -9.500  17.411  66.488  1.00  0.00    -0.288 C  
HETATM   24  C   UNL     1     -10.368  16.396  65.746  1.00  0.00    -0.369 C  
ENDBRANCH  17  20
ENDBRANCH  16  17
ENDBRANCH  13  16
ENDBRANCH   5   6
ENDBRANCH   4   5
ENDBRANCH   2   4
TORSDOF 6
ENDMDL
MODEL      231
REMARK 921   NORMALIZED FREE ENERGY PREDICTED BY IDOCK:   -3.53 KCAL/MOL
REMARK 922        TOTAL FREE ENERGY PREDICTED BY IDOCK:   -5.36 KCAL/MOL
REMARK 923 INTER-LIGAND FREE ENERGY PREDICTED BY IDOCK:   -4.56 KCAL/MOL
REMARK 924 INTRA-LIGAND FREE ENERGY PREDICTED BY IDOCK:   -0.80 KCAL/MOL
REMARK 927      BINDING AFFINITY PREDICTED BY RF-SCORE:    0.00 PKD
ROOT
HETATM    1  C   UNL     1     -11.199  14.388  65.786  1.00  0.00    -0.326 C  
HETATM    2  N   UNL     1     -10.308  14.233  66.941  1.00  0.00    -0.267 NA 
HETATM    3  C   UNL     1     -10.928  14.843  68.119  1.00  0.00    -0.272 C  
ENDROOT
BRANCH   2   4
HETATM    4  C   UNL     1     -10.021  12.798  67.147  1.00  0.00    -0.218 C  
BRANCH   4   5
HETATM    5  C   UNL     1     -11.263  11.902  67.321  1.00  0.00    -0.376 C  
BRANCH   5   6
HETATM    6  C   UNL     1     -11.198  11.100  68.589  1.00  0.00    -0.314 A  
HETATM    7  C   UNL     1     -11.479  11.564  69.861  1.00  0.00    -0.260 A  
HETATM    8  N   UNL     1     -11.256  10.548  70.748  1.00  0.00    -0.387 NA 
HETATM    9  C   UNL     1     -10.855   9.415  70.082  1.00  0.00    -0.249 A  
HETATM   10  H   UNL     1     -11.371  10.621  71.760  1.00  0.00     0.000 HD 
HETATM   11  C   UNL     1     -10.821   9.723  68.724  1.00  0.00    -0.219 A  
HETATM   12  C   UNL     1     -10.435   8.710  67.816  1.00  0.00    -0.287 A  
HETATM   13  C   UNL     1     -10.082   7.428  68.283  1.00  0.00    -0.201 A  
HETATM   14  C   UNL     1     -10.144   7.167  69.659  1.00  0.00    -0.196 A  
HETATM   15  C   UNL     1     -10.518   8.152  70.579  1.00  0.00    -0.222 A  
BRANCH  13  16
HETATM   16  C   UNL     1      -9.667   6.357  67.295  1.00  0.00    -0.130 C  
BRANCH  16  17
HETATM   17  S   UNL     1      -7.862   6.255  67.237  1.00  0.00    -0.109 S  
HETATM   18  O   UNL     1      -7.295   7.449  67.833  1.00  0.00    -0.088 OA 
HETATM   19  O   UNL     1      -7.436   5.790  65.936  1.00  0.00    -0.076 OA 
BRANCH  17  20
HETATM   20  N   UNL     1      -7.508   4.987  68.322  1.00  0.00    -0.074 N  
HETATM   21  C   UNL     1      -7.076   5.469  69.662  1.00  0.00    -0.064 C  
HETATM   22  C   UNL     1      -7.235   4.261  70.564  1.00  0.00    -0.041 C  
HETATM   23  C   UNL     1      -8.477   3.577  70.027  1.00  0.00    -0.092 C  
HETATM   24  C   UNL     1      -8.528   3.927  68.541  1.00  0.00    -0.091 C  
ENDBRANCH  17  20
ENDBRANCH  16  17
ENDBRANCH  13  16
ENDBRANCH   5   6
ENDBRANCH   4   5
ENDBRANCH   2   4
TORSDOF 6
ENDMDL
MODEL      232
REMARK 921   NORMALIZED FREE ENERGY PREDICTED BY IDOCK:   -3.52 KCAL/MOL
REMARK 922        TOTAL FREE ENERGY PREDICTED BY IDOCK:   -5.35 KCAL/MOL
REMARK 923 INTER-LIGAND FREE ENERGY PREDICTED BY IDOCK:   -4.74 KCAL/MOL
REMARK 924 INTRA-LIGAND FREE ENERGY PREDICTED BY IDOCK:   -0.61 KCAL/MOL
REMARK 927      BINDING AFFINITY PREDICTED BY RF-SCORE:    0.00 PKD
ROOT
HETATM    1  C   UNL     1      -9.749  10.795  65.289  1.00  0.00    -0.255 C  
HETATM    2  N   UNL     1      -8.451  10.115  65.210  1.00  0.00    -0.151 NA 
HETATM    3  C   UNL     1      -7.608  10.544  66.328  1.00  0.00    -0.133 C  
ENDROOT
BRANCH   2   4
HETATM    4  C   UNL     1      -8.665   8.653  65.206  1.00  0.00    -0.165 C  
BRANCH   4   5
HETATM    5  C   UNL     1      -7.888   7.877  66.287  1.00  0.00    -0.094 C  
BRANCH   5   6
HETATM    6  C   UNL     1      -8.700   6.750  66.857  1.00  0.00    -0.117 A  
HETATM    7  C   UNL     1      -9.544   5.914  66.148  1.00  0.00    -0.076 A  
HETATM    8  N   UNL     1     -10.138   5.055  67.029  1.00  0.00    -0.205 NA 
HETATM    9  C   UNL     1      -9.684   5.293  68.305  1.00  0.00    -0.140 A  
HETATM   10  H   UNL     1     -10.819   4.339  66.776  1.00  0.00     0.000 HD 
HETATM   11  C   UNL     1      -8.771   6.343  68.230  1.00  0.00    -0.116 A  
HETATM   12  C   UNL     1      -8.155   6.781  69.425  1.00  0.00    -0.123 A  
HETATM   13  C   UNL     1      -8.472   6.175  70.657  1.00  0.00    -0.134 A  
HETATM   14  C   UNL     1      -9.390   5.115  70.676  1.00  0.00    -0.211 A  
HETATM   15  C   UNL     1     -10.017   4.664  69.509  1.00  0.00    -0.266 A  
BRANCH  13  16
HETATM   16  C   UNL     1      -7.805   6.662  71.927  1.00  0.00    -0.098 C  
BRANCH  16  17
HETATM   17  S   UNL     1      -8.410   8.317  72.333  1.00  0.00    -0.159 S  
HETATM   18  O   UNL     1      -7.802   9.282  71.439  1.00  0.00    -0.335 OA 
HETATM   19  O   UNL     1      -8.398   8.509  73.767  1.00  0.00    -0.362 OA 
BRANCH  17  20
HETATM   20  N   UNL     1     -10.056   8.250  71.888  1.00  0.00    -0.221 N  
HETATM   21  C   UNL     1     -10.931   7.716  72.968  1.00  0.00    -0.400 C  
HETATM   22  C   UNL     1     -12.329   8.137  72.560  1.00  0.00    -0.296 C  
HETATM   23  C   UNL     1     -12.121   9.503  71.936  1.00  0.00    -0.409 C  
HETATM   24  C   UNL     1     -10.704   9.481  71.363  1.00  0.00    -0.278 C  
ENDBRANCH  17  20
ENDBRANCH  16  17
ENDBRANCH  13  16
ENDBRANCH   5   6
ENDBRANCH   4   5
ENDBRANCH   2   4
TORSDOF 6
ENDMDL
MODEL      233
REMARK 921   NORMALIZED FREE ENERGY PREDICTED BY IDOCK:   -3.52 KCAL/MOL
REMARK 922        TOTAL FREE ENERGY PREDICTED BY IDOCK:   -5.35 KCAL/MOL
REMARK 923 INTER-LIGAND FREE ENERGY PREDICTED BY IDOCK:   -4.83 KCAL/MOL
REMARK 924 INTRA-LIGAND FREE ENERGY PREDICTED BY IDOCK:   -0.51 KCAL/MOL
REMARK 927      BINDING AFFINITY PREDICTED BY RF-SCORE:    0.00 PKD
ROOT
HETATM    1  C   UNL     1     -12.938  14.162  65.425  1.00  0.00    -0.270 C  
HETATM    2  N   UNL     1     -12.621  12.747  65.200  1.00  0.00    -0.641 NA 
HETATM    3  C   UNL     1     -12.136  12.568  63.830  1.00  0.00    -0.529 C  
ENDROOT
BRANCH   2   4
HETATM    4  C   UNL     1     -11.628  12.304  66.201  1.00  0.00    -0.390 C  
BRANCH   4   5
HETATM    5  C   UNL     1     -10.215  12.038  65.646  1.00  0.00    -0.284 C  
BRANCH   5   6
HETATM    6  C   UNL     1      -9.160  12.219  66.698  1.00  0.00    -0.203 A  
HETATM    7  C   UNL     1      -8.389  13.351  66.892  1.00  0.00     0.004 A  
HETATM    8  N   UNL     1      -7.512  13.105  67.911  1.00  0.00    -0.120 NA 
HETATM    9  C   UNL     1      -7.705  11.837  68.408  1.00  0.00    -0.131 A  
HETATM   10  H   UNL     1      -6.814  13.766  68.253  1.00  0.00     0.000 HD 
HETATM   11  C   UNL     1      -8.740  11.259  67.678  1.00  0.00    -0.131 A  
HETATM   12  C   UNL     1      -9.134   9.940  68.002  1.00  0.00    -0.123 A  
HETATM   13  C   UNL     1      -8.482   9.232  69.031  1.00  0.00    -0.132 A  
HETATM   14  C   UNL     1      -7.452   9.864  69.743  1.00  0.00    -0.140 A  
HETATM   15  C   UNL     1      -7.040  11.166  69.440  1.00  0.00    -0.110 A  
BRANCH  13  16
HETATM   16  C   UNL     1      -8.915   7.818  69.361  1.00  0.00    -0.142 C  
BRANCH  16  17
HETATM   17  S   UNL     1     -10.300   7.865  70.523  1.00  0.00    -0.208 S  
HETATM   18  O   UNL     1     -11.532   7.588  69.811  1.00  0.00    -0.061 OA 
HETATM   19  O   UNL     1     -10.177   9.015  71.391  1.00  0.00    -0.275 OA 
BRANCH  17  20
HETATM   20  N   UNL     1     -10.024   6.504  71.514  1.00  0.00    -0.176 N  
HETATM   21  C   UNL     1      -8.707   6.545  72.207  1.00  0.00    -0.130 C  
HETATM   22  C   UNL     1      -8.841   5.527  73.323  1.00  0.00    -0.121 C  
HETATM   23  C   UNL     1     -10.283   5.672  73.766  1.00  0.00    -0.245 C  
HETATM   24  C   UNL     1     -11.047   6.140  72.529  1.00  0.00    -0.274 C  
ENDBRANCH  17  20
ENDBRANCH  16  17
ENDBRANCH  13  16
ENDBRANCH   5   6
ENDBRANCH   4   5
ENDBRANCH   2   4
TORSDOF 6
ENDMDL
MODEL      234
REMARK 921   NORMALIZED FREE ENERGY PREDICTED BY IDOCK:   -3.51 KCAL/MOL
REMARK 922        TOTAL FREE ENERGY PREDICTED BY IDOCK:   -5.34 KCAL/MOL
REMARK 923 INTER-LIGAND FREE ENERGY PREDICTED BY IDOCK:   -5.45 KCAL/MOL
REMARK 924 INTRA-LIGAND FREE ENERGY PREDICTED BY IDOCK:    0.12 KCAL/MOL
REMARK 927      BINDING AFFINITY PREDICTED BY RF-SCORE:    0.00 PKD
ROOT
HETATM    1  C   UNL     1      -5.484  14.454  68.512  1.00  0.00    -0.099 C  
HETATM    2  N   UNL     1      -6.482  13.528  69.058  1.00  0.00    -0.102 NA 
HETATM    3  C   UNL     1      -6.143  13.210  70.447  1.00  0.00    -0.049 C  
ENDROOT
BRANCH   2   4
HETATM    4  C   UNL     1      -7.826  14.133  68.940  1.00  0.00    -0.076 C  
BRANCH   4   5
HETATM    5  C   UNL     1      -7.893  15.409  68.078  1.00  0.00    -0.133 C  
BRANCH   5   6
HETATM    6  C   UNL     1      -8.939  15.302  67.007  1.00  0.00    -0.254 A  
HETATM    7  C   UNL     1      -9.180  16.229  66.009  1.00  0.00    -0.316 A  
HETATM    8  N   UNL     1     -10.243  15.796  65.266  1.00  0.00    -0.442 NA 
HETATM    9  C   UNL     1     -10.694  14.587  65.743  1.00  0.00    -0.315 A  
HETATM   10  H   UNL     1     -10.643  16.297  64.473  1.00  0.00     0.000 HD 
HETATM   11  C   UNL     1      -9.890  14.244  66.827  1.00  0.00    -0.274 A  
HETATM   12  C   UNL     1     -10.154  13.027  67.498  1.00  0.00    -0.218 A  
HETATM   13  C   UNL     1     -11.214  12.197  67.083  1.00  0.00    -0.372 A  
HETATM   14  C   UNL     1     -11.987  12.584  65.978  1.00  0.00    -0.456 A  
HETATM   15  C   UNL     1     -11.750  13.784  65.299  1.00  0.00    -0.349 A  
BRANCH  13  16
HETATM   16  C   UNL     1     -11.484  10.900  67.817  1.00  0.00    -0.243 C  
BRANCH  16  17
HETATM   17  S   UNL     1     -10.184   9.703  67.431  1.00  0.00    -0.243 S  
HETATM   18  O   UNL     1      -9.197  10.328  66.572  1.00  0.00    -0.149 OA 
HETATM   19  O   UNL     1     -10.772   8.426  67.093  1.00  0.00    -0.291 OA 
BRANCH  17  20
HETATM   20  N   UNL     1      -9.407   9.474  68.932  1.00  0.00    -0.146 N  
HETATM   21  C   UNL     1     -10.300   9.731  70.096  1.00  0.00    -0.282 C  
HETATM   22  C   UNL     1      -9.592   9.071  71.263  1.00  0.00    -0.361 C  
HETATM   23  C   UNL     1      -8.972   7.831  70.650  1.00  0.00    -0.145 C  
HETATM   24  C   UNL     1      -8.709   8.185  69.187  1.00  0.00    -0.140 C  
ENDBRANCH  17  20
ENDBRANCH  16  17
ENDBRANCH  13  16
ENDBRANCH   5   6
ENDBRANCH   4   5
ENDBRANCH   2   4
TORSDOF 6
ENDMDL
MODEL      235
REMARK 921   NORMALIZED FREE ENERGY PREDICTED BY IDOCK:   -3.51 KCAL/MOL
REMARK 922        TOTAL FREE ENERGY PREDICTED BY IDOCK:   -5.33 KCAL/MOL
REMARK 923 INTER-LIGAND FREE ENERGY PREDICTED BY IDOCK:   -5.04 KCAL/MOL
REMARK 924 INTRA-LIGAND FREE ENERGY PREDICTED BY IDOCK:   -0.29 KCAL/MOL
REMARK 927      BINDING AFFINITY PREDICTED BY RF-SCORE:    0.00 PKD
ROOT
HETATM    1  C   UNL     1      -8.376   7.622  69.402  1.00  0.00    -0.131 C  
HETATM    2  N   UNL     1      -7.949   6.238  69.162  1.00  0.00    -0.108 NA 
HETATM    3  C   UNL     1      -8.827   5.324  69.896  1.00  0.00    -0.112 C  
ENDROOT
BRANCH   2   4
HETATM    4  C   UNL     1      -7.960   5.969  67.708  1.00  0.00    -0.105 C  
BRANCH   4   5
HETATM    5  C   UNL     1      -9.182   6.525  66.951  1.00  0.00    -0.153 C  
BRANCH   5   6
HETATM    6  C   UNL     1      -8.781   7.525  65.906  1.00  0.00    -0.170 A  
HETATM    7  C   UNL     1      -7.876   7.315  64.881  1.00  0.00    -0.126 A  
HETATM    8  N   UNL     1      -7.746   8.478  64.176  1.00  0.00    -0.127 NA 
HETATM    9  C   UNL     1      -8.567   9.448  64.703  1.00  0.00    -0.187 A  
HETATM   10  H   UNL     1      -7.129   8.609  63.374  1.00  0.00     0.000 HD 
HETATM   11  C   UNL     1      -9.239   8.879  65.782  1.00  0.00    -0.283 A  
HETATM   12  C   UNL     1     -10.155   9.682  66.499  1.00  0.00    -0.314 A  
HETATM   13  C   UNL     1     -10.366  11.027  66.135  1.00  0.00    -0.306 A  
HETATM   14  C   UNL     1      -9.670  11.548  65.034  1.00  0.00    -0.268 A  
HETATM   15  C   UNL     1      -8.756  10.776  64.309  1.00  0.00    -0.080 A  
BRANCH  13  16
HETATM   16  C   UNL     1     -11.347  11.873  66.919  1.00  0.00    -0.330 C  
BRANCH  16  17
HETATM   17  S   UNL     1     -10.629  12.305  68.522  1.00  0.00    -0.228 S  
HETATM   18  O   UNL     1      -9.933  13.572  68.410  1.00  0.00    -0.232 OA 
HETATM   19  O   UNL     1      -9.989  11.146  69.104  1.00  0.00    -0.179 OA 
BRANCH  17  20
HETATM   20  N   UNL     1     -11.998  12.615  69.491  1.00  0.00    -0.297 N  
HETATM   21  C   UNL     1     -12.308  11.505  70.434  1.00  0.00    -0.305 C  
HETATM   22  C   UNL     1     -13.232  12.132  71.459  1.00  0.00    -0.270 C  
HETATM   23  C   UNL     1     -12.691  13.541  71.612  1.00  0.00    -0.380 C  
HETATM   24  C   UNL     1     -12.051  13.882  70.267  1.00  0.00    -0.353 C  
ENDBRANCH  17  20
ENDBRANCH  16  17
ENDBRANCH  13  16
ENDBRANCH   5   6
ENDBRANCH   4   5
ENDBRANCH   2   4
TORSDOF 6
ENDMDL
MODEL      236
REMARK 921   NORMALIZED FREE ENERGY PREDICTED BY IDOCK:   -3.44 KCAL/MOL
REMARK 922        TOTAL FREE ENERGY PREDICTED BY IDOCK:   -5.24 KCAL/MOL
REMARK 923 INTER-LIGAND FREE ENERGY PREDICTED BY IDOCK:   -4.68 KCAL/MOL
REMARK 924 INTRA-LIGAND FREE ENERGY PREDICTED BY IDOCK:   -0.56 KCAL/MOL
REMARK 927      BINDING AFFINITY PREDICTED BY RF-SCORE:    0.00 PKD
ROOT
HETATM    1  C   UNL     1     -10.499  14.847  65.766  1.00  0.00    -0.330 C  
HETATM    2  N   UNL     1      -9.645  14.200  66.769  1.00  0.00    -0.271 NA 
HETATM    3  C   UNL     1      -9.581  15.039  67.968  1.00  0.00    -0.208 C  
ENDROOT
BRANCH   2   4
HETATM    4  C   UNL     1     -10.173  12.852  67.064  1.00  0.00    -0.243 C  
BRANCH   4   5
HETATM    5  C   UNL     1     -11.687  12.791  67.346  1.00  0.00    -0.425 C  
BRANCH   5   6
HETATM    6  C   UNL     1     -11.974  12.542  68.798  1.00  0.00    -0.283 A  
HETATM    7  C   UNL     1     -12.456  13.470  69.704  1.00  0.00    -0.054 A  
HETATM    8  N   UNL     1     -12.534  12.874  70.931  1.00  0.00    -0.351 NA 
HETATM    9  C   UNL     1     -12.133  11.561  70.847  1.00  0.00    -0.247 A  
HETATM   10  H   UNL     1     -12.845  13.336  71.786  1.00  0.00     0.000 HD 
HETATM   11  C   UNL     1     -11.787  11.317  69.520  1.00  0.00    -0.427 A  
HETATM   12  C   UNL     1     -11.338  10.023  69.172  1.00  0.00    -0.146 A  
HETATM   13  C   UNL     1     -11.233   9.014  70.150  1.00  0.00    -0.191 A  
HETATM   14  C   UNL     1     -11.605   9.309  71.470  1.00  0.00    -0.452 A  
HETATM   15  C   UNL     1     -12.048  10.582  71.843  1.00  0.00     0.197 A  
BRANCH  13  16
HETATM   16  C   UNL     1     -10.746   7.635  69.759  1.00  0.00    -0.240 C  
BRANCH  16  17
HETATM   17  S   UNL     1      -9.001   7.720  69.290  1.00  0.00    -0.138 S  
HETATM   18  O   UNL     1      -8.400   6.409  69.440  1.00  0.00    -0.120 OA 
HETATM   19  O   UNL     1      -8.391   8.896  69.870  1.00  0.00    -0.115 OA 
BRANCH  17  20
HETATM   20  N   UNL     1      -9.062   8.009  67.610  1.00  0.00    -0.137 N  
HETATM   21  C   UNL     1      -8.022   8.968  67.146  1.00  0.00    -0.102 C  
HETATM   22  C   UNL     1      -7.959   8.755  65.646  1.00  0.00    -0.103 C  
HETATM   23  C   UNL     1      -8.179   7.263  65.489  1.00  0.00    -0.139 C  
HETATM   24  C   UNL     1      -9.037   6.847  66.683  1.00  0.00    -0.151 C  
ENDBRANCH  17  20
ENDBRANCH  16  17
ENDBRANCH  13  16
ENDBRANCH   5   6
ENDBRANCH   4   5
ENDBRANCH   2   4
TORSDOF 6
ENDMDL
MODEL      237
REMARK 921   NORMALIZED FREE ENERGY PREDICTED BY IDOCK:   -3.40 KCAL/MOL
REMARK 922        TOTAL FREE ENERGY PREDICTED BY IDOCK:   -5.18 KCAL/MOL
REMARK 923 INTER-LIGAND FREE ENERGY PREDICTED BY IDOCK:   -4.40 KCAL/MOL
REMARK 924 INTRA-LIGAND FREE ENERGY PREDICTED BY IDOCK:   -0.77 KCAL/MOL
REMARK 927      BINDING AFFINITY PREDICTED BY RF-SCORE:    0.00 PKD
ROOT
HETATM    1  C   UNL     1     -11.329  12.410  66.229  1.00  0.00    -0.340 C  
HETATM    2  N   UNL     1     -10.267  13.394  66.473  1.00  0.00    -0.276 NA 
HETATM    3  C   UNL     1     -10.848  14.738  66.507  1.00  0.00    -0.319 C  
ENDROOT
BRANCH   2   4
HETATM    4  C   UNL     1      -9.572  13.059  67.733  1.00  0.00    -0.208 C  
BRANCH   4   5
HETATM    5  C   UNL     1      -8.039  12.946  67.623  1.00  0.00    -0.167 C  
BRANCH   5   6
HETATM    6  C   UNL     1      -7.602  11.534  67.357  1.00  0.00    -0.135 A  
HETATM    7  C   UNL     1      -6.977  11.077  66.210  1.00  0.00    -0.095 A  
HETATM    8  N   UNL     1      -6.789   9.729  66.331  1.00  0.00    -0.086 NA 
HETATM    9  C   UNL     1      -7.259   9.291  67.547  1.00  0.00    -0.080 A  
HETATM   10  H   UNL     1      -6.362   9.133  65.621  1.00  0.00     0.000 HD 
HETATM   11  C   UNL     1      -7.764  10.401  68.220  1.00  0.00    -0.096 A  
HETATM   12  C   UNL     1      -8.310  10.210  69.510  1.00  0.00    -0.178 A  
HETATM   13  C   UNL     1      -8.351   8.926  70.088  1.00  0.00    -0.142 A  
HETATM   14  C   UNL     1      -7.819   7.843  69.371  1.00  0.00    -0.114 A  
HETATM   15  C   UNL     1      -7.277   8.003  68.092  1.00  0.00    -0.094 A  
BRANCH  13  16
HETATM   16  C   UNL     1      -8.944   8.741  71.469  1.00  0.00    -0.236 C  
BRANCH  16  17
HETATM   17  S   UNL     1     -10.603   8.034  71.325  1.00  0.00    -0.212 S  
HETATM   18  O   UNL     1     -11.078   8.199  69.965  1.00  0.00    -0.233 OA 
HETATM   19  O   UNL     1     -11.410   8.436  72.456  1.00  0.00    -0.375 OA 
BRANCH  17  20
HETATM   20  N   UNL     1     -10.332   6.361  71.519  1.00  0.00    -0.204 N  
HETATM   21  C   UNL     1     -10.387   5.609  70.235  1.00  0.00    -0.266 C  
HETATM   22  C   UNL     1      -9.712   4.288  70.547  1.00  0.00    -0.282 C  
HETATM   23  C   UNL     1      -8.607   4.671  71.511  1.00  0.00    -0.125 C  
HETATM   24  C   UNL     1      -9.113   5.913  72.242  1.00  0.00    -0.141 C  
ENDBRANCH  17  20
ENDBRANCH  16  17
ENDBRANCH  13  16
ENDBRANCH   5   6
ENDBRANCH   4   5
ENDBRANCH   2   4
TORSDOF 6
ENDMDL
MODEL      238
REMARK 921   NORMALIZED FREE ENERGY PREDICTED BY IDOCK:   -3.40 KCAL/MOL
REMARK 922        TOTAL FREE ENERGY PREDICTED BY IDOCK:   -5.18 KCAL/MOL
REMARK 923 INTER-LIGAND FREE ENERGY PREDICTED BY IDOCK:   -5.61 KCAL/MOL
REMARK 924 INTRA-LIGAND FREE ENERGY PREDICTED BY IDOCK:    0.43 KCAL/MOL
REMARK 927      BINDING AFFINITY PREDICTED BY RF-SCORE:    0.00 PKD
ROOT
HETATM    1  C   UNL     1      -6.165  10.384  66.187  1.00  0.00    -0.101 C  
HETATM    2  N   UNL     1      -7.439  10.521  66.904  1.00  0.00    -0.106 NA 
HETATM    3  C   UNL     1      -7.177  10.899  68.294  1.00  0.00    -0.084 C  
ENDROOT
BRANCH   2   4
HETATM    4  C   UNL     1      -8.285  11.513  66.209  1.00  0.00    -0.044 C  
BRANCH   4   5
HETATM    5  C   UNL     1      -9.566  10.944  65.568  1.00  0.00    -0.266 C  
BRANCH   5   6
HETATM    6  C   UNL     1     -10.521  12.032  65.171  1.00  0.00    -0.328 A  
HETATM    7  C   UNL     1     -11.759  11.854  64.581  1.00  0.00    -0.232 A  
HETATM    8  N   UNL     1     -12.297  13.085  64.328  1.00  0.00    -0.550 NA 
HETATM    9  C   UNL     1     -11.445  14.073  64.762  1.00  0.00    -0.369 A  
HETATM   10  H   UNL     1     -13.201  13.247  63.882  1.00  0.00     0.000 HD 
HETATM   11  C   UNL     1     -10.327  13.447  65.307  1.00  0.00    -0.330 A  
HETATM   12  C   UNL     1      -9.294  14.257  65.830  1.00  0.00    -0.063 A  
HETATM   13  C   UNL     1      -9.393  15.662  65.785  1.00  0.00    -0.303 A  
HETATM   14  C   UNL     1     -10.546  16.242  65.235  1.00  0.00    -0.357 A  
HETATM   15  C   UNL     1     -11.581  15.464  64.707  1.00  0.00    -0.286 A  
BRANCH  13  16
HETATM   16  C   UNL     1      -8.274  16.514  66.346  1.00  0.00    -0.329 C  
BRANCH  16  17
HETATM   17  S   UNL     1      -8.967  18.006  67.097  1.00  0.00    -0.261 S  
HETATM   18  O   UNL     1      -9.836  17.630  68.195  1.00  0.00    -0.288 OA 
HETATM   19  O   UNL     1      -9.411  18.917  66.066  1.00  0.00    -0.467 OA 
BRANCH  17  20
HETATM   20  N   UNL     1      -7.609  18.746  67.818  1.00  0.00    -0.228 N  
HETATM   21  C   UNL     1      -7.810  20.197  68.087  1.00  0.00    -0.165 C  
HETATM   22  C   UNL     1      -6.722  20.547  69.083  1.00  0.00    -0.041 C  
HETATM   23  C   UNL     1      -6.620  19.307  69.949  1.00  0.00    -0.155 C  
HETATM   24  C   UNL     1      -7.036  18.143  69.050  1.00  0.00    -0.254 C  
ENDBRANCH  17  20
ENDBRANCH  16  17
ENDBRANCH  13  16
ENDBRANCH   5   6
ENDBRANCH   4   5
ENDBRANCH   2   4
TORSDOF 6
ENDMDL
MODEL      239
REMARK 921   NORMALIZED FREE ENERGY PREDICTED BY IDOCK:   -3.39 KCAL/MOL
REMARK 922        TOTAL FREE ENERGY PREDICTED BY IDOCK:   -5.17 KCAL/MOL
REMARK 923 INTER-LIGAND FREE ENERGY PREDICTED BY IDOCK:   -4.57 KCAL/MOL
REMARK 924 INTRA-LIGAND FREE ENERGY PREDICTED BY IDOCK:   -0.60 KCAL/MOL
REMARK 927      BINDING AFFINITY PREDICTED BY RF-SCORE:    0.00 PKD
ROOT
HETATM    1  C   UNL     1      -9.333   3.698  68.739  1.00  0.00    -0.165 C  
HETATM    2  N   UNL     1      -8.431   3.551  69.887  1.00  0.00    -0.052 NA 
HETATM    3  C   UNL     1      -7.044   3.686  69.437  1.00  0.00    -0.045 C  
ENDROOT
BRANCH   2   4
HETATM    4  C   UNL     1      -8.780   4.555  70.914  1.00  0.00    -0.101 C  
BRANCH   4   5
HETATM    5  C   UNL     1     -10.283   4.662  71.238  1.00  0.00    -0.205 C  
BRANCH   5   6
HETATM    6  C   UNL     1     -10.645   6.021  71.763  1.00  0.00    -0.277 A  
HETATM    7  C   UNL     1     -11.000   6.323  73.066  1.00  0.00    -0.242 A  
HETATM    8  N   UNL     1     -11.305   7.654  73.131  1.00  0.00    -0.596 NA 
HETATM    9  C   UNL     1     -11.137   8.240  71.899  1.00  0.00    -0.292 A  
HETATM   10  H   UNL     1     -11.614   8.141  73.973  1.00  0.00     0.000 HD 
HETATM   11  C   UNL     1     -10.712   7.246  71.021  1.00  0.00    -0.247 A  
HETATM   12  C   UNL     1     -10.464   7.602  69.675  1.00  0.00    -0.235 A  
HETATM   13  C   UNL     1     -10.659   8.927  69.238  1.00  0.00    -0.219 A  
HETATM   14  C   UNL     1     -11.078   9.892  70.165  1.00  0.00    -0.353 A  
HETATM   15  C   UNL     1     -11.334   9.567  71.501  1.00  0.00    -0.456 A  
BRANCH  13  16
HETATM   16  C   UNL     1     -10.393   9.287  67.791  1.00  0.00    -0.237 C  
BRANCH  16  17
HETATM   17  S   UNL     1      -8.695   9.884  67.618  1.00  0.00    -0.121 S  
HETATM   18  O   UNL     1      -7.984   9.675  68.864  1.00  0.00    -0.085 OA 
HETATM   19  O   UNL     1      -8.688  11.169  66.956  1.00  0.00    -0.141 OA 
BRANCH  17  20
HETATM   20  N   UNL     1      -8.007   8.786  66.507  1.00  0.00    -0.102 N  
HETATM   21  C   UNL     1      -8.522   8.961  65.121  1.00  0.00    -0.173 C  
HETATM   22  C   UNL     1      -7.512   8.236  64.253  1.00  0.00    -0.107 C  
HETATM   23  C   UNL     1      -6.189   8.509  64.940  1.00  0.00    -0.060 C  
HETATM   24  C   UNL     1      -6.526   8.691  66.420  1.00  0.00    -0.062 C  
ENDBRANCH  17  20
ENDBRANCH  16  17
ENDBRANCH  13  16
ENDBRANCH   5   6
ENDBRANCH   4   5
ENDBRANCH   2   4
TORSDOF 6
ENDMDL
MODEL      240
REMARK 921   NORMALIZED FREE ENERGY PREDICTED BY IDOCK:   -3.38 KCAL/MOL
REMARK 922        TOTAL FREE ENERGY PREDICTED BY IDOCK:   -5.16 KCAL/MOL
REMARK 923 INTER-LIGAND FREE ENERGY PREDICTED BY IDOCK:   -4.63 KCAL/MOL
REMARK 924 INTRA-LIGAND FREE ENERGY PREDICTED BY IDOCK:   -0.52 KCAL/MOL
REMARK 927      BINDING AFFINITY PREDICTED BY RF-SCORE:    0.00 PKD
ROOT
HETATM    1  C   UNL     1      -6.602   7.256  73.609  1.00  0.00    -0.065 C  
HETATM    2  N   UNL     1      -7.920   7.322  72.967  1.00  0.00    -0.096 NA 
HETATM    3  C   UNL     1      -8.931   7.675  73.967  1.00  0.00    -0.245 C  
ENDROOT
BRANCH   2   4
HETATM    4  C   UNL     1      -7.875   8.298  71.858  1.00  0.00    -0.124 C  
BRANCH   4   5
HETATM    5  C   UNL     1      -7.236   7.776  70.556  1.00  0.00    -0.057 C  
BRANCH   5   6
HETATM    6  C   UNL     1      -8.264   7.530  69.490  1.00  0.00    -0.130 A  
HETATM    7  C   UNL     1      -8.949   6.348  69.276  1.00  0.00    -0.133 A  
HETATM    8  N   UNL     1      -9.755   6.510  68.184  1.00  0.00    -0.125 NA 
HETATM    9  C   UNL     1      -9.630   7.786  67.686  1.00  0.00    -0.146 A  
HETATM   10  H   UNL     1     -10.362   5.788  67.794  1.00  0.00     0.000 HD 
HETATM   11  C   UNL     1      -8.712   8.456  68.490  1.00  0.00    -0.136 A  
HETATM   12  C   UNL     1      -8.408   9.802  68.182  1.00  0.00    -0.110 A  
HETATM   13  C   UNL     1      -9.014  10.437  67.080  1.00  0.00    -0.150 A  
HETATM   14  C   UNL     1      -9.940   9.720  66.308  1.00  0.00    -0.331 A  
HETATM   15  C   UNL     1     -10.256   8.387  66.589  1.00  0.00    -0.335 A  
BRANCH  13  16
HETATM   16  C   UNL     1      -8.673  11.879  66.762  1.00  0.00    -0.193 C  
BRANCH  16  17
HETATM   17  S   UNL     1      -9.478  12.969  67.959  1.00  0.00    -0.219 S  
HETATM   18  O   UNL     1      -8.481  13.819  68.580  1.00  0.00    -0.160 OA 
HETATM   19  O   UNL     1     -10.423  12.217  68.754  1.00  0.00    -0.220 OA 
BRANCH  17  20
HETATM   20  N   UNL     1     -10.416  14.002  66.977  1.00  0.00    -0.273 N  
HETATM   21  C   UNL     1      -9.643  15.155  66.439  1.00  0.00    -0.284 C  
HETATM   22  C   UNL     1     -10.491  15.671  65.293  1.00  0.00    -0.439 C  
HETATM   23  C   UNL     1     -11.084  14.411  64.692  1.00  0.00    -0.363 C  
HETATM   24  C   UNL     1     -11.178  13.413  65.845  1.00  0.00    -0.300 C  
ENDBRANCH  17  20
ENDBRANCH  16  17
ENDBRANCH  13  16
ENDBRANCH   5   6
ENDBRANCH   4   5
ENDBRANCH   2   4
TORSDOF 6
ENDMDL
MODEL      241
REMARK 921   NORMALIZED FREE ENERGY PREDICTED BY IDOCK:   -3.36 KCAL/MOL
REMARK 922        TOTAL FREE ENERGY PREDICTED BY IDOCK:   -5.12 KCAL/MOL
REMARK 923 INTER-LIGAND FREE ENERGY PREDICTED BY IDOCK:   -5.12 KCAL/MOL
REMARK 924 INTRA-LIGAND FREE ENERGY PREDICTED BY IDOCK:   -0.00 KCAL/MOL
REMARK 927      BINDING AFFINITY PREDICTED BY RF-SCORE:    0.00 PKD
ROOT
HETATM    1  C   UNL     1     -12.127  13.805  66.166  1.00  0.00    -0.441 C  
HETATM    2  N   UNL     1     -11.823  12.392  66.419  1.00  0.00    -0.560 NA 
HETATM    3  C   UNL     1     -10.635  12.006  65.655  1.00  0.00    -0.265 C  
ENDROOT
BRANCH   2   4
HETATM    4  C   UNL     1     -11.641  12.184  67.870  1.00  0.00    -0.347 C  
BRANCH   4   5
HETATM    5  C   UNL     1     -11.632  10.710  68.322  1.00  0.00    -0.245 C  
BRANCH   5   6
HETATM    6  C   UNL     1     -10.312  10.319  68.921  1.00  0.00    -0.221 A  
HETATM    7  C   UNL     1     -10.058   9.173  69.653  1.00  0.00    -0.198 A  
HETATM    8  N   UNL     1      -8.755   9.206  70.065  1.00  0.00    -0.159 NA 
HETATM    9  C   UNL     1      -8.138  10.344  69.599  1.00  0.00    -0.103 A  
HETATM   10  H   UNL     1      -8.305   8.490  70.636  1.00  0.00     0.000 HD 
HETATM   11  C   UNL     1      -9.084  11.057  68.867  1.00  0.00    -0.132 A  
HETATM   12  C   UNL     1      -8.691  12.280  68.276  1.00  0.00    -0.178 A  
HETATM   13  C   UNL     1      -7.377  12.763  68.439  1.00  0.00    -0.118 A  
HETATM   14  C   UNL     1      -6.461  12.001  69.177  1.00  0.00    -0.099 A  
HETATM   15  C   UNL     1      -6.824  10.790  69.776  1.00  0.00    -0.151 A  
BRANCH  13  16
HETATM   16  C   UNL     1      -6.976  14.078  67.802  1.00  0.00    -0.177 C  
BRANCH  16  17
HETATM   17  S   UNL     1      -7.363  15.439  68.928  1.00  0.00    -0.162 S  
HETATM   18  O   UNL     1      -6.138  16.124  69.292  1.00  0.00    -0.129 OA 
HETATM   19  O   UNL     1      -8.302  14.996  69.934  1.00  0.00    -0.033 OA 
BRANCH  17  20
HETATM   20  N   UNL     1      -8.224  16.531  67.938  1.00  0.00    -0.166 N  
HETATM   21  C   UNL     1      -8.757  15.899  66.700  1.00  0.00    -0.289 C  
HETATM   22  C   UNL     1      -9.813  16.870  66.210  1.00  0.00    -0.320 C  
HETATM   23  C   UNL     1     -10.432  17.399  67.488  1.00  0.00    -0.354 C  
HETATM   24  C   UNL     1      -9.327  17.324  68.541  1.00  0.00    -0.276 C  
ENDBRANCH  17  20
ENDBRANCH  16  17
ENDBRANCH  13  16
ENDBRANCH   5   6
ENDBRANCH   4   5
ENDBRANCH   2   4
TORSDOF 6
ENDMDL
MODEL      242
REMARK 921   NORMALIZED FREE ENERGY PREDICTED BY IDOCK:   -3.34 KCAL/MOL
REMARK 922        TOTAL FREE ENERGY PREDICTED BY IDOCK:   -5.10 KCAL/MOL
REMARK 923 INTER-LIGAND FREE ENERGY PREDICTED BY IDOCK:   -4.66 KCAL/MOL
REMARK 924 INTRA-LIGAND FREE ENERGY PREDICTED BY IDOCK:   -0.44 KCAL/MOL
REMARK 927      BINDING AFFINITY PREDICTED BY RF-SCORE:    0.00 PKD
ROOT
HETATM    1  C   UNL     1      -7.232   9.626  63.988  1.00  0.00    -0.118 C  
HETATM    2  N   UNL     1      -6.845   8.801  65.139  1.00  0.00    -0.074 NA 
HETATM    3  C   UNL     1      -5.704   7.959  64.772  1.00  0.00    -0.044 C  
ENDROOT
BRANCH   2   4
HETATM    4  C   UNL     1      -6.541   9.678  66.289  1.00  0.00    -0.071 C  
BRANCH   4   5
HETATM    5  C   UNL     1      -6.386   8.953  67.640  1.00  0.00    -0.056 C  
BRANCH   5   6
HETATM    6  C   UNL     1      -7.715   8.690  68.286  1.00  0.00    -0.101 A  
HETATM    7  C   UNL     1      -8.179   7.463  68.725  1.00  0.00    -0.129 A  
HETATM    8  N   UNL     1      -9.448   7.629  69.206  1.00  0.00    -0.158 NA 
HETATM    9  C   UNL     1      -9.821   8.949  69.114  1.00  0.00    -0.180 A  
HETATM   10  H   UNL     1     -10.033   6.882  69.579  1.00  0.00     0.000 HD 
HETATM   11  C   UNL     1      -8.752   9.644  68.553  1.00  0.00    -0.120 A  
HETATM   12  C   UNL     1      -8.889  11.037  68.353  1.00  0.00    -0.151 A  
HETATM   13  C   UNL     1     -10.084  11.696  68.703  1.00  0.00    -0.206 A  
HETATM   14  C   UNL     1     -11.126  10.951  69.274  1.00  0.00    -0.305 A  
HETATM   15  C   UNL     1     -11.019   9.571  69.479  1.00  0.00    -0.217 A  
BRANCH  13  16
HETATM   16  C   UNL     1     -10.214  13.188  68.478  1.00  0.00    -0.215 C  
BRANCH  16  17
HETATM   17  S   UNL     1     -11.074  13.491  66.916  1.00  0.00    -0.303 S  
HETATM   18  O   UNL     1     -12.426  12.973  67.005  1.00  0.00    -0.270 OA 
HETATM   19  O   UNL     1     -10.213  13.155  65.804  1.00  0.00    -0.282 OA 
BRANCH  17  20
HETATM   20  N   UNL     1     -11.234  15.189  66.882  1.00  0.00    -0.321 N  
HETATM   21  C   UNL     1     -10.899  15.833  68.182  1.00  0.00    -0.307 C  
HETATM   22  C   UNL     1     -10.679  17.291  67.832  1.00  0.00    -0.351 C  
HETATM   23  C   UNL     1     -10.017  17.235  66.469  1.00  0.00    -0.310 C  
HETATM   24  C   UNL     1     -10.530  15.952  65.817  1.00  0.00    -0.370 C  
ENDBRANCH  17  20
ENDBRANCH  16  17
ENDBRANCH  13  16
ENDBRANCH   5   6
ENDBRANCH   4   5
ENDBRANCH   2   4
TORSDOF 6
ENDMDL
MODEL      243
REMARK 921   NORMALIZED FREE ENERGY PREDICTED BY IDOCK:   -3.33 KCAL/MOL
REMARK 922        TOTAL FREE ENERGY PREDICTED BY IDOCK:   -5.09 KCAL/MOL
REMARK 923 INTER-LIGAND FREE ENERGY PREDICTED BY IDOCK:   -4.50 KCAL/MOL
REMARK 924 INTRA-LIGAND FREE ENERGY PREDICTED BY IDOCK:   -0.59 KCAL/MOL
REMARK 927      BINDING AFFINITY PREDICTED BY RF-SCORE:    0.00 PKD
ROOT
HETATM    1  C   UNL     1      -7.831  13.041  68.328  1.00  0.00    -0.143 C  
HETATM    2  N   UNL     1      -8.180  11.628  68.137  1.00  0.00    -0.144 NA 
HETATM    3  C   UNL     1      -7.303  10.794  68.963  1.00  0.00    -0.109 C  
ENDROOT
BRANCH   2   4
HETATM    4  C   UNL     1      -9.607  11.428  68.467  1.00  0.00    -0.189 C  
BRANCH   4   5
HETATM    5  C   UNL     1     -10.564  11.440  67.259  1.00  0.00    -0.264 C  
BRANCH   5   6
HETATM    6  C   UNL     1      -9.918  10.866  66.031  1.00  0.00    -0.290 A  
HETATM    7  C   UNL     1      -9.804  11.492  64.803  1.00  0.00    -0.249 A  
HETATM    8  N   UNL     1      -9.202  10.626  63.933  1.00  0.00    -0.224 NA 
HETATM    9  C   UNL     1      -8.897   9.447  64.572  1.00  0.00    -0.198 A  
HETATM   10  H   UNL     1      -9.008  10.826  62.952  1.00  0.00     0.000 HD 
HETATM   11  C   UNL     1      -9.321   9.569  65.892  1.00  0.00    -0.285 A  
HETATM   12  C   UNL     1      -9.117   8.476  66.766  1.00  0.00    -0.186 A  
HETATM   13  C   UNL     1      -8.510   7.292  66.301  1.00  0.00    -0.135 A  
HETATM   14  C   UNL     1      -8.092   7.225  64.964  1.00  0.00    -0.120 A  
HETATM   15  C   UNL     1      -8.286   8.290  64.077  1.00  0.00    -0.098 A  
BRANCH  13  16
HETATM   16  C   UNL     1      -8.304   6.130  67.250  1.00  0.00    -0.105 C  
BRANCH  16  17
HETATM   17  S   UNL     1      -9.670   4.958  67.078  1.00  0.00    -0.195 S  
HETATM   18  O   UNL     1      -9.137   3.613  66.974  1.00  0.00    -0.140 OA 
HETATM   19  O   UNL     1     -10.633   5.459  66.123  1.00  0.00    -0.222 OA 
BRANCH  17  20
HETATM   20  N   UNL     1     -10.441   5.032  68.597  1.00  0.00    -0.034 N  
HETATM   21  C   UNL     1      -9.581   4.547  69.712  1.00  0.00    -0.199 C  
HETATM   22  C   UNL     1     -10.249   5.086  70.962  1.00  0.00    -0.283 C  
HETATM   23  C   UNL     1     -10.768   6.444  70.530  1.00  0.00    -0.311 C  
HETATM   24  C   UNL     1     -11.043   6.320  69.032  1.00  0.00    -0.378 C  
ENDBRANCH  17  20
ENDBRANCH  16  17
ENDBRANCH  13  16
ENDBRANCH   5   6
ENDBRANCH   4   5
ENDBRANCH   2   4
TORSDOF 6
ENDMDL
MODEL      244
REMARK 921   NORMALIZED FREE ENERGY PREDICTED BY IDOCK:   -3.32 KCAL/MOL
REMARK 922        TOTAL FREE ENERGY PREDICTED BY IDOCK:   -5.07 KCAL/MOL
REMARK 923 INTER-LIGAND FREE ENERGY PREDICTED BY IDOCK:   -4.50 KCAL/MOL
REMARK 924 INTRA-LIGAND FREE ENERGY PREDICTED BY IDOCK:   -0.56 KCAL/MOL
REMARK 927      BINDING AFFINITY PREDICTED BY RF-SCORE:    0.00 PKD
ROOT
HETATM    1  C   UNL     1     -12.047  15.583  69.599  1.00  0.00    -0.328 C  
HETATM    2  N   UNL     1     -11.182  14.612  68.920  1.00  0.00    -0.253 NA 
HETATM    3  C   UNL     1     -11.513  13.261  69.380  1.00  0.00    -0.263 C  
ENDROOT
BRANCH   2   4
HETATM    4  C   UNL     1     -11.343  14.754  67.457  1.00  0.00    -0.344 C  
BRANCH   4   5
HETATM    5  C   UNL     1     -10.620  15.966  66.837  1.00  0.00    -0.309 C  
BRANCH   5   6
HETATM    6  C   UNL     1      -9.301  16.229  67.503  1.00  0.00    -0.217 A  
HETATM    7  C   UNL     1      -8.899  17.425  68.070  1.00  0.00    -0.252 A  
HETATM    8  N   UNL     1      -7.618  17.276  68.525  1.00  0.00    -0.241 NA 
HETATM    9  C   UNL     1      -7.176  15.996  68.289  1.00  0.00    -0.131 A  
HETATM   10  H   UNL     1      -7.070  18.010  68.975  1.00  0.00     0.000 HD 
HETATM   11  C   UNL     1      -8.212  15.309  67.661  1.00  0.00    -0.175 A  
HETATM   12  C   UNL     1      -8.002  13.955  67.311  1.00  0.00    -0.147 A  
HETATM   13  C   UNL     1      -6.770  13.328  67.582  1.00  0.00    -0.171 A  
HETATM   14  C   UNL     1      -5.763  14.062  68.227  1.00  0.00    -0.116 A  
HETATM   15  C   UNL     1      -5.942  15.404  68.580  1.00  0.00    -0.094 A  
BRANCH  13  16
HETATM   16  C   UNL     1      -6.563  11.878  67.196  1.00  0.00    -0.148 C  
BRANCH  16  17
HETATM   17  S   UNL     1      -7.007  10.812  68.587  1.00  0.00    -0.076 S  
HETATM   18  O   UNL     1      -6.647  11.469  69.829  1.00  0.00    -0.130 OA 
HETATM   19  O   UNL     1      -6.603   9.450  68.314  1.00  0.00    -0.057 OA 
BRANCH  17  20
HETATM   20  N   UNL     1      -8.712  10.807  68.546  1.00  0.00    -0.142 N  
HETATM   21  C   UNL     1      -9.263  10.282  67.266  1.00  0.00    -0.141 C  
HETATM   22  C   UNL     1     -10.709   9.956  67.587  1.00  0.00    -0.339 C  
HETATM   23  C   UNL     1     -10.650   9.442  69.012  1.00  0.00    -0.233 C  
HETATM   24  C   UNL     1      -9.452  10.141  69.651  1.00  0.00    -0.200 C  
ENDBRANCH  17  20
ENDBRANCH  16  17
ENDBRANCH  13  16
ENDBRANCH   5   6
ENDBRANCH   4   5
ENDBRANCH   2   4
TORSDOF 6
ENDMDL
MODEL      245
REMARK 921   NORMALIZED FREE ENERGY PREDICTED BY IDOCK:   -3.30 KCAL/MOL
REMARK 922        TOTAL FREE ENERGY PREDICTED BY IDOCK:   -5.05 KCAL/MOL
REMARK 923 INTER-LIGAND FREE ENERGY PREDICTED BY IDOCK:   -4.68 KCAL/MOL
REMARK 924 INTRA-LIGAND FREE ENERGY PREDICTED BY IDOCK:   -0.37 KCAL/MOL
REMARK 927      BINDING AFFINITY PREDICTED BY RF-SCORE:    0.00 PKD
ROOT
HETATM    1  C   UNL     1      -6.944  15.683  67.382  1.00  0.00    -0.200 C  
HETATM    2  N   UNL     1      -7.476  14.788  68.416  1.00  0.00    -0.107 NA 
HETATM    3  C   UNL     1      -6.857  15.109  69.704  1.00  0.00    -0.188 C  
ENDROOT
BRANCH   2   4
HETATM    4  C   UNL     1      -8.948  14.916  68.461  1.00  0.00    -0.179 C  
BRANCH   4   5
HETATM    5  C   UNL     1      -9.601  15.407  67.155  1.00  0.00    -0.218 C  
BRANCH   5   6
HETATM    6  C   UNL     1     -10.440  14.339  66.515  1.00  0.00    -0.287 A  
HETATM    7  C   UNL     1     -11.725  14.495  66.028  1.00  0.00    -0.345 A  
HETATM    8  N   UNL     1     -12.162  13.283  65.572  1.00  0.00    -0.431 NA 
HETATM    9  C   UNL     1     -11.180  12.334  65.728  1.00  0.00    -0.337 A  
HETATM   10  H   UNL     1     -13.085  13.108  65.173  1.00  0.00     0.000 HD 
HETATM   11  C   UNL     1     -10.081  12.966  66.306  1.00  0.00    -0.281 A  
HETATM   12  C   UNL     1      -8.926  12.194  66.570  1.00  0.00    -0.179 A  
HETATM   13  C   UNL     1      -8.900  10.819  66.267  1.00  0.00    -0.182 A  
HETATM   14  C   UNL     1     -10.030  10.233  65.676  1.00  0.00    -0.347 A  
HETATM   15  C   UNL     1     -11.187  10.972  65.408  1.00  0.00     0.113 A  
BRANCH  13  16
HETATM   16  C   UNL     1      -7.655  10.007  66.561  1.00  0.00    -0.106 C  
BRANCH  16  17
HETATM   17  S   UNL     1      -8.088   8.591  67.600  1.00  0.00    -0.107 S  
HETATM   18  O   UNL     1      -6.972   8.278  68.471  1.00  0.00    -0.066 OA 
HETATM   19  O   UNL     1      -8.727   7.570  66.801  1.00  0.00    -0.124 OA 
BRANCH  17  20
HETATM   20  N   UNL     1      -9.307   9.213  68.619  1.00  0.00    -0.136 N  
HETATM   21  C   UNL     1     -10.361   8.214  68.944  1.00  0.00    -0.211 C  
HETATM   22  C   UNL     1     -11.067   8.794  70.154  1.00  0.00    -0.214 C  
HETATM   23  C   UNL     1      -9.949   9.455  70.936  1.00  0.00    -0.353 C  
HETATM   24  C   UNL     1      -8.908   9.865  69.895  1.00  0.00    -0.195 C  
ENDBRANCH  17  20
ENDBRANCH  16  17
ENDBRANCH  13  16
ENDBRANCH   5   6
ENDBRANCH   4   5
ENDBRANCH   2   4
TORSDOF 6
ENDMDL
MODEL      246
REMARK 921   NORMALIZED FREE ENERGY PREDICTED BY IDOCK:   -3.30 KCAL/MOL
REMARK 922        TOTAL FREE ENERGY PREDICTED BY IDOCK:   -5.05 KCAL/MOL
REMARK 923 INTER-LIGAND FREE ENERGY PREDICTED BY IDOCK:   -4.32 KCAL/MOL
REMARK 924 INTRA-LIGAND FREE ENERGY PREDICTED BY IDOCK:   -0.73 KCAL/MOL
REMARK 927      BINDING AFFINITY PREDICTED BY RF-SCORE:    0.00 PKD
ROOT
HETATM    1  C   UNL     1     -12.028   6.839  70.642  1.00  0.00    -0.362 C  
HETATM    2  N   UNL     1     -10.772   6.914  71.398  1.00  0.00    -0.220 NA 
HETATM    3  C   UNL     1     -10.994   7.660  72.639  1.00  0.00    -0.351 C  
ENDROOT
BRANCH   2   4
HETATM    4  C   UNL     1     -10.275   5.546  71.656  1.00  0.00    -0.209 C  
BRANCH   4   5
HETATM    5  C   UNL     1      -8.900   5.224  71.039  1.00  0.00    -0.148 C  
BRANCH   5   6
HETATM    6  C   UNL     1      -8.997   4.976  69.561  1.00  0.00    -0.129 A  
HETATM    7  C   UNL     1      -9.227   3.754  68.953  1.00  0.00    -0.156 A  
HETATM    8  N   UNL     1      -9.193   3.935  67.599  1.00  0.00    -0.153 NA 
HETATM    9  C   UNL     1      -8.968   5.258  67.301  1.00  0.00    -0.111 A  
HETATM   10  H   UNL     1      -9.317   3.194  66.908  1.00  0.00     0.000 HD 
HETATM   11  C   UNL     1      -8.853   5.941  68.510  1.00  0.00    -0.111 A  
HETATM   12  C   UNL     1      -8.617   7.334  68.473  1.00  0.00    -0.124 A  
HETATM   13  C   UNL     1      -8.490   8.006  67.241  1.00  0.00    -0.125 A  
HETATM   14  C   UNL     1      -8.625   7.273  66.052  1.00  0.00    -0.160 A  
HETATM   15  C   UNL     1      -8.854   5.893  66.060  1.00  0.00    -0.153 A  
BRANCH  13  16
HETATM   16  C   UNL     1      -8.233   9.498  67.221  1.00  0.00    -0.114 C  
BRANCH  16  17
HETATM   17  S   UNL     1      -9.725  10.376  67.745  1.00  0.00    -0.162 S  
HETATM   18  O   UNL     1      -9.657  10.626  69.172  1.00  0.00    -0.201 OA 
HETATM   19  O   UNL     1     -10.892   9.770  67.143  1.00  0.00    -0.235 OA 
BRANCH  17  20
HETATM   20  N   UNL     1      -9.560  11.903  67.002  1.00  0.00    -0.187 N  
HETATM   21  C   UNL     1     -10.690  12.824  67.305  1.00  0.00    -0.237 C  
HETATM   22  C   UNL     1     -10.162  14.198  66.943  1.00  0.00    -0.267 C  
HETATM   23  C   UNL     1      -8.701  14.135  67.346  1.00  0.00    -0.217 C  
HETATM   24  C   UNL     1      -8.301  12.666  67.209  1.00  0.00    -0.189 C  
ENDBRANCH  17  20
ENDBRANCH  16  17
ENDBRANCH  13  16
ENDBRANCH   5   6
ENDBRANCH   4   5
ENDBRANCH   2   4
TORSDOF 6
ENDMDL
MODEL      247
REMARK 921   NORMALIZED FREE ENERGY PREDICTED BY IDOCK:   -3.30 KCAL/MOL
REMARK 922        TOTAL FREE ENERGY PREDICTED BY IDOCK:   -5.04 KCAL/MOL
REMARK 923 INTER-LIGAND FREE ENERGY PREDICTED BY IDOCK:   -4.42 KCAL/MOL
REMARK 924 INTRA-LIGAND FREE ENERGY PREDICTED BY IDOCK:   -0.62 KCAL/MOL
REMARK 927      BINDING AFFINITY PREDICTED BY RF-SCORE:    0.00 PKD
ROOT
HETATM    1  C   UNL     1     -10.955  15.788  69.299  1.00  0.00    -0.281 C  
HETATM    2  N   UNL     1     -11.295  14.623  68.474  1.00  0.00    -0.270 NA 
HETATM    3  C   UNL     1     -10.471  14.626  67.264  1.00  0.00    -0.266 C  
ENDROOT
BRANCH   2   4
HETATM    4  C   UNL     1     -11.109  13.391  69.269  1.00  0.00    -0.164 C  
BRANCH   4   5
HETATM    5  C   UNL     1     -12.235  12.348  69.129  1.00  0.00    -0.058 C  
BRANCH   5   6
HETATM    6  C   UNL     1     -11.972  11.129  69.965  1.00  0.00    -0.447 A  
HETATM    7  C   UNL     1     -12.510  10.865  71.212  1.00  0.00    -0.388 A  
HETATM    8  N   UNL     1     -11.988   9.685  71.664  1.00  0.00    -0.392 NA 
HETATM    9  C   UNL     1     -11.133   9.153  70.727  1.00  0.00    -0.275 A  
HETATM   10  H   UNL     1     -12.203   9.259  72.566  1.00  0.00     0.000 HD 
HETATM   11  C   UNL     1     -11.110  10.029  69.644  1.00  0.00    -0.300 A  
HETATM   12  C   UNL     1     -10.296   9.701  68.535  1.00  0.00    -0.231 A  
HETATM   13  C   UNL     1      -9.520   8.525  68.540  1.00  0.00    -0.146 A  
HETATM   14  C   UNL     1      -9.588   7.673  69.651  1.00  0.00    -0.160 A  
HETATM   15  C   UNL     1     -10.382   7.974  70.763  1.00  0.00    -0.214 A  
BRANCH  13  16
HETATM   16  C   UNL     1      -8.650   8.194  67.345  1.00  0.00    -0.125 C  
BRANCH  16  17
HETATM   17  S   UNL     1      -7.223   9.305  67.309  1.00  0.00    -0.087 S  
HETATM   18  O   UNL     1      -7.548  10.477  66.519  1.00  0.00    -0.115 OA 
HETATM   19  O   UNL     1      -6.014   8.549  67.067  1.00  0.00    -0.051 OA 
BRANCH  17  20
HETATM   20  N   UNL     1      -7.114   9.852  68.921  1.00  0.00    -0.069 N  
HETATM   21  C   UNL     1      -5.998   9.220  69.677  1.00  0.00    -0.036 C  
HETATM   22  C   UNL     1      -5.802  10.123  70.879  1.00  0.00    -0.083 C  
HETATM   23  C   UNL     1      -6.065  11.511  70.330  1.00  0.00    -0.140 C  
HETATM   24  C   UNL     1      -7.048  11.316  69.176  1.00  0.00    -0.122 C  
ENDBRANCH  17  20
ENDBRANCH  16  17
ENDBRANCH  13  16
ENDBRANCH   5   6
ENDBRANCH   4   5
ENDBRANCH   2   4
TORSDOF 6
ENDMDL
MODEL      248
REMARK 921   NORMALIZED FREE ENERGY PREDICTED BY IDOCK:   -3.28 KCAL/MOL
REMARK 922        TOTAL FREE ENERGY PREDICTED BY IDOCK:   -5.01 KCAL/MOL
REMARK 923 INTER-LIGAND FREE ENERGY PREDICTED BY IDOCK:   -4.36 KCAL/MOL
REMARK 924 INTRA-LIGAND FREE ENERGY PREDICTED BY IDOCK:   -0.66 KCAL/MOL
REMARK 927      BINDING AFFINITY PREDICTED BY RF-SCORE:    0.00 PKD
ROOT
HETATM    1  C   UNL     1      -5.783   7.482  72.480  1.00  0.00    -0.036 C  
HETATM    2  N   UNL     1      -6.623   7.662  71.290  1.00  0.00    -0.041 NA 
HETATM    3  C   UNL     1      -7.593   8.731  71.536  1.00  0.00    -0.096 C  
ENDROOT
BRANCH   2   4
HETATM    4  C   UNL     1      -5.763   7.951  70.124  1.00  0.00    -0.023 C  
BRANCH   4   5
HETATM    5  C   UNL     1      -5.735   6.851  69.045  1.00  0.00    -0.018 C  
BRANCH   5   6
HETATM    6  C   UNL     1      -7.106   6.304  68.772  1.00  0.00    -0.082 A  
HETATM    7  C   UNL     1      -7.530   5.010  69.017  1.00  0.00    -0.065 A  
HETATM    8  N   UNL     1      -8.821   4.892  68.586  1.00  0.00    -0.097 NA 
HETATM    9  C   UNL     1      -9.266   6.091  68.082  1.00  0.00    -0.116 A  
HETATM   10  H   UNL     1      -9.376   4.036  68.633  1.00  0.00     0.000 HD 
HETATM   11  C   UNL     1      -8.218   7.001  68.195  1.00  0.00    -0.120 A  
HETATM   12  C   UNL     1      -8.427   8.324  67.740  1.00  0.00    -0.131 A  
HETATM   13  C   UNL     1      -9.662   8.699  67.176  1.00  0.00    -0.248 A  
HETATM   14  C   UNL     1     -10.688   7.746  67.095  1.00  0.00    -0.337 A  
HETATM   15  C   UNL     1     -10.507   6.430  67.534  1.00  0.00    -0.290 A  
BRANCH  13  16
HETATM   16  C   UNL     1      -9.866  10.119  66.690  1.00  0.00    -0.200 C  
BRANCH  16  17
HETATM   17  S   UNL     1     -10.719  11.078  67.965  1.00  0.00    -0.237 S  
HETATM   18  O   UNL     1      -9.922  11.082  69.176  1.00  0.00    -0.195 OA 
HETATM   19  O   UNL     1     -12.122  10.728  67.991  1.00  0.00    -0.474 OA 
BRANCH  17  20
HETATM   20  N   UNL     1     -10.651  12.673  67.364  1.00  0.00    -0.223 N  
HETATM   21  C   UNL     1     -11.868  13.060  66.598  1.00  0.00    -0.393 C  
HETATM   22  C   UNL     1     -11.807  14.574  66.540  1.00  0.00    -0.367 C  
HETATM   23  C   UNL     1     -11.229  14.960  67.887  1.00  0.00    -0.324 C  
HETATM   24  C   UNL     1     -10.353  13.781  68.310  1.00  0.00    -0.247 C  
ENDBRANCH  17  20
ENDBRANCH  16  17
ENDBRANCH  13  16
ENDBRANCH   5   6
ENDBRANCH   4   5
ENDBRANCH   2   4
TORSDOF 6
ENDMDL
MODEL      249
REMARK 921   NORMALIZED FREE ENERGY PREDICTED BY IDOCK:   -3.21 KCAL/MOL
REMARK 922        TOTAL FREE ENERGY PREDICTED BY IDOCK:   -4.93 KCAL/MOL
REMARK 923 INTER-LIGAND FREE ENERGY PREDICTED BY IDOCK:   -4.47 KCAL/MOL
REMARK 924 INTRA-LIGAND FREE ENERGY PREDICTED BY IDOCK:   -0.46 KCAL/MOL
REMARK 927      BINDING AFFINITY PREDICTED BY RF-SCORE:    0.00 PKD
ROOT
HETATM    1  C   UNL     1      -8.686   6.227  72.507  1.00  0.00    -0.120 C  
HETATM    2  N   UNL     1      -9.918   5.540  72.911  1.00  0.00    -0.166 NA 
HETATM    3  C   UNL     1     -10.391   6.096  74.181  1.00  0.00    -0.294 C  
ENDROOT
BRANCH   2   4
HETATM    4  C   UNL     1     -10.926   5.674  71.838  1.00  0.00    -0.235 C  
BRANCH   4   5
HETATM    5  C   UNL     1     -11.863   6.890  71.971  1.00  0.00    -0.345 C  
BRANCH   5   6
HETATM    6  C   UNL     1     -11.376   8.059  71.163  1.00  0.00    -0.292 A  
HETATM    7  C   UNL     1     -11.371   9.382  71.565  1.00  0.00    -0.394 A  
HETATM    8  N   UNL     1     -10.901  10.144  70.533  1.00  0.00    -0.355 NA 
HETATM    9  C   UNL     1     -10.573   9.345  69.463  1.00  0.00    -0.222 A  
HETATM   10  H   UNL     1     -10.806  11.160  70.553  1.00  0.00     0.000 HD 
HETATM   11  C   UNL     1     -10.847   8.029  69.830  1.00  0.00    -0.217 A  
HETATM   12  C   UNL     1     -10.591   7.005  68.890  1.00  0.00    -0.233 A  
HETATM   13  C   UNL     1     -10.084   7.315  67.613  1.00  0.00    -0.232 A  
HETATM   14  C   UNL     1      -9.815   8.655  67.298  1.00  0.00    -0.256 A  
HETATM   15  C   UNL     1     -10.063   9.689  68.207  1.00  0.00    -0.203 A  
BRANCH  13  16
HETATM   16  C   UNL     1      -9.819   6.204  66.618  1.00  0.00    -0.159 C  
BRANCH  16  17
HETATM   17  S   UNL     1      -8.036   6.003  66.396  1.00  0.00    -0.107 S  
HETATM   18  O   UNL     1      -7.371   6.180  67.672  1.00  0.00    -0.077 OA 
HETATM   19  O   UNL     1      -7.601   6.718  65.217  1.00  0.00    -0.081 OA 
BRANCH  17  20
HETATM   20  N   UNL     1      -7.875   4.347  66.018  1.00  0.00    -0.094 N  
HETATM   21  C   UNL     1      -7.908   3.469  67.220  1.00  0.00    -0.079 C  
HETATM   22  C   UNL     1      -8.189   2.086  66.666  1.00  0.00    -0.083 C  
HETATM   23  C   UNL     1      -9.137   2.350  65.513  1.00  0.00    -0.102 C  
HETATM   24  C   UNL     1      -8.791   3.751  65.010  1.00  0.00    -0.122 C  
ENDBRANCH  17  20
ENDBRANCH  16  17
ENDBRANCH  13  16
ENDBRANCH   5   6
ENDBRANCH   4   5
ENDBRANCH   2   4
TORSDOF 6
ENDMDL
MODEL      250
REMARK 921   NORMALIZED FREE ENERGY PREDICTED BY IDOCK:   -3.12 KCAL/MOL
REMARK 922        TOTAL FREE ENERGY PREDICTED BY IDOCK:   -4.81 KCAL/MOL
REMARK 923 INTER-LIGAND FREE ENERGY PREDICTED BY IDOCK:   -4.33 KCAL/MOL
REMARK 924 INTRA-LIGAND FREE ENERGY PREDICTED BY IDOCK:   -0.48 KCAL/MOL
REMARK 927      BINDING AFFINITY PREDICTED BY RF-SCORE:    0.00 PKD
ROOT
HETATM    1  C   UNL     1     -11.917  14.529  67.736  1.00  0.00    -0.310 C  
HETATM    2  N   UNL     1     -11.635  13.366  66.888  1.00  0.00    -0.346 NA 
HETATM    3  C   UNL     1     -12.234  13.570  65.567  1.00  0.00    -0.451 C  
ENDROOT
BRANCH   2   4
HETATM    4  C   UNL     1     -10.173  13.162  66.807  1.00  0.00    -0.252 C  
BRANCH   4   5
HETATM    5  C   UNL     1      -9.475  12.909  68.158  1.00  0.00    -0.218 C  
BRANCH   5   6
HETATM    6  C   UNL     1      -8.191  12.149  67.987  1.00  0.00    -0.158 A  
HETATM    7  C   UNL     1      -7.083  12.572  67.275  1.00  0.00    -0.112 A  
HETATM    8  N   UNL     1      -6.143  11.580  67.314  1.00  0.00    -0.086 NA 
HETATM    9  C   UNL     1      -6.602  10.519  68.058  1.00  0.00    -0.060 A  
HETATM   10  H   UNL     1      -5.231  11.622  66.857  1.00  0.00     0.000 HD 
HETATM   11  C   UNL     1      -7.879  10.849  68.505  1.00  0.00    -0.126 A  
HETATM   12  C   UNL     1      -8.573   9.910  69.303  1.00  0.00    -0.169 A  
HETATM   13  C   UNL     1      -7.986   8.669  69.621  1.00  0.00    -0.096 A  
HETATM   14  C   UNL     1      -6.693   8.391  69.154  1.00  0.00    -0.047 A  
HETATM   15  C   UNL     1      -5.986   9.300  68.360  1.00  0.00    -0.045 A  
BRANCH  13  16
HETATM   16  C   UNL     1      -8.747   7.674  70.473  1.00  0.00    -0.138 C  
BRANCH  16  17
HETATM   17  S   UNL     1      -9.602   6.492  69.403  1.00  0.00    -0.143 S  
HETATM   18  O   UNL     1      -8.629   5.609  68.790  1.00  0.00    -0.104 OA 
HETATM   19  O   UNL     1     -10.600   7.175  68.611  1.00  0.00    -0.201 OA 
BRANCH  17  20
HETATM   20  N   UNL     1     -10.470   5.524  70.508  1.00  0.00    -0.269 N  
HETATM   21  C   UNL     1      -9.590   4.661  71.344  1.00  0.00    -0.166 C  
HETATM   22  C   UNL     1     -10.471   4.239  72.503  1.00  0.00    -0.222 C  
HETATM   23  C   UNL     1     -11.324   5.465  72.767  1.00  0.00    -0.358 C  
HETATM   24  C   UNL     1     -11.443   6.179  71.421  1.00  0.00    -0.254 C  
ENDBRANCH  17  20
ENDBRANCH  16  17
ENDBRANCH  13  16
ENDBRANCH   5   6
ENDBRANCH   4   5
ENDBRANCH   2   4
TORSDOF 6
ENDMDL
MODEL      251
REMARK 921   NORMALIZED FREE ENERGY PREDICTED BY IDOCK:   -3.11 KCAL/MOL
REMARK 922        TOTAL FREE ENERGY PREDICTED BY IDOCK:   -4.79 KCAL/MOL
REMARK 923 INTER-LIGAND FREE ENERGY PREDICTED BY IDOCK:   -5.34 KCAL/MOL
REMARK 924 INTRA-LIGAND FREE ENERGY PREDICTED BY IDOCK:    0.55 KCAL/MOL
REMARK 927      BINDING AFFINITY PREDICTED BY RF-SCORE:    0.00 PKD
ROOT
HETATM    1  C   UNL     1      -5.886  10.182  65.545  1.00  0.00    -0.094 C  
HETATM    2  N   UNL     1      -7.073   9.465  66.024  1.00  0.00    -0.090 NA 
HETATM    3  C   UNL     1      -6.887   9.099  67.430  1.00  0.00    -0.077 C  
ENDROOT
BRANCH   2   4
HETATM    4  C   UNL     1      -8.268  10.312  65.826  1.00  0.00    -0.147 C  
BRANCH   4   5
HETATM    5  C   UNL     1      -9.006  10.097  64.490  1.00  0.00    -0.253 C  
BRANCH   5   6
HETATM    6  C   UNL     1      -9.892  11.260  64.149  1.00  0.00    -0.323 A  
HETATM    7  C   UNL     1     -10.523  11.476  62.937  1.00  0.00    -0.050 A  
HETATM    8  N   UNL     1     -11.194  12.665  63.007  1.00  0.00    -0.655 NA 
HETATM    9  C   UNL     1     -11.035  13.228  64.252  1.00  0.00    -0.395 A  
HETATM   10  H   UNL     1     -11.734  13.076  62.245  1.00  0.00     0.000 HD 
HETATM   11  C   UNL     1     -10.234  12.366  64.997  1.00  0.00    -0.306 A  
HETATM   12  C   UNL     1      -9.922  12.724  66.329  1.00  0.00    -0.269 A  
HETATM   13  C   UNL     1     -10.403  13.930  66.876  1.00  0.00    -0.266 A  
HETATM   14  C   UNL     1     -11.214  14.757  66.087  1.00  0.00    -0.337 A  
HETATM   15  C   UNL     1     -11.534  14.429  64.765  1.00  0.00    -0.402 A  
BRANCH  13  16
HETATM   16  C   UNL     1     -10.054  14.299  68.304  1.00  0.00    -0.238 C  
BRANCH  16  17
HETATM   17  S   UNL     1     -11.524  14.138  69.346  1.00  0.00    -0.300 S  
HETATM   18  O   UNL     1     -12.705  14.097  68.506  1.00  0.00     0.289 OA 
HETATM   19  O   UNL     1     -11.433  15.043  70.470  1.00  0.00    -0.264 OA 
BRANCH  17  20
HETATM   20  N   UNL     1     -11.369  12.569  69.999  1.00  0.00    -0.001 N  
HETATM   21  C   UNL     1     -12.469  12.217  70.938  1.00  0.00    -0.276 C  
HETATM   22  C   UNL     1     -12.396  10.707  71.052  1.00  0.00    -0.507 C  
HETATM   23  C   UNL     1     -12.003  10.264  69.656  1.00  0.00    -0.130 C  
HETATM   24  C   UNL     1     -11.197  11.422  69.070  1.00  0.00    -0.256 C  
ENDBRANCH  17  20
ENDBRANCH  16  17
ENDBRANCH  13  16
ENDBRANCH   5   6
ENDBRANCH   4   5
ENDBRANCH   2   4
TORSDOF 6
ENDMDL
MODEL      252
REMARK 921   NORMALIZED FREE ENERGY PREDICTED BY IDOCK:   -3.11 KCAL/MOL
REMARK 922        TOTAL FREE ENERGY PREDICTED BY IDOCK:   -4.79 KCAL/MOL
REMARK 923 INTER-LIGAND FREE ENERGY PREDICTED BY IDOCK:   -4.27 KCAL/MOL
REMARK 924 INTRA-LIGAND FREE ENERGY PREDICTED BY IDOCK:   -0.52 KCAL/MOL
REMARK 927      BINDING AFFINITY PREDICTED BY RF-SCORE:    0.00 PKD
ROOT
HETATM    1  C   UNL     1     -12.394  14.803  69.975  1.00  0.00    -0.316 C  
HETATM    2  N   UNL     1     -11.683  13.607  69.509  1.00  0.00    -0.303 NA 
HETATM    3  C   UNL     1     -12.087  12.455  70.318  1.00  0.00    -0.297 C  
ENDROOT
BRANCH   2   4
HETATM    4  C   UNL     1     -11.963  13.401  68.072  1.00  0.00    -0.322 C  
BRANCH   4   5
HETATM    5  C   UNL     1     -10.911  13.989  67.112  1.00  0.00    -0.303 C  
BRANCH   5   6
HETATM    6  C   UNL     1      -9.533  13.958  67.708  1.00  0.00    -0.214 A  
HETATM    7  C   UNL     1      -8.720  15.053  67.938  1.00  0.00    -0.155 A  
HETATM    8  N   UNL     1      -7.530  14.607  68.441  1.00  0.00    -0.109 NA 
HETATM    9  C   UNL     1      -7.551  13.238  68.569  1.00  0.00    -0.128 A  
HETATM   10  H   UNL     1      -6.740  15.204  68.686  1.00  0.00     0.000 HD 
HETATM   11  C   UNL     1      -8.799  12.800  68.129  1.00  0.00    -0.194 A  
HETATM   12  C   UNL     1      -9.072  11.414  68.163  1.00  0.00    -0.174 A  
HETATM   13  C   UNL     1      -8.098  10.503  68.617  1.00  0.00    -0.127 A  
HETATM   14  C   UNL     1      -6.861  10.997  69.059  1.00  0.00    -0.084 A  
HETATM   15  C   UNL     1      -6.563  12.364  69.033  1.00  0.00    -0.100 A  
BRANCH  13  16
HETATM   16  C   UNL     1      -8.407   9.021  68.642  1.00  0.00    -0.123 C  
BRANCH  16  17
HETATM   17  S   UNL     1      -9.737   8.699  69.825  1.00  0.00    -0.179 S  
HETATM   18  O   UNL     1     -11.004   9.094  69.241  1.00  0.00    -0.179 OA 
HETATM   19  O   UNL     1      -9.344   9.149  71.142  1.00  0.00    -0.253 OA 
BRANCH  17  20
HETATM   20  N   UNL     1      -9.780   6.996  69.910  1.00  0.00    -0.163 N  
HETATM   21  C   UNL     1      -8.858   6.340  68.942  1.00  0.00    -0.124 C  
HETATM   22  C   UNL     1      -8.719   4.922  69.459  1.00  0.00    -0.108 C  
HETATM   23  C   UNL     1      -8.739   5.088  70.966  1.00  0.00    -0.141 C  
HETATM   24  C   UNL     1      -9.575   6.341  71.229  1.00  0.00    -0.174 C  
ENDBRANCH  17  20
ENDBRANCH  16  17
ENDBRANCH  13  16
ENDBRANCH   5   6
ENDBRANCH   4   5
ENDBRANCH   2   4
TORSDOF 6
ENDMDL
MODEL      253
REMARK 921   NORMALIZED FREE ENERGY PREDICTED BY IDOCK:   -3.08 KCAL/MOL
REMARK 922        TOTAL FREE ENERGY PREDICTED BY IDOCK:   -4.75 KCAL/MOL
REMARK 923 INTER-LIGAND FREE ENERGY PREDICTED BY IDOCK:   -3.98 KCAL/MOL
REMARK 924 INTRA-LIGAND FREE ENERGY PREDICTED BY IDOCK:   -0.77 KCAL/MOL
REMARK 927      BINDING AFFINITY PREDICTED BY RF-SCORE:    0.00 PKD
ROOT
HETATM    1  C   UNL     1      -6.448   7.025  66.138  1.00  0.00    -0.051 C  
HETATM    2  N   UNL     1      -7.895   7.056  66.383  1.00  0.00    -0.103 NA 
HETATM    3  C   UNL     1      -8.565   7.710  65.256  1.00  0.00    -0.022 C  
ENDROOT
BRANCH   2   4
HETATM    4  C   UNL     1      -8.384   5.677  66.594  1.00  0.00    -0.112 C  
BRANCH   4   5
HETATM    5  C   UNL     1      -9.456   5.526  67.691  1.00  0.00    -0.125 C  
BRANCH   5   6
HETATM    6  C   UNL     1      -9.097   6.294  68.930  1.00  0.00    -0.124 A  
HETATM    7  C   UNL     1      -8.151   5.927  69.871  1.00  0.00    -0.116 A  
HETATM    8  N   UNL     1      -8.156   6.858  70.872  1.00  0.00    -0.112 NA 
HETATM    9  C   UNL     1      -9.073   7.846  70.597  1.00  0.00    -0.153 A  
HETATM   10  H   UNL     1      -7.565   6.825  71.702  1.00  0.00     0.000 HD 
HETATM   11  C   UNL     1      -9.671   7.529  69.380  1.00  0.00    -0.164 A  
HETATM   12  C   UNL     1     -10.661   8.402  68.872  1.00  0.00    -0.162 A  
HETATM   13  C   UNL     1     -11.036   9.554  69.591  1.00  0.00    -0.233 A  
HETATM   14  C   UNL     1     -10.394   9.833  70.807  1.00  0.00    -0.298 A  
HETATM   15  C   UNL     1      -9.415   8.984  71.334  1.00  0.00    -0.334 A  
BRANCH  13  16
HETATM   16  C   UNL     1     -12.101  10.475  69.033  1.00  0.00     0.086 C  
BRANCH  16  17
HETATM   17  S   UNL     1     -11.315  11.888  68.222  1.00  0.00    -0.304 S  
HETATM   18  O   UNL     1     -11.094  12.938  69.197  1.00  0.00    -0.243 OA 
HETATM   19  O   UNL     1     -11.969  12.159  66.961  1.00  0.00    -0.593 OA 
BRANCH  17  20
HETATM   20  N   UNL     1      -9.765  11.297  67.824  1.00  0.00    -0.171 N  
HETATM   21  C   UNL     1      -9.571  11.110  66.359  1.00  0.00    -0.200 C  
HETATM   22  C   UNL     1      -8.067  11.015  66.190  1.00  0.00    -0.141 C  
HETATM   23  C   UNL     1      -7.531  11.989  67.221  1.00  0.00    -0.158 C  
HETATM   24  C   UNL     1      -8.571  12.016  68.340  1.00  0.00    -0.147 C  
ENDBRANCH  17  20
ENDBRANCH  16  17
ENDBRANCH  13  16
ENDBRANCH   5   6
ENDBRANCH   4   5
ENDBRANCH   2   4
TORSDOF 6
ENDMDL
MODEL      254
REMARK 921   NORMALIZED FREE ENERGY PREDICTED BY IDOCK:   -3.07 KCAL/MOL
REMARK 922        TOTAL FREE ENERGY PREDICTED BY IDOCK:   -4.73 KCAL/MOL
REMARK 923 INTER-LIGAND FREE ENERGY PREDICTED BY IDOCK:   -4.31 KCAL/MOL
REMARK 924 INTRA-LIGAND FREE ENERGY PREDICTED BY IDOCK:   -0.42 KCAL/MOL
REMARK 927      BINDING AFFINITY PREDICTED BY RF-SCORE:    0.00 PKD
ROOT
HETATM    1  C   UNL     1      -8.321  15.807  69.760  1.00  0.00     0.139 C  
HETATM    2  N   UNL     1      -7.055  15.483  69.092  1.00  0.00    -0.150 NA 
HETATM    3  C   UNL     1      -5.946  16.095  69.827  1.00  0.00    -0.177 C  
ENDROOT
BRANCH   2   4
HETATM    4  C   UNL     1      -6.914  14.014  68.998  1.00  0.00    -0.112 C  
BRANCH   4   5
HETATM    5  C   UNL     1      -7.151  13.424  67.595  1.00  0.00    -0.168 C  
BRANCH   5   6
HETATM    6  C   UNL     1      -8.593  13.069  67.376  1.00  0.00    -0.199 A  
HETATM    7  C   UNL     1      -9.526  13.832  66.697  1.00  0.00    -0.279 A  
HETATM    8  N   UNL     1     -10.733  13.192  66.760  1.00  0.00    -0.266 NA 
HETATM    9  C   UNL     1     -10.608  12.009  67.450  1.00  0.00    -0.223 A  
HETATM   10  H   UNL     1     -11.601  13.542  66.354  1.00  0.00     0.000 HD 
HETATM   11  C   UNL     1      -9.275  11.895  67.839  1.00  0.00    -0.187 A  
HETATM   12  C   UNL     1      -8.886  10.749  68.571  1.00  0.00    -0.149 A  
HETATM   13  C   UNL     1      -9.831   9.759  68.905  1.00  0.00    -0.177 A  
HETATM   14  C   UNL     1     -11.158   9.918  68.480  1.00  0.00    -0.181 A  
HETATM   15  C   UNL     1     -11.571  11.043  67.758  1.00  0.00    -0.277 A  
BRANCH  13  16
HETATM   16  C   UNL     1      -9.397   8.541  69.693  1.00  0.00    -0.157 C  
BRANCH  16  17
HETATM   17  S   UNL     1     -10.609   8.196  70.991  1.00  0.00    -0.214 S  
HETATM   18  O   UNL     1     -11.673   7.374  70.446  1.00  0.00    -0.237 OA 
HETATM   19  O   UNL     1     -10.898   9.404  71.731  1.00  0.00    -0.354 OA 
BRANCH  17  20
HETATM   20  N   UNL     1      -9.752   7.187  72.066  1.00  0.00    -0.158 N  
HETATM   21  C   UNL     1      -8.396   7.705  72.397  1.00  0.00    -0.117 C  
HETATM   22  C   UNL     1      -7.999   6.942  73.646  1.00  0.00    -0.114 C  
HETATM   23  C   UNL     1      -9.301   6.803  74.408  1.00  0.00    -0.259 C  
HETATM   24  C   UNL     1     -10.400   6.793  73.346  1.00  0.00    -0.294 C  
ENDBRANCH  17  20
ENDBRANCH  16  17
ENDBRANCH  13  16
ENDBRANCH   5   6
ENDBRANCH   4   5
ENDBRANCH   2   4
TORSDOF 6
ENDMDL
MODEL      255
REMARK 921   NORMALIZED FREE ENERGY PREDICTED BY IDOCK:   -3.03 KCAL/MOL
REMARK 922        TOTAL FREE ENERGY PREDICTED BY IDOCK:   -4.68 KCAL/MOL
REMARK 923 INTER-LIGAND FREE ENERGY PREDICTED BY IDOCK:   -4.40 KCAL/MOL
REMARK 924 INTRA-LIGAND FREE ENERGY PREDICTED BY IDOCK:   -0.29 KCAL/MOL
REMARK 927      BINDING AFFINITY PREDICTED BY RF-SCORE:    0.00 PKD
ROOT
HETATM    1  C   UNL     1      -8.078  13.964  68.534  1.00  0.00    -0.133 C  
HETATM    2  N   UNL     1      -9.164  14.103  67.557  1.00  0.00    -0.185 NA 
HETATM    3  C   UNL     1      -8.759  15.043  66.510  1.00  0.00    -0.208 C  
ENDROOT
BRANCH   2   4
HETATM    4  C   UNL     1      -9.500  12.772  67.007  1.00  0.00    -0.233 C  
BRANCH   4   5
HETATM    5  C   UNL     1      -8.538  11.638  67.412  1.00  0.00    -0.149 C  
BRANCH   5   6
HETATM    6  C   UNL     1      -8.815  10.374  66.650  1.00  0.00    -0.144 A  
HETATM    7  C   UNL     1      -9.281  10.293  65.350  1.00  0.00    -0.193 A  
HETATM    8  N   UNL     1      -9.453   8.973  65.036  1.00  0.00    -0.430 NA 
HETATM    9  C   UNL     1      -9.088   8.181  66.099  1.00  0.00    -0.183 A  
HETATM   10  H   UNL     1      -9.803   8.627  64.143  1.00  0.00     0.000 HD 
HETATM   11  C   UNL     1      -8.671   9.028  67.123  1.00  0.00    -0.123 A  
HETATM   12  C   UNL     1      -8.239   8.449  68.338  1.00  0.00    -0.124 A  
HETATM   13  C   UNL     1      -8.246   7.050  68.506  1.00  0.00    -0.124 A  
HETATM   14  C   UNL     1      -8.665   6.241  67.439  1.00  0.00    -0.105 A  
HETATM   15  C   UNL     1      -9.102   6.788  66.228  1.00  0.00    -0.165 A  
BRANCH  13  16
HETATM   16  C   UNL     1      -7.784   6.447  69.816  1.00  0.00    -0.109 C  
BRANCH  16  17
HETATM   17  S   UNL     1      -9.117   5.455  70.530  1.00  0.00    -0.145 S  
HETATM   18  O   UNL     1      -8.609   4.719  71.671  1.00  0.00    -0.117 OA 
HETATM   19  O   UNL     1      -9.857   4.793  69.478  1.00  0.00    -0.190 OA 
BRANCH  17  20
HETATM   20  N   UNL     1     -10.175   6.628  71.173  1.00  0.00    -0.193 N  
HETATM   21  C   UNL     1      -9.470   7.848  71.655  1.00  0.00    -0.152 C  
HETATM   22  C   UNL     1     -10.563   8.893  71.767  1.00  0.00    -0.432 C  
HETATM   23  C   UNL     1     -11.474   8.582  70.595  1.00  0.00    -0.249 C  
HETATM   24  C   UNL     1     -11.327   7.081  70.349  1.00  0.00    -0.310 C  
ENDBRANCH  17  20
ENDBRANCH  16  17
ENDBRANCH  13  16
ENDBRANCH   5   6
ENDBRANCH   4   5
ENDBRANCH   2   4
TORSDOF 6
ENDMDL
MODEL      256
REMARK 921   NORMALIZED FREE ENERGY PREDICTED BY IDOCK:   -3.02 KCAL/MOL
REMARK 922        TOTAL FREE ENERGY PREDICTED BY IDOCK:   -4.66 KCAL/MOL
REMARK 923 INTER-LIGAND FREE ENERGY PREDICTED BY IDOCK:   -4.21 KCAL/MOL
REMARK 924 INTRA-LIGAND FREE ENERGY PREDICTED BY IDOCK:   -0.45 KCAL/MOL
REMARK 927      BINDING AFFINITY PREDICTED BY RF-SCORE:    0.00 PKD
ROOT
HETATM    1  C   UNL     1     -12.255  14.014  70.385  1.00  0.00    -0.363 C  
HETATM    2  N   UNL     1     -11.689  12.808  69.770  1.00  0.00    -0.304 NA 
HETATM    3  C   UNL     1     -12.197  11.623  70.466  1.00  0.00    -0.361 C  
ENDROOT
BRANCH   2   4
HETATM    4  C   UNL     1     -12.024  12.791  68.330  1.00  0.00    -0.231 C  
BRANCH   4   5
HETATM    5  C   UNL     1     -10.952  13.398  67.404  1.00  0.00    -0.287 C  
BRANCH   5   6
HETATM    6  C   UNL     1      -9.575  13.271  67.988  1.00  0.00    -0.220 A  
HETATM    7  C   UNL     1      -8.766  14.314  68.402  1.00  0.00    -0.181 A  
HETATM    8  N   UNL     1      -7.574  13.794  68.824  1.00  0.00    -0.207 NA 
HETATM    9  C   UNL     1      -7.590  12.423  68.716  1.00  0.00    -0.033 A  
HETATM   10  H   UNL     1      -6.787  14.343  69.168  1.00  0.00     0.000 HD 
HETATM   11  C   UNL     1      -8.835  12.062  68.207  1.00  0.00    -0.182 A  
HETATM   12  C   UNL     1      -9.103  10.688  68.003  1.00  0.00    -0.147 A  
HETATM   13  C   UNL     1      -8.125   9.718  68.298  1.00  0.00    -0.104 A  
HETATM   14  C   UNL     1      -6.892  10.134  68.819  1.00  0.00    -0.061 A  
HETATM   15  C   UNL     1      -6.599  11.486  69.026  1.00  0.00    -0.089 A  
BRANCH  13  16
HETATM   16  C   UNL     1      -8.429   8.251  68.068  1.00  0.00    -0.132 C  
BRANCH  16  17
HETATM   17  S   UNL     1      -9.145   8.032  66.422  1.00  0.00    -0.190 S  
HETATM   18  O   UNL     1      -8.288   8.663  65.438  1.00  0.00    -0.138 OA 
HETATM   19  O   UNL     1     -10.566   8.301  66.462  1.00  0.00    -0.193 OA 
BRANCH  17  20
HETATM   20  N   UNL     1      -8.998   6.354  66.153  1.00  0.00    -0.157 N  
HETATM   21  C   UNL     1      -7.821   5.754  66.840  1.00  0.00    -0.101 C  
HETATM   22  C   UNL     1      -8.109   4.266  66.846  1.00  0.00    -0.101 C  
HETATM   23  C   UNL     1      -9.610   4.194  67.047  1.00  0.00    -0.228 C  
HETATM   24  C   UNL     1     -10.167   5.479  66.436  1.00  0.00    -0.201 C  
ENDBRANCH  17  20
ENDBRANCH  16  17
ENDBRANCH  13  16
ENDBRANCH   5   6
ENDBRANCH   4   5
ENDBRANCH   2   4
TORSDOF 6
ENDMDL
MODEL      257
REMARK 921   NORMALIZED FREE ENERGY PREDICTED BY IDOCK:   -3.00 KCAL/MOL
REMARK 922        TOTAL FREE ENERGY PREDICTED BY IDOCK:   -4.64 KCAL/MOL
REMARK 923 INTER-LIGAND FREE ENERGY PREDICTED BY IDOCK:   -3.80 KCAL/MOL
REMARK 924 INTRA-LIGAND FREE ENERGY PREDICTED BY IDOCK:   -0.84 KCAL/MOL
REMARK 927      BINDING AFFINITY PREDICTED BY RF-SCORE:    0.00 PKD
ROOT
HETATM    1  C   UNL     1     -13.345  12.705  72.236  1.00  0.00    -0.422 C  
HETATM    2  N   UNL     1     -13.338  13.342  70.914  1.00  0.00     0.097 NA 
HETATM    3  C   UNL     1     -12.355  14.428  70.902  1.00  0.00    -0.349 C  
ENDROOT
BRANCH   2   4
HETATM    4  C   UNL     1     -13.051  12.322  69.883  1.00  0.00     1.199 C  
BRANCH   4   5
HETATM    5  C   UNL     1     -11.565  11.936  69.744  1.00  0.00    -0.359 C  
BRANCH   5   6
HETATM    6  C   UNL     1     -11.153  11.815  68.305  1.00  0.00    -0.291 A  
HETATM    7  C   UNL     1     -11.427  12.724  67.300  1.00  0.00    -0.337 A  
HETATM    8  N   UNL     1     -10.930  12.231  66.126  1.00  0.00    -0.281 NA 
HETATM    9  C   UNL     1     -10.313  11.021  66.342  1.00  0.00    -0.250 A  
HETATM   10  H   UNL     1     -11.007  12.694  65.220  1.00  0.00     0.000 HD 
HETATM   11  C   UNL     1     -10.424  10.737  67.701  1.00  0.00    -0.252 A  
HETATM   12  C   UNL     1      -9.860   9.534  68.182  1.00  0.00    -0.177 A  
HETATM   13  C   UNL     1      -9.215   8.643  67.301  1.00  0.00    -0.167 A  
HETATM   14  C   UNL     1      -9.122   8.982  65.943  1.00  0.00    -0.264 A  
HETATM   15  C   UNL     1      -9.675  10.165  65.440  1.00  0.00    -0.355 A  
BRANCH  13  16
HETATM   16  C   UNL     1      -8.621   7.356  67.834  1.00  0.00    -0.125 C  
BRANCH  16  17
HETATM   17  S   UNL     1      -9.805   6.006  67.615  1.00  0.00    -0.133 S  
HETATM   18  O   UNL     1      -9.084   4.763  67.422  1.00  0.00    -0.111 OA 
HETATM   19  O   UNL     1     -10.856   6.413  66.708  1.00  0.00    -0.326 OA 
BRANCH  17  20
HETATM   20  N   UNL     1     -10.540   5.879  69.149  1.00  0.00    -0.268 N  
HETATM   21  C   UNL     1      -9.673   6.374  70.254  1.00  0.00    -0.167 C  
HETATM   22  C   UNL     1     -10.626   6.582  71.414  1.00  0.00    -0.266 C  
HETATM   23  C   UNL     1     -11.893   7.083  70.747  1.00  0.00    -0.401 C  
HETATM   24  C   UNL     1     -11.889   6.472  69.347  1.00  0.00     0.203 C  
ENDBRANCH  17  20
ENDBRANCH  16  17
ENDBRANCH  13  16
ENDBRANCH   5   6
ENDBRANCH   4   5
ENDBRANCH   2   4
TORSDOF 6
ENDMDL
MODEL      258
REMARK 921   NORMALIZED FREE ENERGY PREDICTED BY IDOCK:   -2.96 KCAL/MOL
REMARK 922        TOTAL FREE ENERGY PREDICTED BY IDOCK:   -4.59 KCAL/MOL
REMARK 923 INTER-LIGAND FREE ENERGY PREDICTED BY IDOCK:   -3.78 KCAL/MOL
REMARK 924 INTRA-LIGAND FREE ENERGY PREDICTED BY IDOCK:   -0.81 KCAL/MOL
REMARK 927      BINDING AFFINITY PREDICTED BY RF-SCORE:    0.00 PKD
ROOT
HETATM    1  C   UNL     1      -7.850   6.872  64.241  1.00  0.00    -0.104 C  
HETATM    2  N   UNL     1      -7.577   5.881  65.288  1.00  0.00    -0.082 NA 
HETATM    3  C   UNL     1      -6.681   4.850  64.760  1.00  0.00    -0.048 C  
ENDROOT
BRANCH   2   4
HETATM    4  C   UNL     1      -7.003   6.563  66.467  1.00  0.00    -0.067 C  
BRANCH   4   5
HETATM    5  C   UNL     1      -7.549   6.085  67.827  1.00  0.00    -0.096 C  
BRANCH   5   6
HETATM    6  C   UNL     1      -8.858   6.740  68.163  1.00  0.00    -0.120 A  
HETATM    7  C   UNL     1     -10.092   6.116  68.212  1.00  0.00    -0.158 A  
HETATM    8  N   UNL     1     -11.039   7.058  68.502  1.00  0.00    -0.481 NA 
HETATM    9  C   UNL     1     -10.449   8.289  68.668  1.00  0.00    -0.168 A  
HETATM   10  H   UNL     1     -12.039   6.874  68.584  1.00  0.00     0.000 HD 
HETATM   11  C   UNL     1      -9.080   8.122  68.475  1.00  0.00    -0.136 A  
HETATM   12  C   UNL     1      -8.243   9.255  68.594  1.00  0.00    -0.113 A  
HETATM   13  C   UNL     1      -8.789  10.520  68.889  1.00  0.00    -0.166 A  
HETATM   14  C   UNL     1     -10.173  10.632  69.084  1.00  0.00    -0.238 A  
HETATM   15  C   UNL     1     -11.025   9.528  68.968  1.00  0.00    -0.127 A  
BRANCH  13  16
HETATM   16  C   UNL     1      -7.877  11.723  69.008  1.00  0.00     0.065 C  
BRANCH  16  17
HETATM   17  S   UNL     1      -7.732  12.536  67.399  1.00  0.00    -0.156 S  
HETATM   18  O   UNL     1      -8.067  11.589  66.353  1.00  0.00    -0.151 OA 
HETATM   19  O   UNL     1      -6.514  13.313  67.346  1.00  0.00    -0.213 OA 
BRANCH  17  20
HETATM   20  N   UNL     1      -9.006  13.670  67.418  1.00  0.00    -0.207 N  
HETATM   21  C   UNL     1     -10.170  13.255  66.587  1.00  0.00    -0.265 C  
HETATM   22  C   UNL     1     -11.307  14.132  67.072  1.00  0.00    -0.346 C  
HETATM   23  C   UNL     1     -11.051  14.257  68.561  1.00  0.00    -0.276 C  
HETATM   24  C   UNL     1      -9.539  14.124  68.730  1.00  0.00    -0.122 C  
ENDBRANCH  17  20
ENDBRANCH  16  17
ENDBRANCH  13  16
ENDBRANCH   5   6
ENDBRANCH   4   5
ENDBRANCH   2   4
TORSDOF 6
ENDMDL
MODEL      259
REMARK 921   NORMALIZED FREE ENERGY PREDICTED BY IDOCK:   -2.86 KCAL/MOL
REMARK 922        TOTAL FREE ENERGY PREDICTED BY IDOCK:   -4.46 KCAL/MOL
REMARK 923 INTER-LIGAND FREE ENERGY PREDICTED BY IDOCK:   -4.74 KCAL/MOL
REMARK 924 INTRA-LIGAND FREE ENERGY PREDICTED BY IDOCK:    0.28 KCAL/MOL
REMARK 927      BINDING AFFINITY PREDICTED BY RF-SCORE:    0.00 PKD
ROOT
HETATM    1  C   UNL     1      -8.502   6.525  72.159  1.00  0.00    -0.113 C  
HETATM    2  N   UNL     1      -9.918   6.568  72.539  1.00  0.00    -0.170 NA 
HETATM    3  C   UNL     1     -10.035   7.002  73.933  1.00  0.00    -0.332 C  
ENDROOT
BRANCH   2   4
HETATM    4  C   UNL     1     -10.645   7.466  71.617  1.00  0.00    -0.205 C  
BRANCH   4   5
HETATM    5  C   UNL     1     -11.930   8.092  72.192  1.00  0.00    -0.413 C  
BRANCH   5   6
HETATM    6  C   UNL     1     -12.212   9.438  71.590  1.00  0.00    -0.467 A  
HETATM    7  C   UNL     1     -12.917  10.467  72.189  1.00  0.00    -0.292 A  
HETATM    8  N   UNL     1     -13.001  11.504  71.302  1.00  0.00    -0.358 NA 
HETATM    9  C   UNL     1     -12.345  11.186  70.136  1.00  0.00    -0.295 A  
HETATM   10  H   UNL     1     -13.481  12.386  71.480  1.00  0.00     0.000 HD 
HETATM   11  C   UNL     1     -11.828   9.901  70.288  1.00  0.00    -0.255 A  
HETATM   12  C   UNL     1     -11.101   9.340  69.214  1.00  0.00    -0.031 A  
HETATM   13  C   UNL     1     -10.919  10.063  68.018  1.00  0.00    -0.296 A  
HETATM   14  C   UNL     1     -11.451  11.357  67.920  1.00  0.00    -0.361 A  
HETATM   15  C   UNL     1     -12.179  11.934  68.966  1.00  0.00    -0.103 A  
BRANCH  13  16
HETATM   16  C   UNL     1     -10.141   9.443  66.876  1.00  0.00    -0.248 C  
BRANCH  16  17
HETATM   17  S   UNL     1      -8.633  10.398  66.583  1.00  0.00    -0.127 S  
HETATM   18  O   UNL     1      -8.805  11.739  67.108  1.00  0.00    -0.161 OA 
HETATM   19  O   UNL     1      -8.162  10.176  65.234  1.00  0.00    -0.144 OA 
BRANCH  17  20
HETATM   20  N   UNL     1      -7.491   9.647  67.603  1.00  0.00    -0.090 N  
HETATM   21  C   UNL     1      -6.956  10.560  68.651  1.00  0.00    -0.067 C  
HETATM   22  C   UNL     1      -6.332   9.631  69.674  1.00  0.00    -0.045 C  
HETATM   23  C   UNL     1      -7.260   8.432  69.678  1.00  0.00    -0.057 C  
HETATM   24  C   UNL     1      -7.861   8.373  68.274  1.00  0.00    -0.110 C  
ENDBRANCH  17  20
ENDBRANCH  16  17
ENDBRANCH  13  16
ENDBRANCH   5   6
ENDBRANCH   4   5
ENDBRANCH   2   4
TORSDOF 6
ENDMDL
MODEL      260
REMARK 921   NORMALIZED FREE ENERGY PREDICTED BY IDOCK:   -2.83 KCAL/MOL
REMARK 922        TOTAL FREE ENERGY PREDICTED BY IDOCK:   -4.41 KCAL/MOL
REMARK 923 INTER-LIGAND FREE ENERGY PREDICTED BY IDOCK:   -5.56 KCAL/MOL
REMARK 924 INTRA-LIGAND FREE ENERGY PREDICTED BY IDOCK:    1.15 KCAL/MOL
REMARK 927      BINDING AFFINITY PREDICTED BY RF-SCORE:    0.00 PKD
ROOT
HETATM    1  C   UNL     1     -10.086  11.295  64.766  1.00  0.00    -0.285 C  
HETATM    2  N   UNL     1      -9.790  12.073  65.974  1.00  0.00    -0.233 NA 
HETATM    3  C   UNL     1      -8.345  12.072  66.212  1.00  0.00     0.145 C  
ENDROOT
BRANCH   2   4
HETATM    4  C   UNL     1     -10.324  13.442  65.815  1.00  0.00    -0.293 C  
BRANCH   4   5
HETATM    5  C   UNL     1      -9.944  14.425  66.940  1.00  0.00    -0.261 C  
BRANCH   5   6
HETATM    6  C   UNL     1     -10.816  14.253  68.149  1.00  0.00    -0.253 A  
HETATM    7  C   UNL     1     -11.478  15.261  68.826  1.00  0.00    -0.331 A  
HETATM    8  N   UNL     1     -12.122  14.709  69.898  1.00  0.00    -0.319 NA 
HETATM    9  C   UNL     1     -11.914  13.350  69.928  1.00  0.00    -0.338 A  
HETATM   10  H   UNL     1     -12.677  15.230  70.578  1.00  0.00     0.000 HD 
HETATM   11  C   UNL     1     -11.109  13.030  68.838  1.00  0.00    -0.307 A  
HETATM   12  C   UNL     1     -10.751  11.676  68.645  1.00  0.00    -0.246 A  
HETATM   13  C   UNL     1     -11.189  10.684  69.545  1.00  0.00    -0.331 A  
HETATM   14  C   UNL     1     -12.007  11.059  70.621  1.00  0.00    -0.464 A  
HETATM   15  C   UNL     1     -12.374  12.391  70.838  1.00  0.00    -0.358 A  
BRANCH  13  16
HETATM   16  C   UNL     1     -10.791   9.240  69.324  1.00  0.00    -0.152 C  
BRANCH  16  17
HETATM   17  S   UNL     1     -10.069   8.572  70.842  1.00  0.00    -0.212 S  
HETATM   18  O   UNL     1      -9.644   9.667  71.693  1.00  0.00    -0.005 OA 
HETATM   19  O   UNL     1      -9.177   7.479  70.526  1.00  0.00    -0.156 OA 
BRANCH  17  20
HETATM   20  N   UNL     1     -11.406   7.867  71.633  1.00  0.00    -0.251 N  
HETATM   21  C   UNL     1     -12.196   8.846  72.429  1.00  0.00    -0.295 C  
HETATM   22  C   UNL     1     -13.520   8.150  72.671  1.00  0.00     0.118 C  
HETATM   23  C   UNL     1     -13.759   7.382  71.385  1.00  0.00    -0.419 C  
HETATM   24  C   UNL     1     -12.370   7.069  70.831  1.00  0.00    -0.314 C  
ENDBRANCH  17  20
ENDBRANCH  16  17
ENDBRANCH  13  16
ENDBRANCH   5   6
ENDBRANCH   4   5
ENDBRANCH   2   4
TORSDOF 6
ENDMDL
MODEL      261
REMARK 921   NORMALIZED FREE ENERGY PREDICTED BY IDOCK:   -2.77 KCAL/MOL
REMARK 922        TOTAL FREE ENERGY PREDICTED BY IDOCK:   -4.33 KCAL/MOL
REMARK 923 INTER-LIGAND FREE ENERGY PREDICTED BY IDOCK:   -3.86 KCAL/MOL
REMARK 924 INTRA-LIGAND FREE ENERGY PREDICTED BY IDOCK:   -0.46 KCAL/MOL
REMARK 927      BINDING AFFINITY PREDICTED BY RF-SCORE:    0.00 PKD
ROOT
HETATM    1  C   UNL     1      -7.118  14.247  68.877  1.00  0.00    -0.113 C  
HETATM    2  N   UNL     1      -8.114  14.793  67.949  1.00  0.00    -0.132 NA 
HETATM    3  C   UNL     1      -7.453  15.685  66.994  1.00  0.00    -0.193 C  
ENDROOT
BRANCH   2   4
HETATM    4  C   UNL     1      -8.815  13.680  67.274  1.00  0.00    -0.224 C  
BRANCH   4   5
HETATM    5  C   UNL     1      -8.030  12.355  67.217  1.00  0.00    -0.178 C  
BRANCH   5   6
HETATM    6  C   UNL     1      -8.877  11.228  66.700  1.00  0.00    -0.175 A  
HETATM    7  C   UNL     1      -9.486  11.169  65.460  1.00  0.00    -0.221 A  
HETATM    8  N   UNL     1     -10.207  10.009  65.390  1.00  0.00    -0.243 NA 
HETATM    9  C   UNL     1     -10.066   9.291  66.554  1.00  0.00    -0.273 A  
HETATM   10  H   UNL     1     -10.768   9.719  64.589  1.00  0.00     0.000 HD 
HETATM   11  C   UNL     1      -9.227  10.022  67.392  1.00  0.00    -0.153 A  
HETATM   12  C   UNL     1      -8.923   9.488  68.666  1.00  0.00    -0.132 A  
HETATM   13  C   UNL     1      -9.468   8.254  69.074  1.00  0.00    -0.155 A  
HETATM   14  C   UNL     1     -10.299   7.554  68.187  1.00  0.00    -0.244 A  
HETATM   15  C   UNL     1     -10.620   8.061  66.923  1.00  0.00    -0.324 A  
BRANCH  13  16
HETATM   16  C   UNL     1      -9.134   7.701  70.443  1.00  0.00    -0.152 C  
BRANCH  16  17
HETATM   17  S   UNL     1      -7.892   6.396  70.282  1.00  0.00    -0.105 S  
HETATM   18  O   UNL     1      -7.330   6.106  71.587  1.00  0.00    -0.085 OA 
HETATM   19  O   UNL     1      -7.043   6.661  69.142  1.00  0.00    -0.082 OA 
BRANCH  17  20
HETATM   20  N   UNL     1      -8.817   5.026  69.864  1.00  0.00    -0.100 N  
HETATM   21  C   UNL     1      -8.125   4.128  68.898  1.00  0.00    -0.071 C  
HETATM   22  C   UNL     1      -8.881   2.818  68.998  1.00  0.00    -0.152 C  
HETATM   23  C   UNL     1      -9.243   2.726  70.467  1.00  0.00    -0.208 C  
HETATM   24  C   UNL     1      -9.360   4.170  70.952  1.00  0.00    -0.147 C  
ENDBRANCH  17  20
ENDBRANCH  16  17
ENDBRANCH  13  16
ENDBRANCH   5   6
ENDBRANCH   4   5
ENDBRANCH   2   4
TORSDOF 6
ENDMDL
MODEL      262
REMARK 921   NORMALIZED FREE ENERGY PREDICTED BY IDOCK:   -2.73 KCAL/MOL
REMARK 922        TOTAL FREE ENERGY PREDICTED BY IDOCK:   -4.28 KCAL/MOL
REMARK 923 INTER-LIGAND FREE ENERGY PREDICTED BY IDOCK:   -3.58 KCAL/MOL
REMARK 924 INTRA-LIGAND FREE ENERGY PREDICTED BY IDOCK:   -0.70 KCAL/MOL
REMARK 927      BINDING AFFINITY PREDICTED BY RF-SCORE:    0.00 PKD
ROOT
HETATM    1  C   UNL     1      -8.414   8.843  64.708  1.00  0.00    -0.176 C  
HETATM    2  N   UNL     1      -6.962   8.692  64.563  1.00  0.00    -0.080 NA 
HETATM    3  C   UNL     1      -6.343   8.627  65.889  1.00  0.00    -0.056 C  
ENDROOT
BRANCH   2   4
HETATM    4  C   UNL     1      -6.675   7.486  63.758  1.00  0.00    -0.053 C  
BRANCH   4   5
HETATM    5  C   UNL     1      -5.935   6.361  64.508  1.00  0.00    -0.023 C  
BRANCH   5   6
HETATM    6  C   UNL     1      -6.779   5.126  64.632  1.00  0.00    -0.047 A  
HETATM    7  C   UNL     1      -6.932   4.144  63.669  1.00  0.00    -0.045 A  
HETATM    8  N   UNL     1      -7.818   3.215  64.140  1.00  0.00    -0.080 NA 
HETATM    9  C   UNL     1      -8.235   3.554  65.405  1.00  0.00    -0.097 A  
HETATM   10  H   UNL     1      -8.125   2.389  63.625  1.00  0.00     0.000 HD 
HETATM   11  C   UNL     1      -7.592   4.741  65.749  1.00  0.00    -0.086 A  
HETATM   12  C   UNL     1      -7.856   5.302  67.020  1.00  0.00    -0.100 A  
HETATM   13  C   UNL     1      -8.758   4.678  67.904  1.00  0.00    -0.111 A  
HETATM   14  C   UNL     1      -9.370   3.478  67.513  1.00  0.00    -0.249 A  
HETATM   15  C   UNL     1      -9.130   2.903  66.261  1.00  0.00    -0.140 A  
BRANCH  13  16
HETATM   16  C   UNL     1      -9.031   5.297  69.259  1.00  0.00    -0.103 C  
BRANCH  16  17
HETATM   17  S   UNL     1     -10.175   6.685  69.071  1.00  0.00    -0.189 S  
HETATM   18  O   UNL     1     -11.377   6.228  68.400  1.00  0.00    -0.298 OA 
HETATM   19  O   UNL     1      -9.460   7.856  68.614  1.00  0.00    -0.149 OA 
BRANCH  17  20
HETATM   20  N   UNL     1     -10.644   7.025  70.675  1.00  0.00    -0.221 N  
HETATM   21  C   UNL     1     -10.202   8.369  71.139  1.00  0.00    -0.202 C  
HETATM   22  C   UNL     1     -11.058   8.643  72.361  1.00  0.00    -0.328 C  
HETATM   23  C   UNL     1     -12.396   8.026  72.004  1.00  0.00    -0.366 C  
HETATM   24  C   UNL     1     -12.076   6.877  71.048  1.00  0.00    -0.380 C  
ENDBRANCH  17  20
ENDBRANCH  16  17
ENDBRANCH  13  16
ENDBRANCH   5   6
ENDBRANCH   4   5
ENDBRANCH   2   4
TORSDOF 6
ENDMDL
MODEL      263
REMARK 921   NORMALIZED FREE ENERGY PREDICTED BY IDOCK:   -2.67 KCAL/MOL
REMARK 922        TOTAL FREE ENERGY PREDICTED BY IDOCK:   -4.19 KCAL/MOL
REMARK 923 INTER-LIGAND FREE ENERGY PREDICTED BY IDOCK:   -4.09 KCAL/MOL
REMARK 924 INTRA-LIGAND FREE ENERGY PREDICTED BY IDOCK:   -0.10 KCAL/MOL
REMARK 927      BINDING AFFINITY PREDICTED BY RF-SCORE:    0.00 PKD
ROOT
HETATM    1  C   UNL     1      -5.473  14.114  68.444  1.00  0.00    -0.107 C  
HETATM    2  N   UNL     1      -6.015  12.751  68.429  1.00  0.00    -0.064 NA 
HETATM    3  C   UNL     1      -5.524  12.019  69.599  1.00  0.00    -0.078 C  
ENDROOT
BRANCH   2   4
HETATM    4  C   UNL     1      -7.491  12.812  68.393  1.00  0.00    -0.124 C  
BRANCH   4   5
HETATM    5  C   UNL     1      -8.091  14.214  68.616  1.00  0.00    -0.126 C  
BRANCH   5   6
HETATM    6  C   UNL     1      -8.957  14.639  67.466  1.00  0.00    -0.193 A  
HETATM    7  C   UNL     1      -9.391  15.927  67.205  1.00  0.00    -0.212 A  
HETATM    8  N   UNL     1     -10.197  15.894  66.102  1.00  0.00    -0.304 NA 
HETATM    9  C   UNL     1     -10.286  14.610  65.616  1.00  0.00    -0.359 A  
HETATM   10  H   UNL     1     -10.666  16.705  65.697  1.00  0.00     0.000 HD 
HETATM   11  C   UNL     1      -9.509  13.801  66.441  1.00  0.00    -0.259 A  
HETATM   12  C   UNL     1      -9.434  12.420  66.147  1.00  0.00    -0.201 A  
HETATM   13  C   UNL     1     -10.141  11.882  65.053  1.00  0.00    -0.297 A  
HETATM   14  C   UNL     1     -10.900  12.743  64.247  1.00  0.00    -0.419 A  
HETATM   15  C   UNL     1     -10.995  14.112  64.518  1.00  0.00    -0.340 A  
BRANCH  13  16
HETATM   16  C   UNL     1     -10.052  10.400  64.756  1.00  0.00    -0.317 C  
BRANCH  16  17
HETATM   17  S   UNL     1      -8.757  10.105  63.529  1.00  0.00    -0.238 S  
HETATM   18  O   UNL     1      -8.357  11.368  62.940  1.00  0.00     0.055 OA 
HETATM   19  O   UNL     1      -9.107   8.970  62.704  1.00  0.00    -0.126 OA 
BRANCH  17  20
HETATM   20  N   UNL     1      -7.431   9.598  64.475  1.00  0.00    -0.121 N  
HETATM   21  C   UNL     1      -7.838   8.999  65.776  1.00  0.00    -0.098 C  
HETATM   22  C   UNL     1      -6.608   8.245  66.242  1.00  0.00    -0.050 C  
HETATM   23  C   UNL     1      -6.015   7.701  64.957  1.00  0.00    -0.038 C  
HETATM   24  C   UNL     1      -6.423   8.690  63.866  1.00  0.00    -0.076 C  
ENDBRANCH  17  20
ENDBRANCH  16  17
ENDBRANCH  13  16
ENDBRANCH   5   6
ENDBRANCH   4   5
ENDBRANCH   2   4
TORSDOF 6
ENDMDL
MODEL      264
REMARK 921   NORMALIZED FREE ENERGY PREDICTED BY IDOCK:   -2.64 KCAL/MOL
REMARK 922        TOTAL FREE ENERGY PREDICTED BY IDOCK:   -4.15 KCAL/MOL
REMARK 923 INTER-LIGAND FREE ENERGY PREDICTED BY IDOCK:   -4.17 KCAL/MOL
REMARK 924 INTRA-LIGAND FREE ENERGY PREDICTED BY IDOCK:    0.02 KCAL/MOL
REMARK 927      BINDING AFFINITY PREDICTED BY RF-SCORE:    0.00 PKD
ROOT
HETATM    1  C   UNL     1      -8.605  15.026  67.750  1.00  0.00    -0.161 C  
HETATM    2  N   UNL     1      -9.458  14.406  68.771  1.00  0.00    -0.193 NA 
HETATM    3  C   UNL     1     -10.629  15.253  69.007  1.00  0.00    -0.245 C  
ENDROOT
BRANCH   2   4
HETATM    4  C   UNL     1      -9.837  13.047  68.331  1.00  0.00    -0.203 C  
BRANCH   4   5
HETATM    5  C   UNL     1     -11.353  12.777  68.278  1.00  0.00    -0.335 C  
BRANCH   5   6
HETATM    6  C   UNL     1     -11.811  11.941  69.438  1.00  0.00    -0.389 A  
HETATM    7  C   UNL     1     -12.398  12.411  70.599  1.00  0.00    -0.279 A  
HETATM    8  N   UNL     1     -12.622  11.348  71.429  1.00  0.00    -0.362 NA 
HETATM    9  C   UNL     1     -12.213  10.182  70.827  1.00  0.00    -0.338 A  
HETATM   10  H   UNL     1     -13.033  11.412  72.361  1.00  0.00     0.000 HD 
HETATM   11  C   UNL     1     -11.711  10.517  69.572  1.00  0.00    -0.313 A  
HETATM   12  C   UNL     1     -11.223   9.478  68.746  1.00  0.00     0.050 A  
HETATM   13  C   UNL     1     -11.235   8.142  69.195  1.00  0.00     0.326 A  
HETATM   14  C   UNL     1     -11.761   7.857  70.463  1.00  0.00    -0.097 A  
HETATM   15  C   UNL     1     -12.247   8.866  71.302  1.00  0.00    -0.351 A  
BRANCH  13  16
HETATM   16  C   UNL     1     -10.703   7.044  68.298  1.00  0.00    -0.182 C  
BRANCH  16  17
HETATM   17  S   UNL     1      -9.662   5.924  69.264  1.00  0.00    -0.151 S  
HETATM   18  O   UNL     1     -10.440   5.368  70.355  1.00  0.00    -0.266 OA 
HETATM   19  O   UNL     1      -8.369   6.529  69.497  1.00  0.00    -0.127 OA 
BRANCH  17  20
HETATM   20  N   UNL     1      -9.382   4.628  68.191  1.00  0.00    -0.128 N  
HETATM   21  C   UNL     1      -8.155   4.809  67.367  1.00  0.00    -0.102 C  
HETATM   22  C   UNL     1      -7.854   3.421  66.834  1.00  0.00    -0.080 C  
HETATM   23  C   UNL     1      -8.243   2.508  67.980  1.00  0.00    -0.075 C  
HETATM   24  C   UNL     1      -9.349   3.244  68.734  1.00  0.00    -0.168 C  
ENDBRANCH  17  20
ENDBRANCH  16  17
ENDBRANCH  13  16
ENDBRANCH   5   6
ENDBRANCH   4   5
ENDBRANCH   2   4
TORSDOF 6
ENDMDL
MODEL      265
REMARK 921   NORMALIZED FREE ENERGY PREDICTED BY IDOCK:   -2.63 KCAL/MOL
REMARK 922        TOTAL FREE ENERGY PREDICTED BY IDOCK:   -4.14 KCAL/MOL
REMARK 923 INTER-LIGAND FREE ENERGY PREDICTED BY IDOCK:   -3.52 KCAL/MOL
REMARK 924 INTRA-LIGAND FREE ENERGY PREDICTED BY IDOCK:   -0.63 KCAL/MOL
REMARK 927      BINDING AFFINITY PREDICTED BY RF-SCORE:    0.00 PKD
ROOT
HETATM    1  C   UNL     1      -8.885   7.521  74.238  1.00  0.00    -0.199 C  
HETATM    2  N   UNL     1      -9.375   6.715  73.115  1.00  0.00    -0.131 NA 
HETATM    3  C   UNL     1     -10.737   7.131  72.774  1.00  0.00    -0.288 C  
ENDROOT
BRANCH   2   4
HETATM    4  C   UNL     1      -8.450   6.856  71.971  1.00  0.00    -0.110 C  
BRANCH   4   5
HETATM    5  C   UNL     1      -8.010   5.531  71.319  1.00  0.00    -0.111 C  
BRANCH   5   6
HETATM    6  C   UNL     1      -8.841   5.201  70.113  1.00  0.00    -0.139 A  
HETATM    7  C   UNL     1      -9.752   4.165  70.010  1.00  0.00    -0.212 A  
HETATM    8  N   UNL     1     -10.263   4.167  68.742  1.00  0.00     0.276 NA 
HETATM    9  C   UNL     1      -9.722   5.199  68.013  1.00  0.00    -0.146 A  
HETATM   10  H   UNL     1     -10.948   3.498  68.388  1.00  0.00     0.000 HD 
HETATM   11  C   UNL     1      -8.836   5.876  68.847  1.00  0.00    -0.115 A  
HETATM   12  C   UNL     1      -8.144   6.993  68.325  1.00  0.00    -0.123 A  
HETATM   13  C   UNL     1      -8.342   7.397  66.990  1.00  0.00    -0.121 A  
HETATM   14  C   UNL     1      -9.254   6.687  66.195  1.00  0.00    -0.120 A  
HETATM   15  C   UNL     1      -9.949   5.576  66.685  1.00  0.00    -0.213 A  
BRANCH  13  16
HETATM   16  C   UNL     1      -7.589   8.593  66.447  1.00  0.00    -0.091 C  
BRANCH  16  17
HETATM   17  S   UNL     1      -8.456  10.113  66.905  1.00  0.00    -0.126 S  
HETATM   18  O   UNL     1      -7.566  10.957  67.680  1.00  0.00    -0.094 OA 
HETATM   19  O   UNL     1      -9.788   9.800  67.371  1.00  0.00    -0.160 OA 
BRANCH  17  20
HETATM   20  N   UNL     1      -8.662  10.911  65.411  1.00  0.00    -0.181 N  
HETATM   21  C   UNL     1      -8.193  10.104  64.250  1.00  0.00    -0.165 C  
HETATM   22  C   UNL     1      -8.842  10.765  63.050  1.00  0.00    -0.233 C  
HETATM   23  C   UNL     1     -10.200  11.194  63.570  1.00  0.00    -0.446 C  
HETATM   24  C   UNL     1     -10.006  11.444  65.065  1.00  0.00    -0.266 C  
ENDBRANCH  17  20
ENDBRANCH  16  17
ENDBRANCH  13  16
ENDBRANCH   5   6
ENDBRANCH   4   5
ENDBRANCH   2   4
TORSDOF 6
ENDMDL
MODEL      266
REMARK 921   NORMALIZED FREE ENERGY PREDICTED BY IDOCK:   -2.61 KCAL/MOL
REMARK 922        TOTAL FREE ENERGY PREDICTED BY IDOCK:   -4.11 KCAL/MOL
REMARK 923 INTER-LIGAND FREE ENERGY PREDICTED BY IDOCK:   -3.16 KCAL/MOL
REMARK 924 INTRA-LIGAND FREE ENERGY PREDICTED BY IDOCK:   -0.95 KCAL/MOL
REMARK 927      BINDING AFFINITY PREDICTED BY RF-SCORE:    0.00 PKD
ROOT
HETATM    1  C   UNL     1      -6.996   9.764  64.968  1.00  0.00    -0.119 C  
HETATM    2  N   UNL     1      -7.027   9.306  63.574  1.00  0.00    -0.090 NA 
HETATM    3  C   UNL     1      -6.913  10.461  62.680  1.00  0.00    -0.125 C  
ENDROOT
BRANCH   2   4
HETATM    4  C   UNL     1      -5.940   8.328  63.358  1.00  0.00    -0.072 C  
BRANCH   4   5
HETATM    5  C   UNL     1      -5.917   7.148  64.349  1.00  0.00    -0.037 C  
BRANCH   5   6
HETATM    6  C   UNL     1      -6.892   6.075  63.960  1.00  0.00    -0.038 A  
HETATM    7  C   UNL     1      -7.016   5.503  62.706  1.00  0.00    -0.036 A  
HETATM    8  N   UNL     1      -8.046   4.605  62.743  1.00  0.00    -0.072 NA 
HETATM    9  C   UNL     1      -8.589   4.557  64.006  1.00  0.00    -0.133 A  
HETATM   10  H   UNL     1      -8.366   4.050  61.949  1.00  0.00     0.000 HD 
HETATM   11  C   UNL     1      -7.880   5.458  64.796  1.00  0.00    -0.103 A  
HETATM   12  C   UNL     1      -8.250   5.594  66.154  1.00  0.00    -0.110 A  
HETATM   13  C   UNL     1      -9.320   4.844  66.682  1.00  0.00    -0.140 A  
HETATM   14  C   UNL     1      -9.995   3.943  65.846  1.00  0.00    -0.086 A  
HETATM   15  C   UNL     1      -9.651   3.792  64.498  1.00  0.00    -0.171 A  
BRANCH  13  16
HETATM   16  C   UNL     1      -9.705   5.007  68.138  1.00  0.00    -0.148 C  
BRANCH  16  17
HETATM   17  S   UNL     1     -10.714   6.495  68.334  1.00  0.00    -0.293 S  
HETATM   18  O   UNL     1     -11.648   6.300  69.425  1.00  0.00    -0.403 OA 
HETATM   19  O   UNL     1     -11.158   6.965  67.041  1.00  0.00    -0.389 OA 
BRANCH  17  20
HETATM   20  N   UNL     1      -9.593   7.655  68.889  1.00  0.00    -0.150 N  
HETATM   21  C   UNL     1      -8.493   7.063  69.699  1.00  0.00    -0.134 C  
HETATM   22  C   UNL     1      -7.421   8.135  69.715  1.00  0.00    -0.084 C  
HETATM   23  C   UNL     1      -7.514   8.752  68.333  1.00  0.00    -0.091 C  
HETATM   24  C   UNL     1      -8.970   8.576  67.903  1.00  0.00    -0.137 C  
ENDBRANCH  17  20
ENDBRANCH  16  17
ENDBRANCH  13  16
ENDBRANCH   5   6
ENDBRANCH   4   5
ENDBRANCH   2   4
TORSDOF 6
ENDMDL
MODEL      267
REMARK 921   NORMALIZED FREE ENERGY PREDICTED BY IDOCK:   -2.54 KCAL/MOL
REMARK 922        TOTAL FREE ENERGY PREDICTED BY IDOCK:   -4.03 KCAL/MOL
REMARK 923 INTER-LIGAND FREE ENERGY PREDICTED BY IDOCK:   -3.72 KCAL/MOL
REMARK 924 INTRA-LIGAND FREE ENERGY PREDICTED BY IDOCK:   -0.30 KCAL/MOL
REMARK 927      BINDING AFFINITY PREDICTED BY RF-SCORE:    0.00 PKD
ROOT
HETATM    1  C   UNL     1      -6.607  15.539  69.190  1.00  0.00    -0.136 C  
HETATM    2  N   UNL     1      -8.010  15.790  68.841  1.00  0.00    -0.181 NA 
HETATM    3  C   UNL     1      -8.098  16.992  68.010  1.00  0.00    -0.204 C  
ENDROOT
BRANCH   2   4
HETATM    4  C   UNL     1      -8.563  14.601  68.158  1.00  0.00    -0.166 C  
BRANCH   4   5
HETATM    5  C   UNL     1      -7.872  13.268  68.505  1.00  0.00    -0.110 C  
BRANCH   5   6
HETATM    6  C   UNL     1      -8.505  12.110  67.791  1.00  0.00    -0.160 A  
HETATM    7  C   UNL     1      -8.416  11.840  66.437  1.00  0.00    -0.081 A  
HETATM    8  N   UNL     1      -9.168  10.731  66.169  1.00  0.00    -0.174 NA 
HETATM    9  C   UNL     1      -9.735  10.250  67.326  1.00  0.00    -0.166 A  
HETATM   10  H   UNL     1      -9.291  10.319  65.243  1.00  0.00     0.000 HD 
HETATM   11  C   UNL     1      -9.329  11.085  68.364  1.00  0.00    -0.179 A  
HETATM   12  C   UNL     1      -9.783  10.797  69.671  1.00  0.00     0.086 A  
HETATM   13  C   UNL     1     -10.636   9.701  69.908  1.00  0.00    -0.281 A  
HETATM   14  C   UNL     1     -11.006   8.885  68.829  1.00  0.00     0.057 A  
HETATM   15  C   UNL     1     -10.575   9.149  67.524  1.00  0.00    -0.317 A  
BRANCH  13  16
HETATM   16  C   UNL     1     -11.116   9.411  71.315  1.00  0.00    -0.376 C  
BRANCH  16  17
HETATM   17  S   UNL     1     -10.323   7.905  71.927  1.00  0.00    -0.229 S  
HETATM   18  O   UNL     1     -10.428   6.866  70.922  1.00  0.00    -0.209 OA 
HETATM   19  O   UNL     1     -10.712   7.665  73.299  1.00  0.00    -0.386 OA 
BRANCH  17  20
HETATM   20  N   UNL     1      -8.671   8.328  71.981  1.00  0.00    -0.164 N  
HETATM   21  C   UNL     1      -8.131   8.397  73.367  1.00  0.00    -0.103 C  
HETATM   22  C   UNL     1      -6.627   8.347  73.186  1.00  0.00    -0.113 C  
HETATM   23  C   UNL     1      -6.440   7.401  72.016  1.00  0.00    -0.043 C  
HETATM   24  C   UNL     1      -7.705   7.542  71.169  1.00  0.00    -0.089 C  
ENDBRANCH  17  20
ENDBRANCH  16  17
ENDBRANCH  13  16
ENDBRANCH   5   6
ENDBRANCH   4   5
ENDBRANCH   2   4
TORSDOF 6
ENDMDL
MODEL      268
REMARK 921   NORMALIZED FREE ENERGY PREDICTED BY IDOCK:   -2.32 KCAL/MOL
REMARK 922        TOTAL FREE ENERGY PREDICTED BY IDOCK:   -3.72 KCAL/MOL
REMARK 923 INTER-LIGAND FREE ENERGY PREDICTED BY IDOCK:   -3.50 KCAL/MOL
REMARK 924 INTRA-LIGAND FREE ENERGY PREDICTED BY IDOCK:   -0.23 KCAL/MOL
REMARK 927      BINDING AFFINITY PREDICTED BY RF-SCORE:    0.00 PKD
ROOT
HETATM    1  C   UNL     1      -8.137   8.461  73.778  1.00  0.00    -0.116 C  
HETATM    2  N   UNL     1      -8.768   8.157  72.488  1.00  0.00    -0.184 NA 
HETATM    3  C   UNL     1     -10.018   8.911  72.368  1.00  0.00     0.002 C  
ENDROOT
BRANCH   2   4
HETATM    4  C   UNL     1      -7.823   8.474  71.396  1.00  0.00    -0.126 C  
BRANCH   4   5
HETATM    5  C   UNL     1      -7.073   7.261  70.811  1.00  0.00    -0.065 C  
BRANCH   5   6
HETATM    6  C   UNL     1      -7.874   6.570  69.747  1.00  0.00    -0.115 A  
HETATM    7  C   UNL     1      -7.742   5.250  69.356  1.00  0.00    -0.080 A  
HETATM    8  N   UNL     1      -8.612   5.016  68.328  1.00  0.00    -0.102 NA 
HETATM    9  C   UNL     1      -9.333   6.153  68.048  1.00  0.00    -0.114 A  
HETATM   10  H   UNL     1      -8.712   4.126  67.839  1.00  0.00     0.000 HD 
HETATM   11  C   UNL     1      -8.904   7.143  68.929  1.00  0.00    -0.130 A  
HETATM   12  C   UNL     1      -9.502   8.421  68.843  1.00  0.00    -0.147 A  
HETATM   13  C   UNL     1     -10.496   8.683  67.880  1.00  0.00    -0.269 A  
HETATM   14  C   UNL     1     -10.900   7.648  67.024  1.00  0.00    -0.219 A  
HETATM   15  C   UNL     1     -10.322   6.375  67.085  1.00  0.00    -0.293 A  
BRANCH  13  16
HETATM   16  C   UNL     1     -11.122  10.060  67.801  1.00  0.00    -0.180 C  
BRANCH  16  17
HETATM   17  S   UNL     1     -10.268  11.041  66.543  1.00  0.00    -0.241 S  
HETATM   18  O   UNL     1     -10.323  12.442  66.910  1.00  0.00    -0.222 OA 
HETATM   19  O   UNL     1     -10.655  10.595  65.223  1.00  0.00    -0.231 OA 
BRANCH  17  20
HETATM   20  N   UNL     1      -8.637  10.579  66.729  1.00  0.00    -0.125 N  
HETATM   21  C   UNL     1      -7.953  10.317  65.433  1.00  0.00    -0.148 C  
HETATM   22  C   UNL     1      -6.476  10.359  65.773  1.00  0.00    -0.123 C  
HETATM   23  C   UNL     1      -6.384  11.445  66.827  1.00  0.00    -0.142 C  
HETATM   24  C   UNL     1      -7.737  11.444  67.537  1.00  0.00    -0.125 C  
ENDBRANCH  17  20
ENDBRANCH  16  17
ENDBRANCH  13  16
ENDBRANCH   5   6
ENDBRANCH   4   5
ENDBRANCH   2   4
TORSDOF 6
ENDMDL
MODEL      269
REMARK 921   NORMALIZED FREE ENERGY PREDICTED BY IDOCK:   -2.30 KCAL/MOL
REMARK 922        TOTAL FREE ENERGY PREDICTED BY IDOCK:   -3.69 KCAL/MOL
REMARK 923 INTER-LIGAND FREE ENERGY PREDICTED BY IDOCK:   -3.46 KCAL/MOL
REMARK 924 INTRA-LIGAND FREE ENERGY PREDICTED BY IDOCK:   -0.24 KCAL/MOL
REMARK 927      BINDING AFFINITY PREDICTED BY RF-SCORE:    0.00 PKD
ROOT
HETATM    1  C   UNL     1      -8.125  15.394  66.714  1.00  0.00    -0.177 C  
HETATM    2  N   UNL     1      -8.872  14.540  67.645  1.00  0.00    -0.179 NA 
HETATM    3  C   UNL     1     -10.219  15.084  67.830  1.00  0.00    -0.236 C  
ENDROOT
BRANCH   2   4
HETATM    4  C   UNL     1      -8.898  13.157  67.124  1.00  0.00    -0.222 C  
BRANCH   4   5
HETATM    5  C   UNL     1     -10.274  12.676  66.622  1.00  0.00    -0.246 C  
BRANCH   5   6
HETATM    6  C   UNL     1     -10.949  11.780  67.620  1.00  0.00    -0.286 A  
HETATM    7  C   UNL     1     -12.239  11.921  68.099  1.00  0.00     0.286 A  
HETATM    8  N   UNL     1     -12.463  10.942  69.026  1.00  0.00    -0.694 NA 
HETATM    9  C   UNL     1     -11.351  10.144  69.152  1.00  0.00    -0.143 A  
HETATM   10  H   UNL     1     -13.331  10.822  69.550  1.00  0.00     0.000 HD 
HETATM   11  C   UNL     1     -10.387  10.635  68.275  1.00  0.00    -0.201 A  
HETATM   12  C   UNL     1      -9.137   9.976  68.215  1.00  0.00    -0.122 A  
HETATM   13  C   UNL     1      -8.877   8.860  69.036  1.00  0.00    -0.136 A  
HETATM   14  C   UNL     1      -9.886   8.400  69.894  1.00  0.00    -0.186 A  
HETATM   15  C   UNL     1     -11.130   9.035  69.976  1.00  0.00    -0.197 A  
BRANCH  13  16
HETATM   16  C   UNL     1      -7.531   8.170  68.961  1.00  0.00    -0.088 C  
BRANCH  16  17
HETATM   17  S   UNL     1      -6.569   8.558  70.444  1.00  0.00    -0.038 S  
HETATM   18  O   UNL     1      -7.162   9.699  71.114  1.00  0.00    -0.328 OA 
HETATM   19  O   UNL     1      -5.156   8.516  70.140  1.00  0.00    -0.022 OA 
BRANCH  17  20
HETATM   20  N   UNL     1      -6.865   7.222  71.462  1.00  0.00    -0.054 N  
HETATM   21  C   UNL     1      -5.850   6.143  71.317  1.00  0.00    -0.027 C  
HETATM   22  C   UNL     1      -6.027   5.293  72.560  1.00  0.00    -0.026 C  
HETATM   23  C   UNL     1      -6.361   6.304  73.638  1.00  0.00    -0.065 C  
HETATM   24  C   UNL     1      -7.053   7.460  72.917  1.00  0.00    -0.069 C  
ENDBRANCH  17  20
ENDBRANCH  16  17
ENDBRANCH  13  16
ENDBRANCH   5   6
ENDBRANCH   4   5
ENDBRANCH   2   4
TORSDOF 6
ENDMDL
MODEL      270
REMARK 921   NORMALIZED FREE ENERGY PREDICTED BY IDOCK:   -2.28 KCAL/MOL
REMARK 922        TOTAL FREE ENERGY PREDICTED BY IDOCK:   -3.67 KCAL/MOL
REMARK 923 INTER-LIGAND FREE ENERGY PREDICTED BY IDOCK:   -3.63 KCAL/MOL
REMARK 924 INTRA-LIGAND FREE ENERGY PREDICTED BY IDOCK:   -0.03 KCAL/MOL
REMARK 927      BINDING AFFINITY PREDICTED BY RF-SCORE:    0.00 PKD
ROOT
HETATM    1  C   UNL     1      -5.462  14.447  68.505  1.00  0.00    -0.099 C  
HETATM    2  N   UNL     1      -6.224  13.393  69.184  1.00  0.00    -0.092 NA 
HETATM    3  C   UNL     1      -5.820  13.329  70.590  1.00  0.00    -0.150 C  
ENDROOT
BRANCH   2   4
HETATM    4  C   UNL     1      -7.669  13.661  69.033  1.00  0.00     0.087 C  
BRANCH   4   5
HETATM    5  C   UNL     1      -8.032  14.693  67.947  1.00  0.00    -0.149 C  
BRANCH   5   6
HETATM    6  C   UNL     1      -8.939  14.108  66.903  1.00  0.00    -0.247 A  
HETATM    7  C   UNL     1      -9.422  14.763  65.785  1.00  0.00    -0.174 A  
HETATM    8  N   UNL     1     -10.253  13.911  65.113  1.00  0.00    -0.478 NA 
HETATM    9  C   UNL     1     -10.309  12.696  65.756  1.00  0.00    -0.279 A  
HETATM   10  H   UNL     1     -10.759  14.142  64.258  1.00  0.00     0.000 HD 
HETATM   11  C   UNL     1      -9.485  12.783  66.876  1.00  0.00    -0.235 A  
HETATM   12  C   UNL     1      -9.370  11.648  67.712  1.00  0.00    -0.178 A  
HETATM   13  C   UNL     1     -10.083  10.469  67.419  1.00  0.00    -0.236 A  
HETATM   14  C   UNL     1     -10.891  10.431  66.273  1.00  0.00    -0.022 A  
HETATM   15  C   UNL     1     -11.026  11.540  65.431  1.00  0.00    -0.288 A  
BRANCH  13  16
HETATM   16  C   UNL     1      -9.951   9.265  68.329  1.00  0.00    -0.173 C  
BRANCH  16  17
HETATM   17  S   UNL     1      -8.282   8.581  68.188  1.00  0.00    -0.120 S  
HETATM   18  O   UNL     1      -7.553   8.842  69.414  1.00  0.00    -0.078 OA 
HETATM   19  O   UNL     1      -7.722   8.908  66.896  1.00  0.00    -0.096 OA 
BRANCH  17  20
HETATM   20  N   UNL     1      -8.552   6.897  68.163  1.00  0.00    -0.124 N  
HETATM   21  C   UNL     1      -9.888   6.528  67.619  1.00  0.00    -0.125 C  
HETATM   22  C   UNL     1      -9.761   5.056  67.280  1.00  0.00    -0.182 C  
HETATM   23  C   UNL     1      -8.335   4.927  66.782  1.00  0.00    -0.107 C  
HETATM   24  C   UNL     1      -7.548   6.022  67.501  1.00  0.00    -0.090 C  
ENDBRANCH  17  20
ENDBRANCH  16  17
ENDBRANCH  13  16
ENDBRANCH   5   6
ENDBRANCH   4   5
ENDBRANCH   2   4
TORSDOF 6
ENDMDL
MODEL      271
REMARK 921   NORMALIZED FREE ENERGY PREDICTED BY IDOCK:   -2.25 KCAL/MOL
REMARK 922        TOTAL FREE ENERGY PREDICTED BY IDOCK:   -3.62 KCAL/MOL
REMARK 923 INTER-LIGAND FREE ENERGY PREDICTED BY IDOCK:   -4.08 KCAL/MOL
REMARK 924 INTRA-LIGAND FREE ENERGY PREDICTED BY IDOCK:    0.46 KCAL/MOL
REMARK 927      BINDING AFFINITY PREDICTED BY RF-SCORE:    0.00 PKD
ROOT
HETATM    1  C   UNL     1     -10.083  18.459  68.313  1.00  0.00    -0.383 C  
HETATM    2  N   UNL     1      -9.643  18.782  66.951  1.00  0.00    -0.298 NA 
HETATM    3  C   UNL     1     -10.682  19.562  66.275  1.00  0.00    -0.429 C  
ENDROOT
BRANCH   2   4
HETATM    4  C   UNL     1      -8.357  19.509  67.013  1.00  0.00    -0.287 C  
BRANCH   4   5
HETATM    5  C   UNL     1      -7.114  18.666  66.664  1.00  0.00    -0.235 C  
BRANCH   5   6
HETATM    6  C   UNL     1      -6.730  17.749  67.789  1.00  0.00    -0.190 A  
HETATM    7  C   UNL     1      -5.907  18.066  68.855  1.00  0.00    -0.201 A  
HETATM    8  N   UNL     1      -5.761  16.951  69.632  1.00  0.00    -0.191 NA 
HETATM    9  C   UNL     1      -6.492  15.909  69.111  1.00  0.00    -0.152 A  
HETATM   10  H   UNL     1      -5.192  16.900  70.478  1.00  0.00     0.000 HD 
HETATM   11  C   UNL     1      -7.122  16.380  67.961  1.00  0.00    -0.146 A  
HETATM   12  C   UNL     1      -7.943  15.487  67.235  1.00  0.00    -0.233 A  
HETATM   13  C   UNL     1      -8.104  14.154  67.662  1.00  0.00    -0.188 A  
HETATM   14  C   UNL     1      -7.456  13.734  68.833  1.00  0.00    -0.056 A  
HETATM   15  C   UNL     1      -6.634  14.595  69.568  1.00  0.00    -0.149 A  
BRANCH  13  16
HETATM   16  C   UNL     1      -8.984  13.211  66.868  1.00  0.00    -0.209 C  
BRANCH  16  17
HETATM   17  S   UNL     1      -9.053  11.605  67.697  1.00  0.00    -0.180 S  
HETATM   18  O   UNL     1      -9.693  10.642  66.822  1.00  0.00    -0.176 OA 
HETATM   19  O   UNL     1      -9.481  11.775  69.068  1.00  0.00    -0.000 OA 
BRANCH  17  20
HETATM   20  N   UNL     1      -7.415  11.137  67.778  1.00  0.00    -0.092 N  
HETATM   21  C   UNL     1      -7.198   9.910  68.593  1.00  0.00    -0.072 C  
HETATM   22  C   UNL     1      -5.817   9.432  68.189  1.00  0.00    -0.037 C  
HETATM   23  C   UNL     1      -5.747   9.754  66.710  1.00  0.00    -0.050 C  
HETATM   24  C   UNL     1      -6.657  10.965  66.510  1.00  0.00    -0.127 C  
ENDBRANCH  17  20
ENDBRANCH  16  17
ENDBRANCH  13  16
ENDBRANCH   5   6
ENDBRANCH   4   5
ENDBRANCH   2   4
TORSDOF 6
ENDMDL
MODEL      272
REMARK 921   NORMALIZED FREE ENERGY PREDICTED BY IDOCK:   -2.25 KCAL/MOL
REMARK 922        TOTAL FREE ENERGY PREDICTED BY IDOCK:   -3.62 KCAL/MOL
REMARK 923 INTER-LIGAND FREE ENERGY PREDICTED BY IDOCK:   -2.98 KCAL/MOL
REMARK 924 INTRA-LIGAND FREE ENERGY PREDICTED BY IDOCK:   -0.64 KCAL/MOL
REMARK 927      BINDING AFFINITY PREDICTED BY RF-SCORE:    0.00 PKD
ROOT
HETATM    1  C   UNL     1     -10.552  10.665  65.107  1.00  0.00    -0.120 C  
HETATM    2  N   UNL     1      -9.146  10.433  64.757  1.00  0.00    -0.196 NA 
HETATM    3  C   UNL     1      -8.287  11.201  65.661  1.00  0.00     0.002 C  
ENDROOT
BRANCH   2   4
HETATM    4  C   UNL     1      -8.860   8.984  64.817  1.00  0.00    -0.122 C  
BRANCH   4   5
HETATM    5  C   UNL     1      -7.585   8.603  65.593  1.00  0.00    -0.086 C  
BRANCH   5   6
HETATM    6  C   UNL     1      -7.754   7.313  66.342  1.00  0.00    -0.093 A  
HETATM    7  C   UNL     1      -8.471   6.210  65.914  1.00  0.00    -0.145 A  
HETATM    8  N   UNL     1      -8.428   5.261  66.897  1.00  0.00    -0.107 NA 
HETATM    9  C   UNL     1      -7.675   5.708  67.957  1.00  0.00    -0.089 A  
HETATM   10  H   UNL     1      -8.888   4.351  66.850  1.00  0.00     0.000 HD 
HETATM   11  C   UNL     1      -7.227   6.987  67.636  1.00  0.00    -0.091 A  
HETATM   12  C   UNL     1      -6.421   7.670  68.576  1.00  0.00    -0.048 A  
HETATM   13  C   UNL     1      -6.096   7.071  69.809  1.00  0.00    -0.027 A  
HETATM   14  C   UNL     1      -6.564   5.777  70.078  1.00  0.00    -0.043 A  
HETATM   15  C   UNL     1      -7.366   5.080  69.168  1.00  0.00    -0.057 A  
BRANCH  13  16
HETATM   16  C   UNL     1      -5.235   7.820  70.805  1.00  0.00    -0.023 C  
BRANCH  16  17
HETATM   17  S   UNL     1      -6.226   9.092  71.625  1.00  0.00    -0.018 S  
HETATM   18  O   UNL     1      -6.340  10.246  70.754  1.00  0.00    -0.233 OA 
HETATM   19  O   UNL     1      -5.811   9.230  73.003  1.00  0.00    -0.267 OA 
BRANCH  17  20
HETATM   20  N   UNL     1      -7.784   8.399  71.677  1.00  0.00    -0.105 N  
HETATM   21  C   UNL     1      -8.222   8.052  73.057  1.00  0.00    -0.179 C  
HETATM   22  C   UNL     1      -9.724   7.878  72.940  1.00  0.00    -0.339 C  
HETATM   23  C   UNL     1     -10.127   8.933  71.928  1.00  0.00    -0.393 C  
HETATM   24  C   UNL     1      -8.909   9.120  71.024  1.00  0.00    -0.202 C  
ENDBRANCH  17  20
ENDBRANCH  16  17
ENDBRANCH  13  16
ENDBRANCH   5   6
ENDBRANCH   4   5
ENDBRANCH   2   4
TORSDOF 6
ENDMDL
MODEL      273
REMARK 921   NORMALIZED FREE ENERGY PREDICTED BY IDOCK:   -2.18 KCAL/MOL
REMARK 922        TOTAL FREE ENERGY PREDICTED BY IDOCK:   -3.53 KCAL/MOL
REMARK 923 INTER-LIGAND FREE ENERGY PREDICTED BY IDOCK:   -3.40 KCAL/MOL
REMARK 924 INTRA-LIGAND FREE ENERGY PREDICTED BY IDOCK:   -0.13 KCAL/MOL
REMARK 927      BINDING AFFINITY PREDICTED BY RF-SCORE:    0.00 PKD
ROOT
HETATM    1  C   UNL     1      -6.818  10.910  69.974  1.00  0.00    -0.088 C  
HETATM    2  N   UNL     1      -7.299   9.745  69.223  1.00  0.00    -0.076 NA 
HETATM    3  C   UNL     1      -6.385   8.620  69.433  1.00  0.00    -0.041 C  
ENDROOT
BRANCH   2   4
HETATM    4  C   UNL     1      -8.678   9.425  69.647  1.00  0.00    -0.167 C  
BRANCH   4   5
HETATM    5  C   UNL     1      -9.788  10.101  68.819  1.00  0.00    -0.180 C  
BRANCH   5   6
HETATM    6  C   UNL     1      -9.384  10.278  67.384  1.00  0.00    -0.163 A  
HETATM    7  C   UNL     1      -9.290  11.480  66.706  1.00  0.00    -0.181 A  
HETATM    8  N   UNL     1      -8.943  11.218  65.411  1.00  0.00    -0.343 NA 
HETATM    9  C   UNL     1      -8.783   9.865  65.226  1.00  0.00    -0.160 A  
HETATM   10  H   UNL     1      -8.820  11.925  64.685  1.00  0.00     0.000 HD 
HETATM   11  C   UNL     1      -9.039   9.247  66.448  1.00  0.00    -0.200 A  
HETATM   12  C   UNL     1      -8.938   7.839  66.521  1.00  0.00    -0.191 A  
HETATM   13  C   UNL     1      -8.599   7.086  65.380  1.00  0.00    -0.048 A  
HETATM   14  C   UNL     1      -8.340   7.758  64.176  1.00  0.00     0.073 A  
HETATM   15  C   UNL     1      -8.436   9.150  64.075  1.00  0.00    -0.195 A  
BRANCH  13  16
HETATM   16  C   UNL     1      -8.500   5.578  65.476  1.00  0.00    -0.144 C  
BRANCH  16  17
HETATM   17  S   UNL     1     -10.120   4.890  65.892  1.00  0.00    -0.193 S  
HETATM   18  O   UNL     1     -10.630   4.146  64.757  1.00  0.00    -0.251 OA 
HETATM   19  O   UNL     1     -10.925   5.891  66.557  1.00  0.00    -0.250 OA 
BRANCH  17  20
HETATM   20  N   UNL     1      -9.755   3.723  67.081  1.00  0.00    -0.174 N  
HETATM   21  C   UNL     1      -8.928   2.600  66.561  1.00  0.00    -0.139 C  
HETATM   22  C   UNL     1      -8.366   1.941  67.806  1.00  0.00    -0.081 C  
HETATM   23  C   UNL     1      -8.113   3.107  68.742  1.00  0.00    -0.072 C  
HETATM   24  C   UNL     1      -9.140   4.171  68.358  1.00  0.00    -0.132 C  
ENDBRANCH  17  20
ENDBRANCH  16  17
ENDBRANCH  13  16
ENDBRANCH   5   6
ENDBRANCH   4   5
ENDBRANCH   2   4
TORSDOF 6
ENDMDL
MODEL      274
REMARK 921   NORMALIZED FREE ENERGY PREDICTED BY IDOCK:   -2.16 KCAL/MOL
REMARK 922        TOTAL FREE ENERGY PREDICTED BY IDOCK:   -3.50 KCAL/MOL
REMARK 923 INTER-LIGAND FREE ENERGY PREDICTED BY IDOCK:   -4.90 KCAL/MOL
REMARK 924 INTRA-LIGAND FREE ENERGY PREDICTED BY IDOCK:    1.40 KCAL/MOL
REMARK 927      BINDING AFFINITY PREDICTED BY RF-SCORE:    0.00 PKD
ROOT
HETATM    1  C   UNL     1      -7.893  15.626  66.804  1.00  0.00    -0.176 C  
HETATM    2  N   UNL     1      -8.598  14.708  67.707  1.00  0.00    -0.164 NA 
HETATM    3  C   UNL     1      -9.880  15.298  68.097  1.00  0.00    -0.217 C  
ENDROOT
BRANCH   2   4
HETATM    4  C   UNL     1      -8.770  13.401  67.037  1.00  0.00    -0.187 C  
BRANCH   4   5
HETATM    5  C   UNL     1     -10.232  12.983  66.790  1.00  0.00    -0.246 C  
BRANCH   5   6
HETATM    6  C   UNL     1     -10.918  12.574  68.062  1.00  0.00    -0.266 A  
HETATM    7  C   UNL     1     -11.793  13.350  68.801  1.00  0.00    -0.351 A  
HETATM    8  N   UNL     1     -12.160  12.644  69.912  1.00  0.00    -0.287 NA 
HETATM    9  C   UNL     1     -11.560  11.406  69.909  1.00  0.00    -0.323 A  
HETATM   10  H   UNL     1     -12.788  12.986  70.640  1.00  0.00     0.000 HD 
HETATM   11  C   UNL     1     -10.784  11.326  68.755  1.00  0.00    -0.240 A  
HETATM   12  C   UNL     1     -10.059  10.136  68.517  1.00  0.00    -0.186 A  
HETATM   13  C   UNL     1     -10.114   9.068  69.435  1.00  0.00    -0.198 A  
HETATM   14  C   UNL     1     -10.919   9.197  70.576  1.00  0.00    -0.307 A  
HETATM   15  C   UNL     1     -11.644  10.365  70.838  1.00  0.00    -0.428 A  
BRANCH  13  16
HETATM   16  C   UNL     1      -9.327   7.803  69.166  1.00  0.00    -0.151 C  
BRANCH  16  17
HETATM   17  S   UNL     1      -8.517   7.258  70.688  1.00  0.00    -0.142 S  
HETATM   18  O   UNL     1      -8.317   8.399  71.560  1.00  0.00    -0.127 OA 
HETATM   19  O   UNL     1      -7.433   6.354  70.375  1.00  0.00    -0.089 OA 
BRANCH  17  20
HETATM   20  N   UNL     1      -9.712   6.304  71.446  1.00  0.00    -0.173 N  
HETATM   21  C   UNL     1      -9.638   4.866  71.065  1.00  0.00    -0.174 C  
HETATM   22  C   UNL     1     -10.449   4.155  72.130  1.00  0.00    -0.105 C  
HETATM   23  C   UNL     1     -10.147   4.941  73.392  1.00  0.00    -0.199 C  
HETATM   24  C   UNL     1      -9.842   6.364  72.925  1.00  0.00    -0.167 C  
ENDBRANCH  17  20
ENDBRANCH  16  17
ENDBRANCH  13  16
ENDBRANCH   5   6
ENDBRANCH   4   5
ENDBRANCH   2   4
TORSDOF 6
ENDMDL
MODEL      275
REMARK 921   NORMALIZED FREE ENERGY PREDICTED BY IDOCK:   -1.99 KCAL/MOL
REMARK 922        TOTAL FREE ENERGY PREDICTED BY IDOCK:   -3.27 KCAL/MOL
REMARK 923 INTER-LIGAND FREE ENERGY PREDICTED BY IDOCK:   -3.00 KCAL/MOL
REMARK 924 INTRA-LIGAND FREE ENERGY PREDICTED BY IDOCK:   -0.27 KCAL/MOL
REMARK 927      BINDING AFFINITY PREDICTED BY RF-SCORE:    0.00 PKD
ROOT
HETATM    1  C   UNL     1      -8.569   6.068  72.710  1.00  0.00    -0.124 C  
HETATM    2  N   UNL     1      -9.643   5.072  72.625  1.00  0.00    -0.140 NA 
HETATM    3  C   UNL     1     -10.543   5.227  73.770  1.00  0.00    -0.287 C  
ENDROOT
BRANCH   2   4
HETATM    4  C   UNL     1     -10.351   5.226  71.337  1.00  0.00    -0.221 C  
BRANCH   4   5
HETATM    5  C   UNL     1     -11.849   5.571  71.454  1.00  0.00     0.666 C  
BRANCH   5   6
HETATM    6  C   UNL     1     -12.069   7.045  71.632  1.00  0.00    -0.384 A  
HETATM    7  C   UNL     1     -12.845   7.640  72.610  1.00  0.00     0.354 A  
HETATM    8  N   UNL     1     -12.834   8.992  72.405  1.00  0.00    -0.401 NA 
HETATM    9  C   UNL     1     -12.045   9.301  71.321  1.00  0.00    -0.337 A  
HETATM   10  H   UNL     1     -13.337   9.673  72.974  1.00  0.00     0.000 HD 
HETATM   11  C   UNL     1     -11.541   8.103  70.821  1.00  0.00    -0.249 A  
HETATM   12  C   UNL     1     -10.690   8.154  69.693  1.00  0.00    -0.196 A  
HETATM   13  C   UNL     1     -10.376   9.387  69.088  1.00  0.00    -0.221 A  
HETATM   14  C   UNL     1     -10.902  10.565  69.638  1.00  0.00    -0.320 A  
HETATM   15  C   UNL     1     -11.750  10.544  70.751  1.00  0.00    -0.454 A  
BRANCH  13  16
HETATM   16  C   UNL     1      -9.466   9.421  67.878  1.00  0.00    -0.132 C  
BRANCH  16  17
HETATM   17  S   UNL     1      -7.839  10.047  68.361  1.00  0.00    -0.090 S  
HETATM   18  O   UNL     1      -7.516   9.566  69.689  1.00  0.00    -0.073 OA 
HETATM   19  O   UNL     1      -7.729  11.449  68.022  1.00  0.00    -0.103 OA 
BRANCH  17  20
HETATM   20  N   UNL     1      -6.778   9.231  67.304  1.00  0.00    -0.068 N  
HETATM   21  C   UNL     1      -6.393   7.879  67.795  1.00  0.00    -0.052 C  
HETATM   22  C   UNL     1      -5.840   7.179  66.569  1.00  0.00    -0.034 C  
HETATM   23  C   UNL     1      -6.712   7.695  65.441  1.00  0.00    -0.045 C  
HETATM   24  C   UNL     1      -7.161   9.089  65.874  1.00  0.00    -0.089 C  
ENDBRANCH  17  20
ENDBRANCH  16  17
ENDBRANCH  13  16
ENDBRANCH   5   6
ENDBRANCH   4   5
ENDBRANCH   2   4
TORSDOF 6
ENDMDL
MODEL      276
REMARK 921   NORMALIZED FREE ENERGY PREDICTED BY IDOCK:   -1.84 KCAL/MOL
REMARK 922        TOTAL FREE ENERGY PREDICTED BY IDOCK:   -3.08 KCAL/MOL
REMARK 923 INTER-LIGAND FREE ENERGY PREDICTED BY IDOCK:   -2.47 KCAL/MOL
REMARK 924 INTRA-LIGAND FREE ENERGY PREDICTED BY IDOCK:   -0.61 KCAL/MOL
REMARK 927      BINDING AFFINITY PREDICTED BY RF-SCORE:    0.00 PKD
ROOT
HETATM    1  C   UNL     1      -8.813   7.481  74.265  1.00  0.00    -0.199 C  
HETATM    2  N   UNL     1      -8.952   6.294  73.413  1.00  0.00    -0.125 NA 
HETATM    3  C   UNL     1     -10.229   6.355  72.698  1.00  0.00    -0.182 C  
ENDROOT
BRANCH   2   4
HETATM    4  C   UNL     1      -7.802   6.221  72.487  1.00  0.00    -0.102 C  
BRANCH   4   5
HETATM    5  C   UNL     1      -6.920   4.966  72.641  1.00  0.00    -0.076 C  
BRANCH   5   6
HETATM    6  C   UNL     1      -7.320   3.883  71.682  1.00  0.00    -0.054 A  
HETATM    7  C   UNL     1      -7.916   2.680  72.015  1.00  0.00    -0.054 A  
HETATM    8  N   UNL     1      -8.074   1.947  70.872  1.00  0.00    -0.048 NA 
HETATM    9  C   UNL     1      -7.614   2.655  69.787  1.00  0.00    -0.043 A  
HETATM   10  H   UNL     1      -8.477   1.010  70.830  1.00  0.00     0.000 HD 
HETATM   11  C   UNL     1      -7.145   3.879  70.259  1.00  0.00    -0.041 A  
HETATM   12  C   UNL     1      -6.615   4.798  69.325  1.00  0.00    -0.040 A  
HETATM   13  C   UNL     1      -6.553   4.472  67.956  1.00  0.00    -0.043 A  
HETATM   14  C   UNL     1      -7.048   3.230  67.531  1.00  0.00    -0.054 A  
HETATM   15  C   UNL     1      -7.574   2.300  68.434  1.00  0.00    -0.050 A  
BRANCH  13  16
HETATM   16  C   UNL     1      -5.977   5.468  66.971  1.00  0.00    -0.018 C  
BRANCH  16  17
HETATM   17  S   UNL     1      -7.122   6.854  66.772  1.00  0.00    -0.077 S  
HETATM   18  O   UNL     1      -7.357   7.083  65.359  1.00  0.00    -0.073 OA 
HETATM   19  O   UNL     1      -6.748   7.935  67.655  1.00  0.00    -0.064 OA 
BRANCH  17  20
HETATM   20  N   UNL     1      -8.589   6.239  67.388  1.00  0.00    -0.108 N  
HETATM   21  C   UNL     1      -9.268   7.177  68.324  1.00  0.00    -0.132 C  
HETATM   22  C   UNL     1     -10.692   6.663  68.402  1.00  0.00    -0.314 C  
HETATM   23  C   UNL     1     -10.972   6.173  66.995  1.00  0.00    -0.414 C  
HETATM   24  C   UNL     1      -9.617   5.749  66.431  1.00  0.00    -0.153 C  
ENDBRANCH  17  20
ENDBRANCH  16  17
ENDBRANCH  13  16
ENDBRANCH   5   6
ENDBRANCH   4   5
ENDBRANCH   2   4
TORSDOF 6
ENDMDL
MODEL      277
REMARK 921   NORMALIZED FREE ENERGY PREDICTED BY IDOCK:   -0.89 KCAL/MOL
REMARK 922        TOTAL FREE ENERGY PREDICTED BY IDOCK:   -1.79 KCAL/MOL
REMARK 923 INTER-LIGAND FREE ENERGY PREDICTED BY IDOCK:   -2.56 KCAL/MOL
REMARK 924 INTRA-LIGAND FREE ENERGY PREDICTED BY IDOCK:    0.78 KCAL/MOL
REMARK 927      BINDING AFFINITY PREDICTED BY RF-SCORE:    0.00 PKD
ROOT
HETATM    1  C   UNL     1      -5.588  13.324  69.392  1.00  0.00    -0.083 C  
HETATM    2  N   UNL     1      -6.062  11.938  69.304  1.00  0.00    -0.078 NA 
HETATM    3  C   UNL     1      -5.549  11.175  70.444  1.00  0.00    -0.124 C  
ENDROOT
BRANCH   2   4
HETATM    4  C   UNL     1      -7.539  11.930  69.251  1.00  0.00     0.215 C  
BRANCH   4   5
HETATM    5  C   UNL     1      -8.165  13.014  68.351  1.00  0.00    -0.123 C  
BRANCH   5   6
HETATM    6  C   UNL     1      -8.892  12.416  67.182  1.00  0.00    -0.197 A  
HETATM    7  C   UNL     1      -9.420  13.111  66.109  1.00  0.00    -0.145 A  
HETATM    8  N   UNL     1     -10.046  12.218  65.284  1.00  0.00    -0.276 NA 
HETATM    9  C   UNL     1      -9.920  10.943  65.781  1.00  0.00    -0.247 A  
HETATM   10  H   UNL     1     -10.535  12.463  64.423  1.00  0.00     0.000 HD 
HETATM   11  C   UNL     1      -9.190  11.030  66.965  1.00  0.00    -0.164 A  
HETATM   12  C   UNL     1      -8.922   9.837  67.676  1.00  0.00    -0.133 A  
HETATM   13  C   UNL     1      -9.395   8.599  67.200  1.00  0.00    -0.190 A  
HETATM   14  C   UNL     1     -10.116   8.565  65.997  1.00  0.00     0.098 A  
HETATM   15  C   UNL     1     -10.399   9.730  65.275  1.00  0.00     0.227 A  
BRANCH  13  16
HETATM   16  C   UNL     1      -9.102   7.332  67.977  1.00  0.00    -0.133 C  
BRANCH  16  17
HETATM   17  S   UNL     1     -10.603   6.330  68.091  1.00  0.00    -0.286 S  
HETATM   18  O   UNL     1     -11.615   6.881  67.211  1.00  0.00     0.048 OA 
HETATM   19  O   UNL     1     -10.895   6.032  69.476  1.00  0.00    -0.297 OA 
BRANCH  17  20
HETATM   20  N   UNL     1     -10.137   4.848  67.386  1.00  0.00    -0.170 N  
HETATM   21  C   UNL     1     -10.595   4.704  65.976  1.00  0.00    -0.200 C  
HETATM   22  C   UNL     1      -9.742   3.582  65.419  1.00  0.00    -0.093 C  
HETATM   23  C   UNL     1      -8.397   3.791  66.086  1.00  0.00    -0.109 C  
HETATM   24  C   UNL     1      -8.704   4.457  67.427  1.00  0.00    -0.105 C  
ENDBRANCH  17  20
ENDBRANCH  16  17
ENDBRANCH  13  16
ENDBRANCH   5   6
ENDBRANCH   4   5
ENDBRANCH   2   4
TORSDOF 6
ENDMDL
MODEL      278
REMARK 921   NORMALIZED FREE ENERGY PREDICTED BY IDOCK:    0.01 KCAL/MOL
REMARK 922        TOTAL FREE ENERGY PREDICTED BY IDOCK:   -0.58 KCAL/MOL
REMARK 923 INTER-LIGAND FREE ENERGY PREDICTED BY IDOCK:   -0.16 KCAL/MOL
REMARK 924 INTRA-LIGAND FREE ENERGY PREDICTED BY IDOCK:   -0.42 KCAL/MOL
REMARK 927      BINDING AFFINITY PREDICTED BY RF-SCORE:    0.00 PKD
ROOT
HETATM    1  C   UNL     1      -6.244  13.484  70.466  1.00  0.00     0.006 C  
HETATM    2  N   UNL     1      -5.128  12.980  71.275  1.00  0.00    -0.157 NA 
HETATM    3  C   UNL     1      -5.244  13.496  72.640  1.00  0.00    -0.069 C  
ENDROOT
BRANCH   2   4
HETATM    4  C   UNL     1      -5.128  11.502  71.239  1.00  0.00    -0.096 C  
BRANCH   4   5
HETATM    5  C   UNL     1      -6.475  10.858  70.858  1.00  0.00     0.522 C  
BRANCH   5   6
HETATM    6  C   UNL     1      -6.379  10.078  69.580  1.00  0.00    -0.049 A  
HETATM    7  C   UNL     1      -5.503  10.325  68.538  1.00  0.00    -0.038 A  
HETATM    8  N   UNL     1      -5.760   9.431  67.537  1.00  0.00    -0.041 NA 
HETATM    9  C   UNL     1      -6.777   8.582  67.908  1.00  0.00    -0.066 A  
HETATM   10  H   UNL     1      -5.269   9.398  66.643  1.00  0.00     0.000 HD 
HETATM   11  C   UNL     1      -7.179   8.953  69.189  1.00  0.00    -0.067 A  
HETATM   12  C   UNL     1      -8.223   8.223  69.801  1.00  0.00    -0.121 A  
HETATM   13  C   UNL     1      -8.845   7.157  69.121  1.00  0.00    -0.135 A  
HETATM   14  C   UNL     1      -8.395   6.818  67.837  1.00  0.00    -0.120 A  
HETATM   15  C   UNL     1      -7.367   7.526  67.206  1.00  0.00    -0.098 A  
BRANCH  13  16
HETATM   16  C   UNL     1      -9.966   6.389  69.791  1.00  0.00    -0.166 C  
BRANCH  16  17
HETATM   17  S   UNL     1      -9.272   5.028  70.759  1.00  0.00    -0.151 S  
HETATM   18  O   UNL     1      -7.940   5.387  71.205  1.00  0.00    -0.104 OA 
HETATM   19  O   UNL     1      -9.527   3.769  70.095  1.00  0.00    -0.159 OA 
BRANCH  17  20
HETATM   20  N   UNL     1     -10.239   5.016  72.164  1.00  0.00    -0.196 N  
HETATM   21  C   UNL     1      -9.605   5.715  73.315  1.00  0.00    -0.146 C  
HETATM   22  C   UNL     1     -10.750   5.970  74.276  1.00  0.00     0.079 C  
HETATM   23  C   UNL     1     -11.922   6.270  73.361  1.00  0.00     1.198 C  
HETATM   24  C   UNL     1     -11.642   5.501  72.071  1.00  0.00     0.012 C  
ENDBRANCH  17  20
ENDBRANCH  16  17
ENDBRANCH  13  16
ENDBRANCH   5   6
ENDBRANCH   4   5
ENDBRANCH   2   4
TORSDOF 6
ENDMDL
MODEL      279
REMARK 921   NORMALIZED FREE ENERGY PREDICTED BY IDOCK:    2.18 KCAL/MOL
REMARK 922        TOTAL FREE ENERGY PREDICTED BY IDOCK:    2.35 KCAL/MOL
REMARK 923 INTER-LIGAND FREE ENERGY PREDICTED BY IDOCK:   -0.05 KCAL/MOL
REMARK 924 INTRA-LIGAND FREE ENERGY PREDICTED BY IDOCK:    2.40 KCAL/MOL
REMARK 927      BINDING AFFINITY PREDICTED BY RF-SCORE:    0.00 PKD
ROOT
HETATM    1  C   UNL     1      -8.278  11.515  66.416  1.00  0.00    -0.092 C  
HETATM    2  N   UNL     1      -8.249  12.793  67.138  1.00  0.00    -0.171 NA 
HETATM    3  C   UNL     1      -6.864  13.130  67.474  1.00  0.00    -0.149 C  
ENDROOT
BRANCH   2   4
HETATM    4  C   UNL     1      -8.887  13.837  66.309  1.00  0.00     0.253 C  
BRANCH   4   5
HETATM    5  C   UNL     1     -10.400  13.653  66.079  1.00  0.00    -0.305 C  
BRANCH   5   6
HETATM    6  C   UNL     1     -10.999  14.819  65.348  1.00  0.00    -0.365 A  
HETATM    7  C   UNL     1     -11.761  14.754  64.195  1.00  0.00    -0.147 A  
HETATM    8  N   UNL     1     -12.073  16.028  63.813  1.00  0.00    -1.255 NA 
HETATM    9  C   UNL     1     -11.550  16.934  64.706  1.00  0.00     0.736 A  
HETATM   10  H   UNL     1     -12.617  16.272  62.985  1.00  0.00     0.000 HD 
HETATM   11  C   UNL     1     -10.880  16.207  65.688  1.00  0.00    -0.246 A  
HETATM   12  C   UNL     1     -10.249  16.919  66.734  1.00  0.00    -0.306 A  
HETATM   13  C   UNL     1     -10.290  18.327  66.768  1.00  0.00    -0.403 A  
HETATM   14  C   UNL     1     -10.986  19.010  65.760  1.00  0.00    -0.060 A  
HETATM   15  C   UNL     1     -11.616  18.331  64.711  1.00  0.00     3.498 A  
BRANCH  13  16
HETATM   16  C   UNL     1      -9.604  19.072  67.894  1.00  0.00    -0.318 C  
BRANCH  16  17
HETATM   17  S   UNL     1      -8.350  18.008  68.648  1.00  0.00    -0.228 S  
HETATM   18  O   UNL     1      -7.635  18.756  69.663  1.00  0.00     0.124 OA 
HETATM   19  O   UNL     1      -7.646  17.271  67.623  1.00  0.00    -0.174 OA 
BRANCH  17  20
HETATM   20  N   UNL     1      -9.277  16.853  69.495  1.00  0.00     0.162 N  
HETATM   21  C   UNL     1     -10.652  17.329  69.815  1.00  0.00     0.216 C  
HETATM   22  C   UNL     1     -11.418  16.064  70.149  1.00  0.00    -0.350 C  
HETATM   23  C   UNL     1     -10.841  15.036  69.196  1.00  0.00    -0.251 C  
HETATM   24  C   UNL     1      -9.404  15.484  68.929  1.00  0.00    -0.222 C  
ENDBRANCH  17  20
ENDBRANCH  16  17
ENDBRANCH  13  16
ENDBRANCH   5   6
ENDBRANCH   4   5
ENDBRANCH   2   4
TORSDOF 6
ENDMDL
MODEL      280
REMARK 921   NORMALIZED FREE ENERGY PREDICTED BY IDOCK:    4.68 KCAL/MOL
REMARK 922        TOTAL FREE ENERGY PREDICTED BY IDOCK:    5.73 KCAL/MOL
REMARK 923 INTER-LIGAND FREE ENERGY PREDICTED BY IDOCK:    2.85 KCAL/MOL
REMARK 924 INTRA-LIGAND FREE ENERGY PREDICTED BY IDOCK:    2.88 KCAL/MOL
REMARK 927      BINDING AFFINITY PREDICTED BY RF-SCORE:    0.00 PKD
ROOT
HETATM    1  C   UNL     1      -9.851  18.660  68.156  1.00  0.00    -0.354 C  
HETATM    2  N   UNL     1      -9.671  18.724  66.701  1.00  0.00    -0.328 NA 
HETATM    3  C   UNL     1     -10.699  19.591  66.121  1.00  0.00    -0.428 C  
ENDROOT
BRANCH   2   4
HETATM    4  C   UNL     1      -8.306  19.205  66.399  1.00  0.00    -0.318 C  
BRANCH   4   5
HETATM    5  C   UNL     1      -7.509  18.331  65.412  1.00  0.00     0.447 C  
BRANCH   5   6
HETATM    6  C   UNL     1      -6.859  17.165  66.099  1.00  0.00    -0.158 A  
HETATM    7  C   UNL     1      -5.519  16.827  66.037  1.00  0.00     0.931 A  
HETATM    8  N   UNL     1      -5.332  15.677  66.753  1.00  0.00     0.269 NA 
HETATM    9  C   UNL     1      -6.521  15.263  67.306  1.00  0.00     0.079 A  
HETATM   10  H   UNL     1      -4.439  15.196  66.861  1.00  0.00     0.000 HD 
HETATM   11  C   UNL     1      -7.497  16.182  66.925  1.00  0.00    -0.266 A  
HETATM   12  C   UNL     1      -8.822  15.976  67.374  1.00  0.00    -0.197 A  
HETATM   13  C   UNL     1      -9.142  14.860  68.173  1.00  0.00    -0.177 A  
HETATM   14  C   UNL     1      -8.120  13.971  68.537  1.00  0.00    -0.139 A  
HETATM   15  C   UNL     1      -6.801  14.149  68.104  1.00  0.00    -0.129 A  
BRANCH  13  16
HETATM   16  C   UNL     1     -10.568  14.654  68.640  1.00  0.00    -0.252 C  
BRANCH  16  17
HETATM   17  S   UNL     1     -10.685  13.099  69.557  1.00  0.00     0.425 S  
HETATM   18  O   UNL     1     -12.082  12.759  69.747  1.00  0.00    -0.296 OA 
HETATM   19  O   UNL     1      -9.757  13.109  70.666  1.00  0.00     4.594 OA 
BRANCH  17  20
HETATM   20  N   UNL     1     -10.077  11.949  68.454  1.00  0.00    -0.203 N  
HETATM   21  C   UNL     1      -8.730  11.438  68.828  1.00  0.00    -0.076 C  
HETATM   22  C   UNL     1      -8.572  10.168  68.014  1.00  0.00    -0.118 C  
HETATM   23  C   UNL     1      -9.969   9.579  68.000  1.00  0.00    -0.198 C  
HETATM   24  C   UNL     1     -10.918  10.770  68.114  1.00  0.00    -0.257 C  
ENDBRANCH  17  20
ENDBRANCH  16  17
ENDBRANCH  13  16
ENDBRANCH   5   6
ENDBRANCH   4   5
ENDBRANCH   2   4
TORSDOF 6
ENDMDL
MODEL      281
REMARK 921   NORMALIZED FREE ENERGY PREDICTED BY IDOCK:    6.84 KCAL/MOL
REMARK 922        TOTAL FREE ENERGY PREDICTED BY IDOCK:    8.64 KCAL/MOL
REMARK 923 INTER-LIGAND FREE ENERGY PREDICTED BY IDOCK:    5.59 KCAL/MOL
REMARK 924 INTRA-LIGAND FREE ENERGY PREDICTED BY IDOCK:    3.05 KCAL/MOL
REMARK 927      BINDING AFFINITY PREDICTED BY RF-SCORE:    0.00 PKD
ROOT
HETATM    1  C   UNL     1     -13.045  16.292  63.799  1.00  0.00     3.606 C  
HETATM    2  N   UNL     1     -13.036  15.059  64.596  1.00  0.00    -0.065 NA 
HETATM    3  C   UNL     1     -12.751  13.918  63.724  1.00  0.00     0.295 C  
ENDROOT
BRANCH   2   4
HETATM    4  C   UNL     1     -12.043  15.188  65.683  1.00  0.00     0.235 C  
BRANCH   4   5
HETATM    5  C   UNL     1     -11.142  16.436  65.600  1.00  0.00     0.055 C  
BRANCH   5   6
HETATM    6  C   UNL     1      -9.946  16.321  66.499  1.00  0.00    -0.290 A  
HETATM    7  C   UNL     1      -8.745  16.992  66.348  1.00  0.00    -0.273 A  
HETATM    8  N   UNL     1      -7.895  16.580  67.336  1.00  0.00    -0.150 NA 
HETATM    9  C   UNL     1      -8.521  15.665  68.150  1.00  0.00    -0.147 A  
HETATM   10  H   UNL     1      -6.935  16.904  67.452  1.00  0.00     0.000 HD 
HETATM   11  C   UNL     1      -9.813  15.490  67.660  1.00  0.00    -0.213 A  
HETATM   12  C   UNL     1     -10.668  14.588  68.335  1.00  0.00    -0.246 A  
HETATM   13  C   UNL     1     -10.213  13.879  69.464  1.00  0.00     0.368 A  
HETATM   14  C   UNL     1      -8.906  14.100  69.922  1.00  0.00     1.333 A  
HETATM   15  C   UNL     1      -8.038  14.984  69.272  1.00  0.00    -0.178 A  
BRANCH  13  16
HETATM   16  C   UNL     1     -11.142  12.914  70.170  1.00  0.00     0.657 C  
BRANCH  16  17
HETATM   17  S   UNL     1     -10.621  11.215  69.833  1.00  0.00     0.384 S  
HETATM   18  O   UNL     1     -11.759  10.328  69.972  1.00  0.00    -0.256 OA 
HETATM   19  O   UNL     1      -9.369  10.941  70.502  1.00  0.00     1.400 OA 
BRANCH  17  20
HETATM   20  N   UNL     1     -10.259  11.242  68.166  1.00  0.00    -0.174 N  
HETATM   21  C   UNL     1     -10.896  12.381  67.449  1.00  0.00    -0.238 C  
HETATM   22  C   UNL     1     -10.129  12.479  66.145  1.00  0.00    -0.265 C  
HETATM   23  C   UNL     1      -8.708  12.129  66.541  1.00  0.00    -0.114 C  
HETATM   24  C   UNL     1      -8.835  11.194  67.743  1.00  0.00    -0.135 C  
ENDBRANCH  17  20
ENDBRANCH  16  17
ENDBRANCH  13  16
ENDBRANCH   5   6
ENDBRANCH   4   5
ENDBRANCH   2   4
TORSDOF 6
ENDMDL
