MODEL        1
REMARK 921   NORMALIZED FREE ENERGY PREDICTED BY IDOCK:   -7.75 KCAL/MOL
REMARK 922        TOTAL FREE ENERGY PREDICTED BY IDOCK:   -9.42 KCAL/MOL
REMARK 923 INTER-LIGAND FREE ENERGY PREDICTED BY IDOCK:   -9.11 KCAL/MOL
REMARK 924 INTRA-LIGAND FREE ENERGY PREDICTED BY IDOCK:   -0.32 KCAL/MOL
REMARK 927      BINDING AFFINITY PREDICTED BY RF-SCORE:    0.00 PKD
ROOT
HETATM    1  C   UNL     1     -11.942  13.831  64.218  1.00  0.00    -0.443 C  
HETATM    2  N   UNL     1     -11.099  14.677  65.042  1.00  0.00    -0.371 N  
HETATM    3  C   UNL     1     -11.075  16.025  64.811  1.00  0.00    -0.365 C  
HETATM    4  C   UNL     1     -10.301  16.825  65.764  1.00  0.00    -0.322 C  
HETATM    5  O   UNL     1     -11.652  16.593  63.886  1.00  0.00    -1.204 OA 
HETATM    6  C   UNL     1      -9.743  16.319  66.881  1.00  0.00    -0.238 C  
HETATM    7  O   UNL     1     -10.340  12.847  66.163  1.00  0.00    -0.265 OA 
HETATM    8  N   UNL     1      -9.851  14.925  67.043  1.00  0.00    -0.233 N  
HETATM    9  C   UNL     1     -10.409  14.076  66.074  1.00  0.00    -0.306 C  
ENDROOT
BRANCH   6  10
HETATM   10  N   UNL     1      -9.107  17.217  67.788  1.00  0.00    -0.231 NA 
HETATM   11  N   UNL     1      -8.844  19.817  66.204  1.00  0.00    -0.378 NA 
HETATM   12  C   UNL     1      -7.758  17.071  68.350  1.00  0.00    -0.230 C  
HETATM   13  C   UNL     1      -6.822  18.149  67.814  1.00  0.00    -0.202 C  
HETATM   14  H2  UNL     1      -8.387  19.024  65.754  1.00  0.00     0.000 HD 
HETATM   15  H1  UNL     1      -9.806  19.935  65.885  1.00  0.00     0.000 HD 
HETATM   16  C   UNL     1      -7.358  19.536  68.153  1.00  0.00    -0.334 C  
HETATM   17  C   UNL     1      -9.685  18.536  68.187  1.00  0.00    -0.339 C  
HETATM   18  C   UNL     1      -8.806  19.713  67.672  1.00  0.00    -0.320 C  
ENDBRANCH   6  10
BRANCH   8  19
HETATM   19  C   UNL     1      -9.673  14.262  68.337  1.00  0.00    -0.225 C  
BRANCH  19  20
HETATM   20  C   UNL     1     -10.663  14.592  69.449  1.00  0.00    -0.237 A  
HETATM   21  C   UNL     1     -12.839  14.172  70.467  1.00  0.00    -0.310 A  
HETATM   22  C   UNL     1     -11.894  12.475  68.991  1.00  0.00    -0.296 C  
HETATM   23  N   UNL     1     -11.971  11.453  68.450  1.00  0.00    -0.590 NA 
HETATM   24  C   UNL     1     -11.780  13.750  69.652  1.00  0.00    -0.379 A  
HETATM   25  C   UNL     1     -12.794  15.417  71.094  1.00  0.00    -0.520 A  
HETATM   26  C   UNL     1     -11.660  16.215  70.970  1.00  0.00    -0.434 A  
HETATM   27  C   UNL     1     -10.588  15.792  70.182  1.00  0.00    -0.334 A  
ENDBRANCH  19  20
ENDBRANCH   8  19
TORSDOF 3
ENDMDL
MODEL        2
REMARK 921   NORMALIZED FREE ENERGY PREDICTED BY IDOCK:   -7.63 KCAL/MOL
REMARK 922        TOTAL FREE ENERGY PREDICTED BY IDOCK:   -9.28 KCAL/MOL
REMARK 923 INTER-LIGAND FREE ENERGY PREDICTED BY IDOCK:   -8.71 KCAL/MOL
REMARK 924 INTRA-LIGAND FREE ENERGY PREDICTED BY IDOCK:   -0.57 KCAL/MOL
REMARK 927      BINDING AFFINITY PREDICTED BY RF-SCORE:    0.00 PKD
ROOT
HETATM    1  C   UNL     1     -12.604  13.431  71.179  1.00  0.00    -0.345 C  
HETATM    2  N   UNL     1     -12.034  14.403  70.265  1.00  0.00    -0.301 N  
HETATM    3  C   UNL     1     -11.782  15.672  70.710  1.00  0.00    -0.375 C  
HETATM    4  C   UNL     1     -11.089  16.556  69.768  1.00  0.00    -0.248 C  
HETATM    5  O   UNL     1     -12.084  16.103  71.820  1.00  0.00    -0.472 OA 
HETATM    6  C   UNL     1     -10.600  16.143  68.582  1.00  0.00    -0.283 C  
HETATM    7  O   UNL     1     -12.079  12.866  68.586  1.00  0.00    -0.286 OA 
HETATM    8  N   UNL     1     -10.885  14.810  68.231  1.00  0.00    -0.243 N  
HETATM    9  C   UNL     1     -11.707  13.969  68.997  1.00  0.00    -0.330 C  
ENDROOT
BRANCH   6  10
HETATM   10  N   UNL     1      -9.848  17.068  67.800  1.00  0.00    -0.264 NA 
HETATM   11  N   UNL     1     -10.044  19.693  69.354  1.00  0.00    -0.593 NA 
HETATM   12  C   UNL     1     -10.162  17.506  66.434  1.00  0.00    -0.354 C  
HETATM   13  C   UNL     1     -10.566  18.977  66.409  1.00  0.00    -0.492 C  
HETATM   14  H2  UNL     1     -10.953  19.313  69.091  1.00  0.00     0.000 HD 
HETATM   15  H1  UNL     1      -9.753  19.379  70.280  1.00  0.00     0.000 HD 
HETATM   16  C   UNL     1      -9.445  19.846  66.967  1.00  0.00    -0.505 C  
HETATM   17  C   UNL     1      -8.690  17.850  68.331  1.00  0.00    -0.293 C  
HETATM   18  C   UNL     1      -9.006  19.373  68.362  1.00  0.00    -0.354 C  
ENDBRANCH   6  10
BRANCH   8  19
HETATM   19  C   UNL     1     -10.128  14.081  67.211  1.00  0.00    -0.249 C  
BRANCH  19  20
HETATM   20  C   UNL     1     -10.882  13.586  65.982  1.00  0.00    -0.282 A  
HETATM   21  C   UNL     1     -11.028  11.966  64.164  1.00  0.00    -0.430 A  
HETATM   22  C   UNL     1      -9.699  11.397  66.130  1.00  0.00    -0.219 C  
HETATM   23  N   UNL     1      -9.005  10.666  66.701  1.00  0.00    -0.149 NA 
HETATM   24  C   UNL     1     -10.558  12.322  65.436  1.00  0.00    -0.309 A  
HETATM   25  C   UNL     1     -11.827  12.845  63.435  1.00  0.00    -0.576 A  
HETATM   26  C   UNL     1     -12.222  14.055  64.001  1.00  0.00    -0.395 A  
HETATM   27  C   UNL     1     -11.782  14.408  65.278  1.00  0.00    -0.364 A  
ENDBRANCH  19  20
ENDBRANCH   8  19
TORSDOF 3
ENDMDL
MODEL        3
REMARK 921   NORMALIZED FREE ENERGY PREDICTED BY IDOCK:   -7.54 KCAL/MOL
REMARK 922        TOTAL FREE ENERGY PREDICTED BY IDOCK:   -9.18 KCAL/MOL
REMARK 923 INTER-LIGAND FREE ENERGY PREDICTED BY IDOCK:   -8.61 KCAL/MOL
REMARK 924 INTRA-LIGAND FREE ENERGY PREDICTED BY IDOCK:   -0.57 KCAL/MOL
REMARK 927      BINDING AFFINITY PREDICTED BY RF-SCORE:    0.00 PKD
ROOT
HETATM    1  C   UNL     1     -11.539  12.577  63.331  1.00  0.00    -0.473 C  
HETATM    2  N   UNL     1     -11.500  12.173  64.724  1.00  0.00    -0.325 N  
HETATM    3  C   UNL     1     -10.701  11.126  65.095  1.00  0.00    -0.210 C  
HETATM    4  C   UNL     1     -10.618  10.862  66.534  1.00  0.00    -0.295 C  
HETATM    5  O   UNL     1     -10.062  10.419  64.321  1.00  0.00    -0.334 OA 
HETATM    6  C   UNL     1     -11.172  11.657  67.470  1.00  0.00    -0.293 C  
HETATM    7  O   UNL     1     -13.046  13.764  65.239  1.00  0.00    -0.756 OA 
HETATM    8  N   UNL     1     -11.948  12.727  66.986  1.00  0.00    -0.355 N  
HETATM    9  C   UNL     1     -12.228  12.923  65.625  1.00  0.00    -0.463 C  
ENDROOT
BRANCH   6  10
HETATM   10  N   UNL     1     -10.930  11.358  68.843  1.00  0.00    -0.212 NA 
HETATM   11  N   UNL     1     -10.980   8.304  68.962  1.00  0.00    -0.429 NA 
HETATM   12  C   UNL     1     -11.796  11.714  69.975  1.00  0.00    -0.355 C  
HETATM   13  C   UNL     1     -12.422  10.472  70.599  1.00  0.00    -0.456 C  
HETATM   14  H2  UNL     1     -11.843   8.706  68.598  1.00  0.00     0.000 HD 
HETATM   15  H1  UNL     1     -10.319   8.082  68.217  1.00  0.00     0.000 HD 
HETATM   16  C   UNL     1     -11.338   9.514  71.081  1.00  0.00    -0.440 C  
HETATM   17  C   UNL     1      -9.808  10.491  69.315  1.00  0.00    -0.205 C  
HETATM   18  C   UNL     1     -10.343   9.179  69.959  1.00  0.00    -0.207 C  
ENDBRANCH   6  10
BRANCH   8  19
HETATM   19  C   UNL     1     -12.286  13.894  67.804  1.00  0.00    -0.182 C  
BRANCH  19  20
HETATM   20  C   UNL     1     -11.203  14.944  68.029  1.00  0.00    -0.318 A  
HETATM   21  C   UNL     1     -10.481  16.939  69.231  1.00  0.00    -0.319 A  
HETATM   22  C   UNL     1     -12.251  15.569  70.201  1.00  0.00    -0.376 C  
HETATM   23  N   UNL     1     -13.029  15.369  71.037  1.00  0.00    -0.466 NA 
HETATM   24  C   UNL     1     -11.294  15.800  69.150  1.00  0.00    -0.349 A  
HETATM   25  C   UNL     1      -9.569  17.229  68.217  1.00  0.00    -0.288 A  
HETATM   26  C   UNL     1      -9.411  16.345  67.153  1.00  0.00    -0.238 A  
HETATM   27  C   UNL     1     -10.197  15.193  67.076  1.00  0.00    -0.262 A  
ENDBRANCH  19  20
ENDBRANCH   8  19
TORSDOF 3
ENDMDL
MODEL        4
REMARK 921   NORMALIZED FREE ENERGY PREDICTED BY IDOCK:   -7.52 KCAL/MOL
REMARK 922        TOTAL FREE ENERGY PREDICTED BY IDOCK:   -9.15 KCAL/MOL
REMARK 923 INTER-LIGAND FREE ENERGY PREDICTED BY IDOCK:   -8.24 KCAL/MOL
REMARK 924 INTRA-LIGAND FREE ENERGY PREDICTED BY IDOCK:   -0.91 KCAL/MOL
REMARK 927      BINDING AFFINITY PREDICTED BY RF-SCORE:    0.00 PKD
ROOT
HETATM    1  C   UNL     1      -7.941   8.877  68.837  1.00  0.00    -0.104 C  
HETATM    2  N   UNL     1      -8.594  10.105  68.424  1.00  0.00    -0.116 N  
HETATM    3  C   UNL     1      -8.143  10.761  67.312  1.00  0.00    -0.117 C  
HETATM    4  C   UNL     1      -8.933  11.920  66.886  1.00  0.00    -0.196 C  
HETATM    5  O   UNL     1      -7.151  10.444  66.661  1.00  0.00    -0.101 OA 
HETATM    6  C   UNL     1     -10.106  12.269  67.450  1.00  0.00    -0.200 C  
HETATM    7  O   UNL     1      -9.986   9.982  70.222  1.00  0.00    -0.244 OA 
HETATM    8  N   UNL     1     -10.498  11.511  68.569  1.00  0.00    -0.201 N  
HETATM    9  C   UNL     1      -9.697  10.514  69.146  1.00  0.00    -0.211 C  
ENDROOT
BRANCH   6  10
HETATM   10  N   UNL     1     -10.837  13.352  66.879  1.00  0.00    -0.276 NA 
HETATM   11  N   UNL     1     -10.280  13.130  63.882  1.00  0.00    -0.744 NA 
HETATM   12  C   UNL     1     -10.602  14.782  67.121  1.00  0.00    -0.285 C  
HETATM   13  C   UNL     1     -10.074  15.470  65.867  1.00  0.00    -0.374 C  
HETATM   14  H2  UNL     1      -9.433  13.231  64.441  1.00  0.00     0.000 HD 
HETATM   15  H1  UNL     1     -10.518  12.150  63.724  1.00  0.00     0.000 HD 
HETATM   16  C   UNL     1     -11.064  15.314  64.718  1.00  0.00    -0.407 C  
HETATM   17  C   UNL     1     -11.873  13.179  65.816  1.00  0.00    -0.397 C  
HETATM   18  C   UNL     1     -11.423  13.839  64.480  1.00  0.00    -0.384 C  
ENDBRANCH   6  10
BRANCH   8  19
HETATM   19  C   UNL     1     -11.880  11.473  69.054  1.00  0.00    -0.343 C  
BRANCH  19  20
HETATM   20  C   UNL     1     -12.254  12.389  70.214  1.00  0.00    -0.345 A  
HETATM   21  C   UNL     1     -13.485  12.681  72.299  1.00  0.00    -0.541 A  
HETATM   22  C   UNL     1     -12.989  10.415  71.545  1.00  0.00    -0.458 C  
HETATM   23  N   UNL     1     -13.065   9.266  71.683  1.00  0.00    -0.359 NA 
HETATM   24  C   UNL     1     -12.887  11.838  71.352  1.00  0.00    -0.440 A  
HETATM   25  C   UNL     1     -13.450  14.065  72.135  1.00  0.00    -0.567 A  
HETATM   26  C   UNL     1     -12.753  14.619  71.063  1.00  0.00    -0.406 A  
HETATM   27  C   UNL     1     -12.130  13.789  70.129  1.00  0.00    -0.429 A  
ENDBRANCH  19  20
ENDBRANCH   8  19
TORSDOF 3
ENDMDL
MODEL        5
REMARK 921   NORMALIZED FREE ENERGY PREDICTED BY IDOCK:   -7.49 KCAL/MOL
REMARK 922        TOTAL FREE ENERGY PREDICTED BY IDOCK:   -9.12 KCAL/MOL
REMARK 923 INTER-LIGAND FREE ENERGY PREDICTED BY IDOCK:   -8.31 KCAL/MOL
REMARK 924 INTRA-LIGAND FREE ENERGY PREDICTED BY IDOCK:   -0.81 KCAL/MOL
REMARK 927      BINDING AFFINITY PREDICTED BY RF-SCORE:    0.00 PKD
ROOT
HETATM    1  C   UNL     1     -11.022  15.698  70.805  1.00  0.00    -0.311 C  
HETATM    2  N   UNL     1     -10.757  14.986  69.569  1.00  0.00    -0.250 N  
HETATM    3  C   UNL     1     -11.707  14.139  69.069  1.00  0.00    -0.324 C  
HETATM    4  C   UNL     1     -11.419  13.557  67.755  1.00  0.00    -0.349 C  
HETATM    5  O   UNL     1     -12.760  13.849  69.632  1.00  0.00    -0.137 OA 
HETATM    6  C   UNL     1     -10.360  13.910  67.000  1.00  0.00    -0.267 C  
HETATM    7  O   UNL     1      -8.680  15.914  69.468  1.00  0.00    -0.241 OA 
HETATM    8  N   UNL     1      -9.458  14.814  67.593  1.00  0.00    -0.202 N  
HETATM    9  C   UNL     1      -9.571  15.259  68.919  1.00  0.00    -0.220 C  
ENDROOT
BRANCH   6  10
HETATM   10  N   UNL     1     -10.245  13.355  65.692  1.00  0.00    -0.290 NA 
HETATM   11  N   UNL     1     -13.136  12.861  64.833  1.00  0.00    -0.808 NA 
HETATM   12  C   UNL     1      -9.608  12.078  65.343  1.00  0.00    -0.132 C  
HETATM   13  C   UNL     1     -10.640  11.065  64.860  1.00  0.00    -0.328 C  
HETATM   14  H2  UNL     1     -12.885  12.376  65.695  1.00  0.00     0.000 HD 
HETATM   15  H1  UNL     1     -13.541  13.779  65.016  1.00  0.00     0.000 HD 
HETATM   16  C   UNL     1     -11.382  11.601  63.642  1.00  0.00    -0.485 C  
HETATM   17  C   UNL     1     -10.903  13.941  64.484  1.00  0.00    -0.368 C  
HETATM   18  C   UNL     1     -11.991  12.985  63.917  1.00  0.00    -0.485 C  
ENDBRANCH   6  10
BRANCH   8  19
HETATM   19  C   UNL     1      -8.501  15.602  66.814  1.00  0.00    -0.272 C  
BRANCH  19  20
HETATM   20  C   UNL     1      -8.885  17.031  66.447  1.00  0.00    -0.313 A  
HETATM   21  C   UNL     1      -8.187  19.353  66.181  1.00  0.00    -0.319 A  
HETATM   22  C   UNL     1      -6.479  17.610  66.154  1.00  0.00    -0.249 C  
HETATM   23  N   UNL     1      -5.368  17.288  66.087  1.00  0.00    -0.337 NA 
HETATM   24  C   UNL     1      -7.866  17.990  66.243  1.00  0.00    -0.288 A  
HETATM   25  C   UNL     1      -9.510  19.773  66.306  1.00  0.00    -0.493 A  
HETATM   26  C   UNL     1     -10.529  18.830  66.419  1.00  0.00    -0.485 A  
HETATM   27  C   UNL     1     -10.224  17.468  66.454  1.00  0.00    -0.354 A  
ENDBRANCH  19  20
ENDBRANCH   8  19
TORSDOF 3
ENDMDL
MODEL        6
REMARK 921   NORMALIZED FREE ENERGY PREDICTED BY IDOCK:   -7.45 KCAL/MOL
REMARK 922        TOTAL FREE ENERGY PREDICTED BY IDOCK:   -9.08 KCAL/MOL
REMARK 923 INTER-LIGAND FREE ENERGY PREDICTED BY IDOCK:   -7.83 KCAL/MOL
REMARK 924 INTRA-LIGAND FREE ENERGY PREDICTED BY IDOCK:   -1.25 KCAL/MOL
REMARK 927      BINDING AFFINITY PREDICTED BY RF-SCORE:    0.00 PKD
ROOT
HETATM    1  C   UNL     1     -14.114  13.910  72.315  1.00  0.00    -0.535 C  
HETATM    2  N   UNL     1     -13.102  13.558  71.336  1.00  0.00    -0.330 N  
HETATM    3  C   UNL     1     -12.731  12.249  71.200  1.00  0.00    -0.243 C  
HETATM    4  C   UNL     1     -11.800  11.958  70.105  1.00  0.00    -0.390 C  
HETATM    5  O   UNL     1     -13.122  11.327  71.910  1.00  0.00    -0.493 OA 
HETATM    6  C   UNL     1     -11.416  12.871  69.192  1.00  0.00    -0.306 C  
HETATM    7  O   UNL     1     -12.860  15.754  70.782  1.00  0.00    -0.457 OA 
HETATM    8  N   UNL     1     -11.879  14.183  69.404  1.00  0.00    -0.309 N  
HETATM    9  C   UNL     1     -12.612  14.569  70.536  1.00  0.00    -0.351 C  
ENDROOT
BRANCH   6  10
HETATM   10  N   UNL     1     -10.593  12.441  68.109  1.00  0.00    -0.209 NA 
HETATM   11  N   UNL     1     -11.094   9.431  67.938  1.00  0.00    -0.503 NA 
HETATM   12  C   UNL     1      -9.126  12.503  68.056  1.00  0.00    -0.200 C  
HETATM   13  C   UNL     1      -8.518  11.105  68.079  1.00  0.00    -0.135 C  
HETATM   14  H2  UNL     1     -10.747   9.730  68.849  1.00  0.00     0.000 HD 
HETATM   15  H1  UNL     1     -12.113   9.417  67.904  1.00  0.00     0.000 HD 
HETATM   16  C   UNL     1      -9.026  10.285  66.899  1.00  0.00    -0.149 C  
HETATM   17  C   UNL     1     -11.115  11.717  66.911  1.00  0.00    -0.308 C  
HETATM   18  C   UNL     1     -10.562  10.264  66.847  1.00  0.00    -0.217 C  
ENDBRANCH   6  10
BRANCH   8  19
HETATM   19  C   UNL     1     -11.905  15.193  68.344  1.00  0.00    -0.267 C  
BRANCH  19  20
HETATM   20  C   UNL     1     -10.587  15.856  67.957  1.00  0.00    -0.287 A  
HETATM   21  C   UNL     1      -8.801  16.093  66.313  1.00  0.00    -0.371 A  
HETATM   22  C   UNL     1     -10.953  15.209  65.578  1.00  0.00    -0.365 C  
HETATM   23  N   UNL     1     -11.636  14.778  64.747  1.00  0.00    -0.409 NA 
HETATM   24  C   UNL     1     -10.121  15.740  66.627  1.00  0.00    -0.287 A  
HETATM   25  C   UNL     1      -7.944  16.570  67.303  1.00  0.00    -0.191 A  
HETATM   26  C   UNL     1      -8.420  16.770  68.597  1.00  0.00    -0.259 A  
HETATM   27  C   UNL     1      -9.741  16.448  68.914  1.00  0.00    -0.257 A  
ENDBRANCH  19  20
ENDBRANCH   8  19
TORSDOF 3
ENDMDL
MODEL        7
REMARK 921   NORMALIZED FREE ENERGY PREDICTED BY IDOCK:   -7.44 KCAL/MOL
REMARK 922        TOTAL FREE ENERGY PREDICTED BY IDOCK:   -9.06 KCAL/MOL
REMARK 923 INTER-LIGAND FREE ENERGY PREDICTED BY IDOCK:   -8.20 KCAL/MOL
REMARK 924 INTRA-LIGAND FREE ENERGY PREDICTED BY IDOCK:   -0.86 KCAL/MOL
REMARK 927      BINDING AFFINITY PREDICTED BY RF-SCORE:    0.00 PKD
ROOT
HETATM    1  C   UNL     1     -12.287  12.101  63.705  1.00  0.00    -0.568 C  
HETATM    2  N   UNL     1     -11.483  13.103  64.380  1.00  0.00    -0.349 N  
HETATM    3  C   UNL     1     -11.841  14.420  64.288  1.00  0.00    -0.364 C  
HETATM    4  C   UNL     1     -11.057  15.355  65.099  1.00  0.00    -0.402 C  
HETATM    5  O   UNL     1     -12.756  14.855  63.594  1.00  0.00    -0.689 OA 
HETATM    6  C   UNL     1     -10.123  14.967  65.990  1.00  0.00    -0.311 C  
HETATM    7  O   UNL     1     -10.046  11.486  65.091  1.00  0.00    -0.244 OA 
HETATM    8  N   UNL     1      -9.852  13.586  66.031  1.00  0.00    -0.286 N  
HETATM    9  C   UNL     1     -10.426  12.660  65.147  1.00  0.00    -0.296 C  
ENDROOT
BRANCH   6  10
HETATM   10  N   UNL     1      -9.504  15.963  66.801  1.00  0.00    -0.224 NA 
HETATM   11  N   UNL     1     -10.441  18.605  65.584  1.00  0.00    -0.594 NA 
HETATM   12  C   UNL     1      -8.060  16.194  66.941  1.00  0.00    -0.240 C  
HETATM   13  C   UNL     1      -7.656  17.527  66.321  1.00  0.00    -0.343 C  
HETATM   14  H2  UNL     1      -9.949  18.009  64.919  1.00  0.00     0.000 HD 
HETATM   15  H1  UNL     1     -11.449  18.450  65.563  1.00  0.00     0.000 HD 
HETATM   16  C   UNL     1      -8.412  18.673  66.985  1.00  0.00    -0.275 C  
HETATM   17  C   UNL     1     -10.262  17.029  67.523  1.00  0.00    -0.323 C  
HETATM   18  C   UNL     1      -9.930  18.439  66.954  1.00  0.00    -0.353 C  
ENDBRANCH   6  10
BRANCH   8  19
HETATM   19  C   UNL     1      -9.190  12.944  67.169  1.00  0.00    -0.225 C  
BRANCH  19  20
HETATM   20  C   UNL     1     -10.056  12.520  68.351  1.00  0.00    -0.216 A  
HETATM   21  C   UNL     1     -11.029  10.698  69.648  1.00  0.00    -0.331 A  
HETATM   22  C   UNL     1      -9.091  10.225  68.242  1.00  0.00    -0.139 C  
HETATM   23  N   UNL     1      -8.313   9.480  67.814  1.00  0.00    -0.118 NA 
HETATM   24  C   UNL     1     -10.050  11.166  68.760  1.00  0.00    -0.211 A  
HETATM   25  C   UNL     1     -12.005  11.561  70.143  1.00  0.00    -0.452 A  
HETATM   26  C   UNL     1     -11.965  12.914  69.813  1.00  0.00    -0.365 A  
HETATM   27  C   UNL     1     -10.978  13.397  68.952  1.00  0.00    -0.284 A  
ENDBRANCH  19  20
ENDBRANCH   8  19
TORSDOF 3
ENDMDL
MODEL        8
REMARK 921   NORMALIZED FREE ENERGY PREDICTED BY IDOCK:   -7.42 KCAL/MOL
REMARK 922        TOTAL FREE ENERGY PREDICTED BY IDOCK:   -9.04 KCAL/MOL
REMARK 923 INTER-LIGAND FREE ENERGY PREDICTED BY IDOCK:   -8.19 KCAL/MOL
REMARK 924 INTRA-LIGAND FREE ENERGY PREDICTED BY IDOCK:   -0.85 KCAL/MOL
REMARK 927      BINDING AFFINITY PREDICTED BY RF-SCORE:    0.00 PKD
ROOT
HETATM    1  C   UNL     1     -13.060  15.691  70.956  1.00  0.00    -0.427 C  
HETATM    2  N   UNL     1     -12.737  14.277  70.968  1.00  0.00    -0.339 N  
HETATM    3  C   UNL     1     -13.043  13.530  72.073  1.00  0.00    -0.387 C  
HETATM    4  C   UNL     1     -12.803  12.088  71.959  1.00  0.00    -0.251 C  
HETATM    5  O   UNL     1     -13.501  13.977  73.121  1.00  0.00    -0.593 OA 
HETATM    6  C   UNL     1     -12.430  11.484  70.814  1.00  0.00    -0.349 C  
HETATM    7  O   UNL     1     -11.798  14.463  68.902  1.00  0.00    -0.299 OA 
HETATM    8  N   UNL     1     -12.171  12.338  69.726  1.00  0.00    -0.190 N  
HETATM    9  C   UNL     1     -12.193  13.738  69.821  1.00  0.00    -0.310 C  
ENDROOT
BRANCH   6  10
HETATM   10  N   UNL     1     -12.334  10.061  70.799  1.00  0.00    -0.306 NA 
HETATM   11  N   UNL     1     -14.035   9.172  73.177  1.00  0.00    -1.161 NA 
HETATM   12  C   UNL     1     -11.111   9.272  70.995  1.00  0.00    -0.326 C  
HETATM   13  C   UNL     1     -11.163   8.498  72.308  1.00  0.00    -0.432 C  
HETATM   14  H2  UNL     1     -13.278   9.803  73.438  1.00  0.00     0.000 HD 
HETATM   15  H1  UNL     1     -14.901   9.675  72.980  1.00  0.00     0.000 HD 
HETATM   16  C   UNL     1     -12.369   7.565  72.327  1.00  0.00    -0.192 C  
HETATM   17  C   UNL     1     -13.519   9.153  70.725  1.00  0.00     0.264 C  
HETATM   18  C   UNL     1     -13.672   8.322  72.031  1.00  0.00    -0.337 C  
ENDBRANCH   6  10
BRANCH   8  19
HETATM   19  C   UNL     1     -12.149  11.868  68.339  1.00  0.00    -0.020 C  
BRANCH  19  20
HETATM   20  C   UNL     1     -10.798  11.789  67.634  1.00  0.00    -0.263 A  
HETATM   21  C   UNL     1      -9.575  11.600  65.532  1.00  0.00    -0.241 A  
HETATM   22  C   UNL     1     -11.885  12.383  65.472  1.00  0.00    -0.412 C  
HETATM   23  N   UNL     1     -12.814  12.739  64.877  1.00  0.00    -0.825 NA 
HETATM   24  C   UNL     1     -10.743  11.939  66.229  1.00  0.00    -0.309 A  
HETATM   25  C   UNL     1      -8.458  11.125  66.217  1.00  0.00    -0.168 A  
HETATM   26  C   UNL     1      -8.474  11.056  67.608  1.00  0.00    -0.121 A  
HETATM   27  C   UNL     1      -9.623  11.418  68.315  1.00  0.00    -0.192 A  
ENDBRANCH  19  20
ENDBRANCH   8  19
TORSDOF 3
ENDMDL
MODEL        9
REMARK 921   NORMALIZED FREE ENERGY PREDICTED BY IDOCK:   -7.36 KCAL/MOL
REMARK 922        TOTAL FREE ENERGY PREDICTED BY IDOCK:   -8.97 KCAL/MOL
REMARK 923 INTER-LIGAND FREE ENERGY PREDICTED BY IDOCK:   -8.32 KCAL/MOL
REMARK 924 INTRA-LIGAND FREE ENERGY PREDICTED BY IDOCK:   -0.65 KCAL/MOL
REMARK 927      BINDING AFFINITY PREDICTED BY RF-SCORE:    0.00 PKD
ROOT
HETATM    1  C   UNL     1     -12.330  15.631  71.006  1.00  0.00    -0.428 C  
HETATM    2  N   UNL     1     -11.718  15.064  69.819  1.00  0.00    -0.287 N  
HETATM    3  C   UNL     1     -11.984  13.764  69.485  1.00  0.00    -0.345 C  
HETATM    4  C   UNL     1     -11.432  13.305  68.207  1.00  0.00    -0.351 C  
HETATM    5  O   UNL     1     -12.644  12.983  70.165  1.00  0.00    -0.131 OA 
HETATM    6  C   UNL     1     -10.810  14.117  67.330  1.00  0.00    -0.285 C  
HETATM    7  O   UNL     1     -10.608  17.017  69.446  1.00  0.00    -0.335 OA 
HETATM    8  N   UNL     1     -10.614  15.444  67.755  1.00  0.00    -0.267 N  
HETATM    9  C   UNL     1     -10.943  15.899  69.041  1.00  0.00    -0.277 C  
ENDROOT
BRANCH   6  10
HETATM   10  N   UNL     1     -10.414  13.577  66.071  1.00  0.00    -0.293 NA 
HETATM   11  N   UNL     1     -13.032  12.648  64.798  1.00  0.00    -0.867 NA 
HETATM   12  C   UNL     1      -9.548  12.409  65.861  1.00  0.00    -0.187 C  
HETATM   13  C   UNL     1     -10.332  11.248  65.257  1.00  0.00    -0.337 C  
HETATM   14  H2  UNL     1     -12.848  12.212  65.702  1.00  0.00     0.000 HD 
HETATM   15  H1  UNL     1     -13.591  13.496  64.890  1.00  0.00     0.000 HD 
HETATM   16  C   UNL     1     -10.948  11.660  63.924  1.00  0.00    -0.478 C  
HETATM   17  C   UNL     1     -10.956  14.050  64.761  1.00  0.00    -0.402 C  
HETATM   18  C   UNL     1     -11.790  12.937  64.064  1.00  0.00    -0.443 C  
ENDBRANCH   6  10
BRANCH   8  19
HETATM   19  C   UNL     1     -10.333  16.540  66.825  1.00  0.00    -0.296 C  
BRANCH  19  20
HETATM   20  C   UNL     1      -8.925  17.126  66.818  1.00  0.00    -0.263 A  
HETATM   21  C   UNL     1      -7.451  18.947  66.141  1.00  0.00    -0.292 A  
HETATM   22  C   UNL     1      -9.853  19.364  66.238  1.00  0.00    -0.403 C  
HETATM   23  N   UNL     1     -10.761  20.070  66.094  1.00  0.00    -0.350 NA 
HETATM   24  C   UNL     1      -8.739  18.470  66.422  1.00  0.00    -0.274 A  
HETATM   25  C   UNL     1      -6.345  18.107  66.262  1.00  0.00    -0.249 A  
HETATM   26  C   UNL     1      -6.510  16.807  66.735  1.00  0.00    -0.226 A  
HETATM   27  C   UNL     1      -7.785  16.330  67.044  1.00  0.00    -0.250 A  
ENDBRANCH  19  20
ENDBRANCH   8  19
TORSDOF 3
ENDMDL
MODEL       10
REMARK 921   NORMALIZED FREE ENERGY PREDICTED BY IDOCK:   -7.27 KCAL/MOL
REMARK 922        TOTAL FREE ENERGY PREDICTED BY IDOCK:   -8.86 KCAL/MOL
REMARK 923 INTER-LIGAND FREE ENERGY PREDICTED BY IDOCK:   -8.54 KCAL/MOL
REMARK 924 INTRA-LIGAND FREE ENERGY PREDICTED BY IDOCK:   -0.32 KCAL/MOL
REMARK 927      BINDING AFFINITY PREDICTED BY RF-SCORE:    0.00 PKD
ROOT
HETATM    1  C   UNL     1     -12.268  12.989  70.318  1.00  0.00    -0.296 C  
HETATM    2  N   UNL     1     -11.812  14.194  69.651  1.00  0.00    -0.303 N  
HETATM    3  C   UNL     1     -11.266  15.204  70.395  1.00  0.00    -0.279 C  
HETATM    4  C   UNL     1     -10.713  16.331  69.638  1.00  0.00    -0.338 C  
HETATM    5  O   UNL     1     -11.204  15.222  71.622  1.00  0.00    -0.395 OA 
HETATM    6  C   UNL     1     -10.612  16.347  68.294  1.00  0.00    -0.318 C  
HETATM    7  O   UNL     1     -12.518  13.367  67.651  1.00  0.00    -0.109 OA 
HETATM    8  N   UNL     1     -11.176  15.246  67.624  1.00  0.00    -0.321 N  
HETATM    9  C   UNL     1     -11.890  14.229  68.274  1.00  0.00    -0.335 C  
ENDROOT
BRANCH   6  10
HETATM   10  N   UNL     1      -9.956  17.453  67.677  1.00  0.00    -0.289 NA 
HETATM   11  N   UNL     1     -10.276  19.730  69.690  1.00  0.00    -0.524 NA 
HETATM   12  C   UNL     1     -10.349  18.106  66.422  1.00  0.00    -0.394 C  
HETATM   13  C   UNL     1     -10.855  19.522  66.676  1.00  0.00    -0.476 C  
HETATM   14  H2  UNL     1     -11.166  19.337  69.383  1.00  0.00     0.000 HD 
HETATM   15  H1  UNL     1      -9.930  19.277  70.536  1.00  0.00     0.000 HD 
HETATM   16  C   UNL     1      -9.777  20.357  67.357  1.00  0.00    -0.597 C  
HETATM   17  C   UNL     1      -8.836  18.209  68.315  1.00  0.00    -0.283 C  
HETATM   18  C   UNL     1      -9.256  19.674  68.631  1.00  0.00    -0.302 C  
ENDBRANCH   6  10
BRANCH   8  19
HETATM   19  C   UNL     1     -10.824  14.894  66.246  1.00  0.00    -0.331 C  
BRANCH  19  20
HETATM   20  C   UNL     1      -9.998  13.632  66.021  1.00  0.00    -0.313 A  
HETATM   21  C   UNL     1      -9.851  11.413  65.019  1.00  0.00    -0.304 A  
HETATM   22  C   UNL     1     -11.481  12.993  64.123  1.00  0.00    -0.402 C  
HETATM   23  N   UNL     1     -12.336  13.249  63.384  1.00  0.00    -0.749 NA 
HETATM   24  C   UNL     1     -10.423  12.693  65.053  1.00  0.00    -0.331 A  
HETATM   25  C   UNL     1      -8.854  11.061  65.927  1.00  0.00    -0.204 A  
HETATM   26  C   UNL     1      -8.369  12.008  66.825  1.00  0.00    -0.135 A  
HETATM   27  C   UNL     1      -8.912  13.294  66.850  1.00  0.00    -0.212 A  
ENDBRANCH  19  20
ENDBRANCH   8  19
TORSDOF 3
ENDMDL
MODEL       11
REMARK 921   NORMALIZED FREE ENERGY PREDICTED BY IDOCK:   -7.25 KCAL/MOL
REMARK 922        TOTAL FREE ENERGY PREDICTED BY IDOCK:   -8.84 KCAL/MOL
REMARK 923 INTER-LIGAND FREE ENERGY PREDICTED BY IDOCK:   -7.97 KCAL/MOL
REMARK 924 INTRA-LIGAND FREE ENERGY PREDICTED BY IDOCK:   -0.87 KCAL/MOL
REMARK 927      BINDING AFFINITY PREDICTED BY RF-SCORE:    0.00 PKD
ROOT
HETATM    1  C   UNL     1     -10.517  10.316  67.694  1.00  0.00    -0.239 C  
HETATM    2  N   UNL     1     -11.217  11.398  68.362  1.00  0.00    -0.238 N  
HETATM    3  C   UNL     1     -11.428  11.324  69.712  1.00  0.00    -0.310 C  
HETATM    4  C   UNL     1     -12.025  12.510  70.333  1.00  0.00    -0.335 C  
HETATM    5  O   UNL     1     -11.149  10.359  70.418  1.00  0.00    -0.301 OA 
HETATM    6  C   UNL     1     -12.246  13.665  69.674  1.00  0.00    -0.270 C  
HETATM    7  O   UNL     1     -11.501  12.461  66.369  1.00  0.00    -0.331 OA 
HETATM    8  N   UNL     1     -11.965  13.647  68.295  1.00  0.00    -0.363 N  
HETATM    9  C   UNL     1     -11.576  12.491  67.601  1.00  0.00    -0.355 C  
ENDROOT
BRANCH   6  10
HETATM   10  N   UNL     1     -12.730  14.784  70.412  1.00  0.00    -0.339 NA 
HETATM   11  N   UNL     1     -11.202  14.656  73.055  1.00  0.00     0.445 NA 
HETATM   12  C   UNL     1     -14.110  14.988  70.874  1.00  0.00    -0.085 C  
HETATM   13  C   UNL     1     -14.195  14.910  72.394  1.00  0.00    -0.494 C  
HETATM   14  H2  UNL     1     -11.739  13.811  72.860  1.00  0.00     0.000 HD 
HETATM   15  H1  UNL     1     -10.245  14.587  72.709  1.00  0.00     0.000 HD 
HETATM   16  C   UNL     1     -13.294  15.962  73.032  1.00  0.00    -0.663 C  
HETATM   17  C   UNL     1     -11.847  15.861  70.955  1.00  0.00    -0.428 C  
HETATM   18  C   UNL     1     -11.852  15.859  72.511  1.00  0.00    -0.508 C  
ENDBRANCH   6  10
BRANCH   8  19
HETATM   19  C   UNL     1     -11.761  14.868  67.513  1.00  0.00    -0.308 C  
BRANCH  19  20
HETATM   20  C   UNL     1     -10.356  15.460  67.468  1.00  0.00    -0.264 A  
HETATM   21  C   UNL     1      -8.537  16.358  66.114  1.00  0.00    -0.343 A  
HETATM   22  C   UNL     1     -10.787  16.327  65.172  1.00  0.00    -0.318 C  
HETATM   23  N   UNL     1     -11.517  16.533  64.295  1.00  0.00    -1.008 NA 
HETATM   24  C   UNL     1      -9.898  16.060  66.273  1.00  0.00    -0.331 A  
HETATM   25  C   UNL     1      -7.630  16.078  67.135  1.00  0.00    -0.246 A  
HETATM   26  C   UNL     1      -8.086  15.568  68.348  1.00  0.00    -0.136 A  
HETATM   27  C   UNL     1      -9.443  15.293  68.527  1.00  0.00    -0.200 A  
ENDBRANCH  19  20
ENDBRANCH   8  19
TORSDOF 3
ENDMDL
MODEL       12
REMARK 921   NORMALIZED FREE ENERGY PREDICTED BY IDOCK:   -7.19 KCAL/MOL
REMARK 922        TOTAL FREE ENERGY PREDICTED BY IDOCK:   -8.77 KCAL/MOL
REMARK 923 INTER-LIGAND FREE ENERGY PREDICTED BY IDOCK:   -7.85 KCAL/MOL
REMARK 924 INTRA-LIGAND FREE ENERGY PREDICTED BY IDOCK:   -0.92 KCAL/MOL
REMARK 927      BINDING AFFINITY PREDICTED BY RF-SCORE:    0.00 PKD
ROOT
HETATM    1  C   UNL     1     -12.022  14.694  64.465  1.00  0.00    -0.460 C  
HETATM    2  N   UNL     1     -11.623  13.483  65.157  1.00  0.00    -0.308 N  
HETATM    3  C   UNL     1     -11.022  12.476  64.452  1.00  0.00    -0.340 C  
HETATM    4  C   UNL     1     -10.534  11.343  65.243  1.00  0.00    -0.340 C  
HETATM    5  O   UNL     1     -10.863  12.466  63.235  1.00  0.00    -0.432 OA 
HETATM    6  C   UNL     1     -10.541  11.317  66.591  1.00  0.00    -0.262 C  
HETATM    7  O   UNL     1     -12.483  14.299  67.101  1.00  0.00    -0.266 OA 
HETATM    8  N   UNL     1     -11.153  12.416  67.222  1.00  0.00    -0.266 N  
HETATM    9  C   UNL     1     -11.811  13.440  66.523  1.00  0.00    -0.396 C  
ENDROOT
BRANCH   6  10
HETATM   10  N   UNL     1      -9.938  10.206  67.250  1.00  0.00    -0.186 NA 
HETATM   11  N   UNL     1      -7.240   9.880  65.852  1.00  0.00    -0.103 NA 
HETATM   12  C   UNL     1     -10.440   8.825  67.258  1.00  0.00    -0.283 C  
HETATM   13  C   UNL     1      -9.509   7.900  66.481  1.00  0.00    -0.277 C  
HETATM   14  H2  UNL     1      -8.033   9.817  65.214  1.00  0.00     0.000 HD 
HETATM   15  H1  UNL     1      -6.882  10.832  65.923  1.00  0.00     0.000 HD 
HETATM   16  C   UNL     1      -8.108   7.927  67.083  1.00  0.00    -0.117 C  
HETATM   17  C   UNL     1      -8.603  10.266  67.919  1.00  0.00    -0.118 C  
HETATM   18  C   UNL     1      -7.568   9.361  67.190  1.00  0.00    -0.091 C  
ENDBRANCH   6  10
BRANCH   8  19
HETATM   19  C   UNL     1     -10.911  12.758  68.626  1.00  0.00    -0.260 C  
BRANCH  19  20
HETATM   20  C   UNL     1     -11.886  12.221  69.668  1.00  0.00    -0.393 A  
HETATM   21  C   UNL     1     -13.157  12.630  71.709  1.00  0.00    -0.461 A  
HETATM   22  C   UNL     1     -12.375  14.547  70.417  1.00  0.00    -0.338 C  
HETATM   23  N   UNL     1     -12.276  15.692  70.272  1.00  0.00    -0.396 NA 
HETATM   24  C   UNL     1     -12.485  13.120  70.581  1.00  0.00    -0.363 A  
HETATM   25  C   UNL     1     -13.252  11.258  71.934  1.00  0.00    -0.491 A  
HETATM   26  C   UNL     1     -12.742  10.364  70.995  1.00  0.00    -0.490 A  
HETATM   27  C   UNL     1     -12.094  10.841  69.854  1.00  0.00    -0.410 A  
ENDBRANCH  19  20
ENDBRANCH   8  19
TORSDOF 3
ENDMDL
MODEL       13
REMARK 921   NORMALIZED FREE ENERGY PREDICTED BY IDOCK:   -7.15 KCAL/MOL
REMARK 922        TOTAL FREE ENERGY PREDICTED BY IDOCK:   -8.72 KCAL/MOL
REMARK 923 INTER-LIGAND FREE ENERGY PREDICTED BY IDOCK:   -7.51 KCAL/MOL
REMARK 924 INTRA-LIGAND FREE ENERGY PREDICTED BY IDOCK:   -1.21 KCAL/MOL
REMARK 927      BINDING AFFINITY PREDICTED BY RF-SCORE:    0.00 PKD
ROOT
HETATM    1  C   UNL     1     -13.106  11.306  71.845  1.00  0.00    -0.405 C  
HETATM    2  N   UNL     1     -12.227  11.432  70.697  1.00  0.00    -0.381 N  
HETATM    3  C   UNL     1     -11.577  10.324  70.228  1.00  0.00    -0.316 C  
HETATM    4  C   UNL     1     -10.811  10.506  68.992  1.00  0.00    -0.272 C  
HETATM    5  O   UNL     1     -11.600   9.216  70.757  1.00  0.00    -0.276 OA 
HETATM    6  C   UNL     1     -10.828  11.641  68.265  1.00  0.00    -0.219 C  
HETATM    7  O   UNL     1     -12.630  13.672  70.622  1.00  0.00    -0.327 OA 
HETATM    8  N   UNL     1     -11.553  12.713  68.819  1.00  0.00    -0.291 N  
HETATM    9  C   UNL     1     -12.148  12.668  70.089  1.00  0.00    -0.294 C  
ENDROOT
BRANCH   6  10
HETATM   10  N   UNL     1     -10.128  11.661  67.023  1.00  0.00    -0.207 NA 
HETATM   11  N   UNL     1     -10.067   8.732  66.152  1.00  0.00    -0.424 NA 
HETATM   12  C   UNL     1      -8.730  12.062  66.821  1.00  0.00    -0.192 C  
HETATM   13  C   UNL     1      -7.870  10.868  66.419  1.00  0.00    -0.154 C  
HETATM   14  H2  UNL     1      -9.638   8.889  67.064  1.00  0.00     0.000 HD 
HETATM   15  H1  UNL     1     -11.057   8.497  66.232  1.00  0.00     0.000 HD 
HETATM   16  C   UNL     1      -8.400  10.239  65.135  1.00  0.00    -0.162 C  
HETATM   17  C   UNL     1     -10.693  11.125  65.748  1.00  0.00    -0.188 C  
HETATM   18  C   UNL     1      -9.891   9.885  65.255  1.00  0.00    -0.303 C  
ENDBRANCH   6  10
BRANCH   8  19
HETATM   19  C   UNL     1     -12.011  13.853  68.023  1.00  0.00    -0.355 C  
BRANCH  19  20
HETATM   20  C   UNL     1     -10.963  14.844  67.526  1.00  0.00    -0.302 A  
HETATM   21  C   UNL     1      -9.691  15.732  65.645  1.00  0.00    -0.332 A  
HETATM   22  C   UNL     1     -11.764  14.528  65.188  1.00  0.00    -0.376 C  
HETATM   23  N   UNL     1     -12.536  14.098  64.439  1.00  0.00    -0.678 NA 
HETATM   24  C   UNL     1     -10.814  15.052  66.136  1.00  0.00    -0.329 A  
HETATM   25  C   UNL     1      -8.722  16.220  66.520  1.00  0.00    -0.327 A  
HETATM   26  C   UNL     1      -8.905  16.096  67.895  1.00  0.00    -0.182 A  
HETATM   27  C   UNL     1     -10.033  15.444  68.397  1.00  0.00    -0.215 A  
ENDBRANCH  19  20
ENDBRANCH   8  19
TORSDOF 3
ENDMDL
MODEL       14
REMARK 921   NORMALIZED FREE ENERGY PREDICTED BY IDOCK:   -7.15 KCAL/MOL
REMARK 922        TOTAL FREE ENERGY PREDICTED BY IDOCK:   -8.72 KCAL/MOL
REMARK 923 INTER-LIGAND FREE ENERGY PREDICTED BY IDOCK:   -8.08 KCAL/MOL
REMARK 924 INTRA-LIGAND FREE ENERGY PREDICTED BY IDOCK:   -0.64 KCAL/MOL
REMARK 927      BINDING AFFINITY PREDICTED BY RF-SCORE:    0.00 PKD
ROOT
HETATM    1  C   UNL     1     -11.731  15.141  72.171  1.00  0.00    -0.414 C  
HETATM    2  N   UNL     1     -11.672  14.649  70.807  1.00  0.00    -0.290 N  
HETATM    3  C   UNL     1     -10.938  15.337  69.879  1.00  0.00    -0.290 C  
HETATM    4  C   UNL     1     -10.823  14.709  68.560  1.00  0.00    -0.256 C  
HETATM    5  O   UNL     1     -10.379  16.412  70.079  1.00  0.00    -0.189 OA 
HETATM    6  C   UNL     1     -11.286  13.475  68.279  1.00  0.00    -0.274 C  
HETATM    7  O   UNL     1     -13.081  12.944  71.350  1.00  0.00    -0.334 OA 
HETATM    8  N   UNL     1     -11.999  12.838  69.312  1.00  0.00    -0.276 N  
HETATM    9  C   UNL     1     -12.312  13.459  70.531  1.00  0.00    -0.329 C  
ENDROOT
BRANCH   6  10
HETATM   10  N   UNL     1     -11.018  12.927  66.991  1.00  0.00    -0.257 NA 
HETATM   11  N   UNL     1     -10.960  15.360  65.142  1.00  0.00    -0.399 NA 
HETATM   12  C   UNL     1     -11.882  12.004  66.243  1.00  0.00    -0.148 C  
HETATM   13  C   UNL     1     -12.458  12.678  65.002  1.00  0.00    -0.556 C  
HETATM   14  H2  UNL     1     -11.841  15.259  65.645  1.00  0.00     0.000 HD 
HETATM   15  H1  UNL     1     -10.301  15.955  65.644  1.00  0.00     0.000 HD 
HETATM   16  C   UNL     1     -11.336  13.162  64.090  1.00  0.00    -0.440 C  
HETATM   17  C   UNL     1      -9.861  13.342  66.141  1.00  0.00    -0.281 C  
HETATM   18  C   UNL     1     -10.343  14.058  64.846  1.00  0.00    -0.409 C  
ENDBRANCH   6  10
BRANCH   8  19
HETATM   19  C   UNL     1     -12.223  11.391  69.344  1.00  0.00    -0.221 C  
BRANCH  19  20
HETATM   20  C   UNL     1     -11.063  10.499  69.774  1.00  0.00    -0.354 A  
HETATM   21  C   UNL     1     -10.060   9.112  71.512  1.00  0.00    -0.381 A  
HETATM   22  C   UNL     1     -12.455   9.567  71.618  1.00  0.00    -0.391 C  
HETATM   23  N   UNL     1     -13.479   9.458  72.149  1.00  0.00    -0.444 NA 
HETATM   24  C   UNL     1     -11.190   9.717  70.945  1.00  0.00    -0.429 A  
HETATM   25  C   UNL     1      -8.807   9.265  70.920  1.00  0.00    -0.252 A  
HETATM   26  C   UNL     1      -8.686   9.960  69.720  1.00  0.00    -0.229 A  
HETATM   27  C   UNL     1      -9.810  10.544  69.132  1.00  0.00    -0.233 A  
ENDBRANCH  19  20
ENDBRANCH   8  19
TORSDOF 3
ENDMDL
MODEL       15
REMARK 921   NORMALIZED FREE ENERGY PREDICTED BY IDOCK:   -7.14 KCAL/MOL
REMARK 922        TOTAL FREE ENERGY PREDICTED BY IDOCK:   -8.71 KCAL/MOL
REMARK 923 INTER-LIGAND FREE ENERGY PREDICTED BY IDOCK:   -7.82 KCAL/MOL
REMARK 924 INTRA-LIGAND FREE ENERGY PREDICTED BY IDOCK:   -0.89 KCAL/MOL
REMARK 927      BINDING AFFINITY PREDICTED BY RF-SCORE:    0.00 PKD
ROOT
HETATM    1  C   UNL     1     -11.158  16.778  68.261  1.00  0.00    -0.259 C  
HETATM    2  N   UNL     1     -11.167  15.358  68.558  1.00  0.00    -0.299 N  
HETATM    3  C   UNL     1     -11.309  14.948  69.856  1.00  0.00    -0.277 C  
HETATM    4  C   UNL     1     -11.436  13.502  70.060  1.00  0.00    -0.141 C  
HETATM    5  O   UNL     1     -11.343  15.693  70.831  1.00  0.00    -0.320 OA 
HETATM    6  C   UNL     1     -11.543  12.614  69.053  1.00  0.00    -0.317 C  
HETATM    7  O   UNL     1     -10.828  14.883  66.357  1.00  0.00    -0.313 OA 
HETATM    8  N   UNL     1     -11.416  13.141  67.754  1.00  0.00    -0.293 N  
HETATM    9  C   UNL     1     -11.100  14.484  67.493  1.00  0.00    -0.307 C  
ENDROOT
BRANCH   6  10
HETATM   10  N   UNL     1     -11.773  11.245  69.378  1.00  0.00    -0.308 NA 
HETATM   11  N   UNL     1     -13.066  11.340  72.145  1.00  0.00    -0.502 NA 
HETATM   12  C   UNL     1     -10.745  10.212  69.564  1.00  0.00    -0.249 C  
HETATM   13  C   UNL     1     -10.680   9.760  71.019  1.00  0.00    -0.342 C  
HETATM   14  H2  UNL     1     -12.149  11.785  72.115  1.00  0.00     0.000 HD 
HETATM   15  H1  UNL     1     -13.819  12.007  71.972  1.00  0.00     0.000 HD 
HETATM   16  C   UNL     1     -12.029   9.208  71.466  1.00  0.00    -0.422 C  
HETATM   17  C   UNL     1     -13.118  10.692  69.725  1.00  0.00     0.560 C  
HETATM   18  C   UNL     1     -13.162  10.212  71.205  1.00  0.00    -0.355 C  
ENDBRANCH   6  10
BRANCH   8  19
HETATM   19  C   UNL     1     -11.889  12.433  66.562  1.00  0.00    -0.339 C  
BRANCH  19  20
HETATM   20  C   UNL     1     -10.845  11.798  65.649  1.00  0.00    -0.342 A  
HETATM   21  C   UNL     1     -10.152  11.248  63.377  1.00  0.00    -0.445 A  
HETATM   22  C   UNL     1     -11.803  13.015  63.698  1.00  0.00    -0.516 C  
HETATM   23  N   UNL     1     -12.525  13.812  63.265  1.00  0.00    -0.762 NA 
HETATM   24  C   UNL     1     -10.915  12.028  64.256  1.00  0.00    -0.401 A  
HETATM   25  C   UNL     1      -9.310  10.251  63.867  1.00  0.00    -0.337 A  
HETATM   26  C   UNL     1      -9.169  10.076  65.242  1.00  0.00    -0.268 A  
HETATM   27  C   UNL     1      -9.904  10.866  66.128  1.00  0.00    -0.268 A  
ENDBRANCH  19  20
ENDBRANCH   8  19
TORSDOF 3
ENDMDL
MODEL       16
REMARK 921   NORMALIZED FREE ENERGY PREDICTED BY IDOCK:   -7.10 KCAL/MOL
REMARK 922        TOTAL FREE ENERGY PREDICTED BY IDOCK:   -8.66 KCAL/MOL
REMARK 923 INTER-LIGAND FREE ENERGY PREDICTED BY IDOCK:   -8.30 KCAL/MOL
REMARK 924 INTRA-LIGAND FREE ENERGY PREDICTED BY IDOCK:   -0.36 KCAL/MOL
REMARK 927      BINDING AFFINITY PREDICTED BY RF-SCORE:    0.00 PKD
ROOT
HETATM    1  C   UNL     1      -8.210  19.183  66.787  1.00  0.00    -0.280 C  
HETATM    2  N   UNL     1      -9.018  18.153  67.412  1.00  0.00    -0.255 N  
HETATM    3  C   UNL     1      -9.622  18.414  68.611  1.00  0.00    -0.340 C  
HETATM    4  C   UNL     1     -10.523  17.373  69.115  1.00  0.00    -0.231 C  
HETATM    5  O   UNL     1      -9.469  19.439  69.270  1.00  0.00    -0.319 OA 
HETATM    6  C   UNL     1     -10.861  16.275  68.410  1.00  0.00    -0.334 C  
HETATM    7  O   UNL     1      -8.520  16.717  65.716  1.00  0.00    -0.472 OA 
HETATM    8  N   UNL     1     -10.208  16.116  67.173  1.00  0.00    -0.275 N  
HETATM    9  C   UNL     1      -9.193  16.973  66.720  1.00  0.00    -0.252 C  
ENDROOT
BRANCH   6  10
HETATM   10  N   UNL     1     -11.832  15.388  68.960  1.00  0.00    -0.348 NA 
HETATM   11  N   UNL     1     -10.945  15.017  71.861  1.00  0.00    -0.391 NA 
HETATM   12  C   UNL     1     -12.076  14.001  68.543  1.00  0.00    -0.294 C  
HETATM   13  C   UNL     1     -11.668  13.020  69.637  1.00  0.00    -0.364 C  
HETATM   14  H2  UNL     1     -10.230  14.749  71.185  1.00  0.00     0.000 HD 
HETATM   15  H1  UNL     1     -10.851  15.991  72.150  1.00  0.00     0.000 HD 
HETATM   16  C   UNL     1     -12.444  13.300  70.919  1.00  0.00    -0.424 C  
HETATM   17  C   UNL     1     -12.655  15.709  70.166  1.00  0.00    -0.206 C  
HETATM   18  C   UNL     1     -12.303  14.767  71.353  1.00  0.00    -0.337 C  
ENDBRANCH   6  10
BRANCH   8  19
HETATM   19  C   UNL     1     -10.716  15.237  66.117  1.00  0.00    -0.320 C  
BRANCH  19  20
HETATM   20  C   UNL     1     -10.104  13.846  65.991  1.00  0.00    -0.324 A  
HETATM   21  C   UNL     1     -10.318  11.565  65.155  1.00  0.00    -0.329 A  
HETATM   22  C   UNL     1     -11.678  13.314  64.135  1.00  0.00    -0.420 C  
HETATM   23  N   UNL     1     -12.484  13.650  63.372  1.00  0.00    -0.800 NA 
HETATM   24  C   UNL     1     -10.677  12.918  65.092  1.00  0.00    -0.326 A  
HETATM   25  C   UNL     1      -9.385  11.126  66.094  1.00  0.00    -0.227 A  
HETATM   26  C   UNL     1      -8.751  12.046  66.925  1.00  0.00    -0.193 A  
HETATM   27  C   UNL     1      -9.081  13.401  66.851  1.00  0.00    -0.237 A  
ENDBRANCH  19  20
ENDBRANCH   8  19
TORSDOF 3
ENDMDL
MODEL       17
REMARK 921   NORMALIZED FREE ENERGY PREDICTED BY IDOCK:   -6.99 KCAL/MOL
REMARK 922        TOTAL FREE ENERGY PREDICTED BY IDOCK:   -8.53 KCAL/MOL
REMARK 923 INTER-LIGAND FREE ENERGY PREDICTED BY IDOCK:   -7.94 KCAL/MOL
REMARK 924 INTRA-LIGAND FREE ENERGY PREDICTED BY IDOCK:   -0.59 KCAL/MOL
REMARK 927      BINDING AFFINITY PREDICTED BY RF-SCORE:    0.00 PKD
ROOT
HETATM    1  C   UNL     1     -11.085  16.529  68.624  1.00  0.00    -0.329 C  
HETATM    2  N   UNL     1     -11.127  15.128  68.997  1.00  0.00    -0.241 N  
HETATM    3  C   UNL     1     -12.037  14.711  69.929  1.00  0.00    -0.335 C  
HETATM    4  C   UNL     1     -12.104  13.264  70.158  1.00  0.00    -0.403 C  
HETATM    5  O   UNL     1     -12.786  15.449  70.564  1.00  0.00    -0.410 OA 
HETATM    6  C   UNL     1     -11.423  12.362  69.423  1.00  0.00    -0.271 C  
HETATM    7  O   UNL     1      -9.379  14.694  67.604  1.00  0.00    -0.195 OA 
HETATM    8  N   UNL     1     -10.537  12.893  68.467  1.00  0.00    -0.251 N  
HETATM    9  C   UNL     1     -10.281  14.266  68.330  1.00  0.00    -0.244 C  
ENDROOT
BRANCH   6  10
HETATM   10  N   UNL     1     -11.654  10.977  69.668  1.00  0.00    -0.287 NA 
HETATM   11  N   UNL     1     -13.250  10.933  72.274  1.00  0.00    -0.556 NA 
HETATM   12  C   UNL     1     -10.628   9.958  69.929  1.00  0.00    -0.273 C  
HETATM   13  C   UNL     1     -10.714   9.449  71.364  1.00  0.00    -0.407 C  
HETATM   14  H2  UNL     1     -12.346  11.397  72.364  1.00  0.00     0.000 HD 
HETATM   15  H1  UNL     1     -13.995  11.591  72.043  1.00  0.00     0.000 HD 
HETATM   16  C   UNL     1     -12.090   8.852  71.635  1.00  0.00    -0.415 C  
HETATM   17  C   UNL     1     -13.015  10.383  69.841  1.00  0.00     0.312 C  
HETATM   18  C   UNL     1     -13.212   9.843  71.287  1.00  0.00    -0.383 C  
ENDBRANCH   6  10
BRANCH   8  19
HETATM   19  C   UNL     1     -10.030  12.110  67.338  1.00  0.00    -0.199 C  
BRANCH  19  20
HETATM   20  C   UNL     1     -10.881  12.046  66.075  1.00  0.00    -0.329 A  
HETATM   21  C   UNL     1     -11.000  11.554  63.689  1.00  0.00    -0.482 A  
HETATM   22  C   UNL     1      -9.170  10.596  64.988  1.00  0.00    -0.211 C  
HETATM   23  N   UNL     1      -8.203   9.961  65.051  1.00  0.00    -0.136 NA 
HETATM   24  C   UNL     1     -10.370  11.391  64.930  1.00  0.00    -0.347 A  
HETATM   25  C   UNL     1     -12.139  12.350  63.574  1.00  0.00    -0.651 A  
HETATM   26  C   UNL     1     -12.699  12.927  64.711  1.00  0.00    -0.442 A  
HETATM   27  C   UNL     1     -12.096  12.748  65.958  1.00  0.00    -0.458 A  
ENDBRANCH  19  20
ENDBRANCH   8  19
TORSDOF 3
ENDMDL
MODEL       18
REMARK 921   NORMALIZED FREE ENERGY PREDICTED BY IDOCK:   -6.98 KCAL/MOL
REMARK 922        TOTAL FREE ENERGY PREDICTED BY IDOCK:   -8.52 KCAL/MOL
REMARK 923 INTER-LIGAND FREE ENERGY PREDICTED BY IDOCK:   -7.73 KCAL/MOL
REMARK 924 INTRA-LIGAND FREE ENERGY PREDICTED BY IDOCK:   -0.79 KCAL/MOL
REMARK 927      BINDING AFFINITY PREDICTED BY RF-SCORE:    0.00 PKD
ROOT
HETATM    1  C   UNL     1     -13.387  15.392  72.905  1.00  0.00    -0.535 C  
HETATM    2  N   UNL     1     -12.618  14.837  71.807  1.00  0.00    -0.319 N  
HETATM    3  C   UNL     1     -12.799  13.527  71.458  1.00  0.00    -0.352 C  
HETATM    4  C   UNL     1     -12.083  13.077  70.261  1.00  0.00    -0.388 C  
HETATM    5  O   UNL     1     -13.509  12.728  72.063  1.00  0.00    -0.495 OA 
HETATM    6  C   UNL     1     -11.387  13.903  69.455  1.00  0.00    -0.258 C  
HETATM    7  O   UNL     1     -11.537  16.824  71.546  1.00  0.00    -0.176 OA 
HETATM    8  N   UNL     1     -11.288  15.239  69.885  1.00  0.00    -0.267 N  
HETATM    9  C   UNL     1     -11.784  15.693  71.117  1.00  0.00    -0.413 C  
ENDROOT
BRANCH   6  10
HETATM   10  N   UNL     1     -10.825  13.368  68.259  1.00  0.00    -0.248 NA 
HETATM   11  N   UNL     1     -11.883  10.503  68.152  1.00  0.00    -0.774 NA 
HETATM   12  C   UNL     1      -9.395  13.169  67.985  1.00  0.00    -0.219 C  
HETATM   13  C   UNL     1      -9.054  11.684  67.910  1.00  0.00    -0.171 C  
HETATM   14  H2  UNL     1     -11.357  10.705  69.002  1.00  0.00     0.000 HD 
HETATM   15  H1  UNL     1     -12.882  10.672  68.272  1.00  0.00     0.000 HD 
HETATM   16  C   UNL     1      -9.871  11.005  66.817  1.00  0.00    -0.229 C  
HETATM   17  C   UNL     1     -11.641  12.787  67.150  1.00  0.00    -0.364 C  
HETATM   18  C   UNL     1     -11.375  11.261  66.998  1.00  0.00    -0.187 C  
ENDBRANCH   6  10
BRANCH   8  19
HETATM   19  C   UNL     1     -10.933  16.337  68.982  1.00  0.00    -0.325 C  
BRANCH  19  20
HETATM   20  C   UNL     1      -9.484  16.810  68.969  1.00  0.00    -0.217 A  
HETATM   21  C   UNL     1      -7.788  18.240  67.955  1.00  0.00    -0.255 A  
HETATM   22  C   UNL     1     -10.139  18.803  67.626  1.00  0.00    -0.367 C  
HETATM   23  N   UNL     1     -10.959  19.479  67.162  1.00  0.00    -0.447 NA 
HETATM   24  C   UNL     1      -9.136  17.949  68.208  1.00  0.00    -0.280 A  
HETATM   25  C   UNL     1      -6.782  17.418  68.461  1.00  0.00    -0.195 A  
HETATM   26  C   UNL     1      -7.112  16.344  69.284  1.00  0.00    -0.222 A  
HETATM   27  C   UNL     1      -8.450  16.062  69.565  1.00  0.00    -0.024 A  
ENDBRANCH  19  20
ENDBRANCH   8  19
TORSDOF 3
ENDMDL
MODEL       19
REMARK 921   NORMALIZED FREE ENERGY PREDICTED BY IDOCK:   -6.97 KCAL/MOL
REMARK 922        TOTAL FREE ENERGY PREDICTED BY IDOCK:   -8.52 KCAL/MOL
REMARK 923 INTER-LIGAND FREE ENERGY PREDICTED BY IDOCK:   -7.31 KCAL/MOL
REMARK 924 INTRA-LIGAND FREE ENERGY PREDICTED BY IDOCK:   -1.21 KCAL/MOL
REMARK 927      BINDING AFFINITY PREDICTED BY RF-SCORE:    0.00 PKD
ROOT
HETATM    1  C   UNL     1     -12.750  13.889  70.636  1.00  0.00    -0.281 C  
HETATM    2  N   UNL     1     -11.921  12.794  70.170  1.00  0.00    -0.337 N  
HETATM    3  C   UNL     1     -12.172  11.527  70.620  1.00  0.00    -0.378 C  
HETATM    4  C   UNL     1     -11.376  10.459  70.008  1.00  0.00    -0.384 C  
HETATM    5  O   UNL     1     -13.004  11.234  71.475  1.00  0.00    -0.428 OA 
HETATM    6  C   UNL     1     -10.535  10.657  68.973  1.00  0.00    -0.214 C  
HETATM    7  O   UNL     1     -10.659  14.251  68.958  1.00  0.00    -0.248 OA 
HETATM    8  N   UNL     1     -10.371  11.994  68.564  1.00  0.00    -0.217 N  
HETATM    9  C   UNL     1     -10.952  13.083  69.231  1.00  0.00    -0.067 C  
ENDROOT
BRANCH   6  10
HETATM   10  N   UNL     1      -9.898   9.522  68.391  1.00  0.00    -0.154 NA 
HETATM   11  N   UNL     1     -11.489   7.142  69.460  1.00  0.00    -0.514 NA 
HETATM   12  C   UNL     1      -8.515   9.087  68.626  1.00  0.00    -0.128 C  
HETATM   13  C   UNL     1      -8.479   7.767  69.389  1.00  0.00    -0.134 C  
HETATM   14  H2  UNL     1     -11.086   7.720  70.197  1.00  0.00     0.000 HD 
HETATM   15  H1  UNL     1     -12.437   7.434  69.221  1.00  0.00     0.000 HD 
HETATM   16  C   UNL     1      -9.218   6.683  68.614  1.00  0.00    -0.128 C  
HETATM   17  C   UNL     1     -10.614   8.512  67.553  1.00  0.00    -0.214 C  
HETATM   18  C   UNL     1     -10.646   7.123  68.254  1.00  0.00    -0.188 C  
ENDBRANCH   6  10
BRANCH   8  19
HETATM   19  C   UNL     1      -9.836  12.359  67.250  1.00  0.00    -0.207 C  
BRANCH  19  20
HETATM   20  C   UNL     1     -10.724  12.133  66.031  1.00  0.00    -0.308 A  
HETATM   21  C   UNL     1     -10.898  11.397  63.712  1.00  0.00    -0.468 A  
HETATM   22  C   UNL     1      -8.989  10.648  65.034  1.00  0.00    -0.199 C  
HETATM   23  N   UNL     1      -7.993  10.061  65.126  1.00  0.00    -0.139 NA 
HETATM   24  C   UNL     1     -10.222  11.386  64.941  1.00  0.00    -0.330 A  
HETATM   25  C   UNL     1     -12.073  12.131  63.560  1.00  0.00    -0.649 A  
HETATM   26  C   UNL     1     -12.621  12.799  64.652  1.00  0.00    -0.491 A  
HETATM   27  C   UNL     1     -11.971  12.772  65.888  1.00  0.00    -0.506 A  
ENDBRANCH  19  20
ENDBRANCH   8  19
TORSDOF 3
ENDMDL
MODEL       20
REMARK 921   NORMALIZED FREE ENERGY PREDICTED BY IDOCK:   -6.97 KCAL/MOL
REMARK 922        TOTAL FREE ENERGY PREDICTED BY IDOCK:   -8.52 KCAL/MOL
REMARK 923 INTER-LIGAND FREE ENERGY PREDICTED BY IDOCK:   -8.05 KCAL/MOL
REMARK 924 INTRA-LIGAND FREE ENERGY PREDICTED BY IDOCK:   -0.47 KCAL/MOL
REMARK 927      BINDING AFFINITY PREDICTED BY RF-SCORE:    0.00 PKD
ROOT
HETATM    1  C   UNL     1     -12.857  11.436  71.504  1.00  0.00    -0.403 C  
HETATM    2  N   UNL     1     -12.411  12.478  70.599  1.00  0.00    -0.337 N  
HETATM    3  C   UNL     1     -12.345  13.769  71.046  1.00  0.00    -0.372 C  
HETATM    4  C   UNL     1     -11.765  14.741  70.115  1.00  0.00    -0.352 C  
HETATM    5  O   UNL     1     -12.725  14.153  72.149  1.00  0.00    -0.332 OA 
HETATM    6  C   UNL     1     -11.201  14.401  68.939  1.00  0.00    -0.262 C  
HETATM    7  O   UNL     1     -12.211  10.950  68.922  1.00  0.00    -0.494 OA 
HETATM    8  N   UNL     1     -11.292  13.041  68.586  1.00  0.00    -0.270 N  
HETATM    9  C   UNL     1     -12.003  12.094  69.338  1.00  0.00    -0.270 C  
ENDROOT
BRANCH   6  10
HETATM   10  N   UNL     1     -10.571  15.422  68.169  1.00  0.00    -0.257 NA 
HETATM   11  N   UNL     1      -7.855  15.807  69.518  1.00  0.00    -0.207 NA 
HETATM   12  C   UNL     1     -11.032  16.809  68.024  1.00  0.00    -0.296 C  
HETATM   13  C   UNL     1     -10.069  17.779  68.701  1.00  0.00    -0.384 C  
HETATM   14  H2  UNL     1      -8.642  15.956  70.149  1.00  0.00     0.000 HD 
HETATM   15  H1  UNL     1      -7.525  14.841  69.542  1.00  0.00     0.000 HD 
HETATM   16  C   UNL     1      -8.674  17.651  68.100  1.00  0.00    -0.265 C  
HETATM   17  C   UNL     1      -9.242  15.255  67.505  1.00  0.00    -0.199 C  
HETATM   18  C   UNL     1      -8.177  16.198  68.136  1.00  0.00    -0.157 C  
ENDBRANCH   6  10
BRANCH   8  19
HETATM   19  C   UNL     1     -10.422  12.425  67.581  1.00  0.00    -0.216 C  
BRANCH  19  20
HETATM   20  C   UNL     1     -11.002  12.174  66.193  1.00  0.00    -0.335 A  
HETATM   21  C   UNL     1     -10.644  11.352  63.925  1.00  0.00    -0.452 A  
HETATM   22  C   UNL     1      -9.132  10.606  65.689  1.00  0.00    -0.183 C  
HETATM   23  N   UNL     1      -8.209   9.997  66.035  1.00  0.00    -0.123 NA 
HETATM   24  C   UNL     1     -10.281  11.372  65.279  1.00  0.00    -0.320 A  
HETATM   25  C   UNL     1     -11.723  12.111  63.472  1.00  0.00    -0.579 A  
HETATM   26  C   UNL     1     -12.491  12.835  64.380  1.00  0.00    -0.476 A  
HETATM   27  C   UNL     1     -12.155  12.840  65.736  1.00  0.00    -0.505 A  
ENDBRANCH  19  20
ENDBRANCH   8  19
TORSDOF 3
ENDMDL
MODEL       21
REMARK 921   NORMALIZED FREE ENERGY PREDICTED BY IDOCK:   -6.94 KCAL/MOL
REMARK 922        TOTAL FREE ENERGY PREDICTED BY IDOCK:   -8.48 KCAL/MOL
REMARK 923 INTER-LIGAND FREE ENERGY PREDICTED BY IDOCK:   -7.47 KCAL/MOL
REMARK 924 INTRA-LIGAND FREE ENERGY PREDICTED BY IDOCK:   -1.00 KCAL/MOL
REMARK 927      BINDING AFFINITY PREDICTED BY RF-SCORE:    0.00 PKD
ROOT
HETATM    1  C   UNL     1     -12.331  12.041  63.759  1.00  0.00    -0.496 C  
HETATM    2  N   UNL     1     -11.490  13.050  64.376  1.00  0.00    -0.346 N  
HETATM    3  C   UNL     1     -11.837  14.368  64.267  1.00  0.00    -0.364 C  
HETATM    4  C   UNL     1     -11.010  15.314  65.023  1.00  0.00    -0.450 C  
HETATM    5  O   UNL     1     -12.775  14.797  63.600  1.00  0.00    -0.713 OA 
HETATM    6  C   UNL     1     -10.045  14.936  65.884  1.00  0.00    -0.325 C  
HETATM    7  O   UNL     1     -10.042  11.434  65.068  1.00  0.00    -0.246 OA 
HETATM    8  N   UNL     1      -9.787  13.554  65.948  1.00  0.00    -0.272 N  
HETATM    9  C   UNL     1     -10.406  12.613  65.111  1.00  0.00    -0.292 C  
ENDROOT
BRANCH   6  10
HETATM   10  N   UNL     1      -9.383  15.944  66.644  1.00  0.00    -0.230 NA 
HETATM   11  N   UNL     1      -6.582  14.812  67.107  1.00  0.00    -0.321 NA 
HETATM   12  C   UNL     1      -9.749  16.395  67.993  1.00  0.00    -0.235 C  
HETATM   13  C   UNL     1      -8.686  15.996  69.012  1.00  0.00    -0.245 C  
HETATM   14  H2  UNL     1      -7.323  14.208  67.462  1.00  0.00     0.000 HD 
HETATM   15  H1  UNL     1      -6.321  14.572  66.150  1.00  0.00     0.000 HD 
HETATM   16  C   UNL     1      -7.336  16.596  68.634  1.00  0.00    -0.203 C  
HETATM   17  C   UNL     1      -8.105  16.593  66.220  1.00  0.00    -0.326 C  
HETATM   18  C   UNL     1      -6.944  16.235  67.193  1.00  0.00    -0.208 C  
ENDBRANCH   6  10
BRANCH   8  19
HETATM   19  C   UNL     1      -9.086  12.931  67.073  1.00  0.00    -0.228 C  
BRANCH  19  20
HETATM   20  C   UNL     1      -9.927  12.384  68.222  1.00  0.00    -0.224 A  
HETATM   21  C   UNL     1     -10.641  10.443  69.515  1.00  0.00    -0.274 A  
HETATM   22  C   UNL     1      -8.581  10.287  68.217  1.00  0.00    -0.122 C  
HETATM   23  N   UNL     1      -7.666   9.679  67.845  1.00  0.00    -0.087 NA 
HETATM   24  C   UNL     1      -9.712  11.058  68.664  1.00  0.00    -0.198 A  
HETATM   25  C   UNL     1     -11.774  11.134  69.940  1.00  0.00    -0.433 A  
HETATM   26  C   UNL     1     -11.949  12.468  69.580  1.00  0.00    -0.339 A  
HETATM   27  C   UNL     1     -11.016  13.100  68.756  1.00  0.00    -0.298 A  
ENDBRANCH  19  20
ENDBRANCH   8  19
TORSDOF 3
ENDMDL
MODEL       22
REMARK 921   NORMALIZED FREE ENERGY PREDICTED BY IDOCK:   -6.90 KCAL/MOL
REMARK 922        TOTAL FREE ENERGY PREDICTED BY IDOCK:   -8.43 KCAL/MOL
REMARK 923 INTER-LIGAND FREE ENERGY PREDICTED BY IDOCK:   -7.76 KCAL/MOL
REMARK 924 INTRA-LIGAND FREE ENERGY PREDICTED BY IDOCK:   -0.67 KCAL/MOL
REMARK 927      BINDING AFFINITY PREDICTED BY RF-SCORE:    0.00 PKD
ROOT
HETATM    1  C   UNL     1      -7.204  15.288  67.230  1.00  0.00    -0.178 C  
HETATM    2  N   UNL     1      -8.375  14.994  68.035  1.00  0.00    -0.144 N  
HETATM    3  C   UNL     1      -8.921  15.983  68.806  1.00  0.00    -0.226 C  
HETATM    4  C   UNL     1     -10.173  15.645  69.489  1.00  0.00    -0.277 C  
HETATM    5  O   UNL     1      -8.446  17.106  68.953  1.00  0.00    -0.259 OA 
HETATM    6  C   UNL     1     -10.842  14.492  69.291  1.00  0.00    -0.252 C  
HETATM    7  O   UNL     1      -8.326  12.828  67.335  1.00  0.00    -0.170 OA 
HETATM    8  N   UNL     1     -10.211  13.554  68.454  1.00  0.00    -0.242 N  
HETATM    9  C   UNL     1      -8.924  13.734  67.924  1.00  0.00    -0.193 C  
ENDROOT
BRANCH   6  10
HETATM   10  N   UNL     1     -12.106  14.324  69.929  1.00  0.00    -0.329 NA 
HETATM   11  N   UNL     1     -11.942  16.116  72.399  1.00  0.00    -0.527 NA 
HETATM   12  C   UNL     1     -12.631  13.076  70.499  1.00  0.00    -0.147 C  
HETATM   13  C   UNL     1     -12.728  13.167  72.018  1.00  0.00    -0.188 C  
HETATM   14  H2  UNL     1     -11.208  15.409  72.366  1.00  0.00     0.000 HD 
HETATM   15  H1  UNL     1     -11.646  16.993  71.969  1.00  0.00     0.000 HD 
HETATM   16  C   UNL     1     -13.635  14.323  72.425  1.00  0.00    -0.599 C  
HETATM   17  C   UNL     1     -13.031  15.455  70.241  1.00  0.00    -0.167 C  
HETATM   18  C   UNL     1     -13.189  15.644  71.778  1.00  0.00    -0.465 C  
ENDBRANCH   6  10
BRANCH   8  19
HETATM   19  C   UNL     1     -10.934  12.451  67.815  1.00  0.00    -0.228 C  
BRANCH  19  20
HETATM   20  C   UNL     1     -11.450  12.665  66.396  1.00  0.00    -0.409 A  
HETATM   21  C   UNL     1     -11.279  12.100  64.029  1.00  0.00    -0.458 A  
HETATM   22  C   UNL     1     -10.353  10.549  65.670  1.00  0.00    -0.204 C  
HETATM   23  N   UNL     1      -9.791   9.569  65.926  1.00  0.00    -0.285 NA 
HETATM   24  C   UNL     1     -11.050  11.774  65.374  1.00  0.00    -0.336 A  
HETATM   25  C   UNL     1     -11.911  13.295  63.691  1.00  0.00    -0.547 A  
HETATM   26  C   UNL     1     -12.386  14.137  64.693  1.00  0.00    -0.432 A  
HETATM   27  C   UNL     1     -12.189  13.809  66.036  1.00  0.00    -0.495 A  
ENDBRANCH  19  20
ENDBRANCH   8  19
TORSDOF 3
ENDMDL
MODEL       23
REMARK 921   NORMALIZED FREE ENERGY PREDICTED BY IDOCK:   -6.87 KCAL/MOL
REMARK 922        TOTAL FREE ENERGY PREDICTED BY IDOCK:   -8.39 KCAL/MOL
REMARK 923 INTER-LIGAND FREE ENERGY PREDICTED BY IDOCK:   -8.00 KCAL/MOL
REMARK 924 INTRA-LIGAND FREE ENERGY PREDICTED BY IDOCK:   -0.39 KCAL/MOL
REMARK 927      BINDING AFFINITY PREDICTED BY RF-SCORE:    0.00 PKD
ROOT
HETATM    1  C   UNL     1     -10.674  11.702  64.474  1.00  0.00    -0.322 C  
HETATM    2  N   UNL     1     -10.925  11.346  65.858  1.00  0.00    -0.249 N  
HETATM    3  C   UNL     1     -10.284  10.264  66.397  1.00  0.00    -0.225 C  
HETATM    4  C   UNL     1     -10.491  10.046  67.832  1.00  0.00    -0.276 C  
HETATM    5  O   UNL     1      -9.562   9.490  65.774  1.00  0.00    -0.232 OA 
HETATM    6  C   UNL     1     -11.154  10.908  68.628  1.00  0.00    -0.252 C  
HETATM    7  O   UNL     1     -12.425  13.050  66.035  1.00  0.00    -0.463 OA 
HETATM    8  N   UNL     1     -11.749  12.007  67.981  1.00  0.00    -0.340 N  
HETATM    9  C   UNL     1     -11.755  12.172  66.587  1.00  0.00    -0.313 C  
ENDROOT
BRANCH   6  10
HETATM   10  N   UNL     1     -11.195  10.642  70.028  1.00  0.00    -0.297 NA 
HETATM   11  N   UNL     1     -11.583   7.616  70.204  1.00  0.00    -0.483 NA 
HETATM   12  C   UNL     1     -12.208  11.128  70.975  1.00  0.00    -0.333 C  
HETATM   13  C   UNL     1     -13.062   9.980  71.500  1.00  0.00    -0.531 C  
HETATM   14  H2  UNL     1     -12.320   8.085  69.679  1.00  0.00     0.000 HD 
HETATM   15  H1  UNL     1     -10.826   7.299  69.597  1.00  0.00     0.000 HD 
HETATM   16  C   UNL     1     -12.188   8.941  72.194  1.00  0.00    -0.437 C  
HETATM   17  C   UNL     1     -10.272   9.689  70.716  1.00  0.00    -0.260 C  
HETATM   18  C   UNL     1     -11.048   8.464  71.281  1.00  0.00    -0.255 C  
ENDBRANCH   6  10
BRANCH   8  19
HETATM   19  C   UNL     1     -12.151  13.222  68.693  1.00  0.00    -0.222 C  
BRANCH  19  20
HETATM   20  C   UNL     1     -11.089  14.287  68.942  1.00  0.00    -0.283 A  
HETATM   21  C   UNL     1     -10.560  16.521  69.766  1.00  0.00    -0.265 A  
HETATM   22  C   UNL     1     -12.625  15.460  70.516  1.00  0.00    -0.423 C  
HETATM   23  N   UNL     1     -13.610  15.488  71.126  1.00  0.00    -0.561 NA 
HETATM   24  C   UNL     1     -11.409  15.405  69.747  1.00  0.00    -0.317 A  
HETATM   25  C   UNL     1      -9.393  16.533  69.004  1.00  0.00    -0.239 A  
HETATM   26  C   UNL     1      -9.026  15.403  68.278  1.00  0.00    -0.185 A  
HETATM   27  C   UNL     1      -9.850  14.275  68.274  1.00  0.00    -0.235 A  
ENDBRANCH  19  20
ENDBRANCH   8  19
TORSDOF 3
ENDMDL
MODEL       24
REMARK 921   NORMALIZED FREE ENERGY PREDICTED BY IDOCK:   -6.86 KCAL/MOL
REMARK 922        TOTAL FREE ENERGY PREDICTED BY IDOCK:   -8.39 KCAL/MOL
REMARK 923 INTER-LIGAND FREE ENERGY PREDICTED BY IDOCK:   -7.53 KCAL/MOL
REMARK 924 INTRA-LIGAND FREE ENERGY PREDICTED BY IDOCK:   -0.86 KCAL/MOL
REMARK 927      BINDING AFFINITY PREDICTED BY RF-SCORE:    0.00 PKD
ROOT
HETATM    1  C   UNL     1     -12.626  12.005  63.465  1.00  0.00    -0.507 C  
HETATM    2  N   UNL     1     -11.646  12.758  64.225  1.00  0.00    -0.350 N  
HETATM    3  C   UNL     1     -11.816  14.106  64.385  1.00  0.00    -0.428 C  
HETATM    4  C   UNL     1     -10.856  14.772  65.270  1.00  0.00    -0.395 C  
HETATM    5  O   UNL     1     -12.700  14.773  63.854  1.00  0.00    -0.794 OA 
HETATM    6  C   UNL     1      -9.935  14.114  66.000  1.00  0.00    -0.322 C  
HETATM    7  O   UNL     1     -10.415  10.867  64.532  1.00  0.00    -0.346 OA 
HETATM    8  N   UNL     1      -9.863  12.724  65.788  1.00  0.00    -0.247 N  
HETATM    9  C   UNL     1     -10.618  12.052  64.814  1.00  0.00    -0.297 C  
ENDROOT
BRANCH   6  10
HETATM   10  N   UNL     1      -9.129  14.861  66.909  1.00  0.00    -0.235 NA 
HETATM   11  N   UNL     1     -11.109  16.726  68.302  1.00  0.00    -0.328 NA 
HETATM   12  C   UNL     1      -8.048  15.788  66.550  1.00  0.00    -0.196 C  
HETATM   13  C   UNL     1      -8.425  17.226  66.886  1.00  0.00    -0.251 C  
HETATM   14  H2  UNL     1     -11.098  16.837  67.289  1.00  0.00     0.000 HD 
HETATM   15  H1  UNL     1     -11.813  16.052  68.605  1.00  0.00     0.000 HD 
HETATM   16  C   UNL     1      -8.728  17.364  68.374  1.00  0.00    -0.271 C  
HETATM   17  C   UNL     1      -9.379  14.916  68.382  1.00  0.00    -0.197 C  
HETATM   18  C   UNL     1      -9.788  16.349  68.829  1.00  0.00    -0.250 C  
ENDBRANCH   6  10
BRANCH   8  19
HETATM   19  C   UNL     1      -9.231  11.809  66.741  1.00  0.00    -0.194 C  
BRANCH  19  20
HETATM   20  C   UNL     1     -10.002  11.458  68.010  1.00  0.00    -0.192 A  
HETATM   21  C   UNL     1     -10.159  10.076  70.013  1.00  0.00    -0.289 A  
HETATM   22  C   UNL     1      -7.989  10.306  68.921  1.00  0.00    -0.113 C  
HETATM   23  N   UNL     1      -6.862  10.047  68.854  1.00  0.00    -0.053 NA 
HETATM   24  C   UNL     1      -9.389  10.637  68.984  1.00  0.00    -0.191 A  
HETATM   25  C   UNL     1     -11.527  10.333  70.091  1.00  0.00    -0.383 A  
HETATM   26  C   UNL     1     -12.121  11.210  69.188  1.00  0.00    -0.352 A  
HETATM   27  C   UNL     1     -11.359  11.796  68.175  1.00  0.00    -0.348 A  
ENDBRANCH  19  20
ENDBRANCH   8  19
TORSDOF 3
ENDMDL
MODEL       25
REMARK 921   NORMALIZED FREE ENERGY PREDICTED BY IDOCK:   -6.84 KCAL/MOL
REMARK 922        TOTAL FREE ENERGY PREDICTED BY IDOCK:   -8.36 KCAL/MOL
REMARK 923 INTER-LIGAND FREE ENERGY PREDICTED BY IDOCK:   -7.62 KCAL/MOL
REMARK 924 INTRA-LIGAND FREE ENERGY PREDICTED BY IDOCK:   -0.74 KCAL/MOL
REMARK 927      BINDING AFFINITY PREDICTED BY RF-SCORE:    0.00 PKD
ROOT
HETATM    1  C   UNL     1     -11.609   8.447  70.373  1.00  0.00    -0.064 C  
HETATM    2  N   UNL     1     -11.983   9.847  70.450  1.00  0.00    -0.232 N  
HETATM    3  C   UNL     1     -12.726  10.283  71.513  1.00  0.00    -0.452 C  
HETATM    4  C   UNL     1     -12.954  11.729  71.585  1.00  0.00    -0.467 C  
HETATM    5  O   UNL     1     -13.195   9.561  72.389  1.00  0.00    -0.431 OA 
HETATM    6  C   UNL     1     -12.377  12.616  70.751  1.00  0.00    -0.283 C  
HETATM    7  O   UNL     1     -10.962  10.240  68.454  1.00  0.00    -0.238 OA 
HETATM    8  N   UNL     1     -11.605  12.067  69.710  1.00  0.00    -0.297 N  
HETATM    9  C   UNL     1     -11.504  10.689  69.468  1.00  0.00    -0.291 C  
ENDROOT
BRANCH   6  10
HETATM   10  N   UNL     1     -12.588  14.006  70.988  1.00  0.00    -0.346 NA 
HETATM   11  N   UNL     1     -12.020  14.350  73.972  1.00  0.00    -0.173 NA 
HETATM   12  C   UNL     1     -13.859  14.729  70.841  1.00  0.00    -0.086 C  
HETATM   13  C   UNL     1     -14.386  15.191  72.195  1.00  0.00    -0.647 C  
HETATM   14  H2  UNL     1     -12.759  13.674  73.779  1.00  0.00     0.000 HD 
HETATM   15  H1  UNL     1     -11.104  13.906  74.036  1.00  0.00     0.000 HD 
HETATM   16  C   UNL     1     -13.370  16.101  72.879  1.00  0.00    -0.389 C  
HETATM   17  C   UNL     1     -11.553  14.912  71.575  1.00  0.00    -0.301 C  
HETATM   18  C   UNL     1     -11.991  15.432  72.975  1.00  0.00    -0.447 C  
ENDBRANCH   6  10
BRANCH   8  19
HETATM   19  C   UNL     1     -10.605  12.843  68.972  1.00  0.00    -0.043 C  
BRANCH  19  20
HETATM   20  C   UNL     1     -10.949  13.283  67.553  1.00  0.00    -0.281 A  
HETATM   21  C   UNL     1     -10.331  14.595  65.592  1.00  0.00    -0.370 A  
HETATM   22  C   UNL     1      -8.591  14.009  67.201  1.00  0.00    -0.205 C  
HETATM   23  N   UNL     1      -7.490  14.058  67.557  1.00  0.00    -0.174 NA 
HETATM   24  C   UNL     1      -9.966  13.940  66.777  1.00  0.00    -0.269 A  
HETATM   25  C   UNL     1     -11.657  14.592  65.164  1.00  0.00    -0.371 A  
HETATM   26  C   UNL     1     -12.615  13.874  65.875  1.00  0.00    -0.498 A  
HETATM   27  C   UNL     1     -12.258  13.195  67.042  1.00  0.00    -0.271 A  
ENDBRANCH  19  20
ENDBRANCH   8  19
TORSDOF 3
ENDMDL
MODEL       26
REMARK 921   NORMALIZED FREE ENERGY PREDICTED BY IDOCK:   -6.81 KCAL/MOL
REMARK 922        TOTAL FREE ENERGY PREDICTED BY IDOCK:   -8.32 KCAL/MOL
REMARK 923 INTER-LIGAND FREE ENERGY PREDICTED BY IDOCK:   -7.41 KCAL/MOL
REMARK 924 INTRA-LIGAND FREE ENERGY PREDICTED BY IDOCK:   -0.91 KCAL/MOL
REMARK 927      BINDING AFFINITY PREDICTED BY RF-SCORE:    0.00 PKD
ROOT
HETATM    1  C   UNL     1      -5.862  10.648  68.888  1.00  0.00    -0.040 C  
HETATM    2  N   UNL     1      -7.154  11.158  68.472  1.00  0.00    -0.074 N  
HETATM    3  C   UNL     1      -7.215  12.099  67.481  1.00  0.00    -0.133 C  
HETATM    4  C   UNL     1      -8.560  12.469  67.030  1.00  0.00    -0.188 C  
HETATM    5  O   UNL     1      -6.242  12.632  66.955  1.00  0.00    -0.250 OA 
HETATM    6  C   UNL     1      -9.682  11.850  67.447  1.00  0.00    -0.184 C  
HETATM    7  O   UNL     1      -8.180   9.871  70.046  1.00  0.00    -0.175 OA 
HETATM    8  N   UNL     1      -9.508  10.874  68.446  1.00  0.00    -0.171 N  
HETATM    9  C   UNL     1      -8.275  10.607  69.059  1.00  0.00    -0.151 C  
ENDROOT
BRANCH   6  10
HETATM   10  N   UNL     1     -10.923  12.226  66.854  1.00  0.00    -0.254 NA 
HETATM   11  N   UNL     1     -10.133  13.390  64.141  1.00  0.00    -0.779 NA 
HETATM   12  C   UNL     1     -11.852  13.246  67.357  1.00  0.00    -0.366 C  
HETATM   13  C   UNL     1     -11.908  14.447  66.419  1.00  0.00    -0.402 C  
HETATM   14  H2  UNL     1      -9.695  13.870  64.927  1.00  0.00     0.000 HD 
HETATM   15  H1  UNL     1      -9.548  12.635  63.781  1.00  0.00     0.000 HD 
HETATM   16  C   UNL     1     -12.349  14.013  65.026  1.00  0.00    -0.458 C  
HETATM   17  C   UNL     1     -11.390  11.723  65.526  1.00  0.00    -0.223 C  
HETATM   18  C   UNL     1     -11.468  12.876  64.485  1.00  0.00    -0.344 C  
ENDBRANCH   6  10
BRANCH   8  19
HETATM   19  C   UNL     1     -10.512   9.846  68.729  1.00  0.00    -0.213 C  
BRANCH  19  20
HETATM   20  C   UNL     1     -11.325   9.977  70.013  1.00  0.00    -0.334 A  
HETATM   21  C   UNL     1     -12.546   8.862  71.806  1.00  0.00    -0.420 A  
HETATM   22  C   UNL     1     -10.921   7.571  70.522  1.00  0.00    -0.252 C  
HETATM   23  N   UNL     1     -10.381   6.572  70.293  1.00  0.00    -0.195 NA 
HETATM   24  C   UNL     1     -11.583   8.823  70.788  1.00  0.00    -0.288 A  
HETATM   25  C   UNL     1     -13.244  10.039  72.072  1.00  0.00    -0.545 A  
HETATM   26  C   UNL     1     -12.933  11.203  71.373  1.00  0.00    -0.506 A  
HETATM   27  C   UNL     1     -11.957  11.182  70.375  1.00  0.00    -0.469 A  
ENDBRANCH  19  20
ENDBRANCH   8  19
TORSDOF 3
ENDMDL
MODEL       27
REMARK 921   NORMALIZED FREE ENERGY PREDICTED BY IDOCK:   -6.72 KCAL/MOL
REMARK 922        TOTAL FREE ENERGY PREDICTED BY IDOCK:   -8.22 KCAL/MOL
REMARK 923 INTER-LIGAND FREE ENERGY PREDICTED BY IDOCK:   -7.48 KCAL/MOL
REMARK 924 INTRA-LIGAND FREE ENERGY PREDICTED BY IDOCK:   -0.74 KCAL/MOL
REMARK 927      BINDING AFFINITY PREDICTED BY RF-SCORE:    0.00 PKD
ROOT
HETATM    1  C   UNL     1     -12.716  13.185  71.116  1.00  0.00    -0.300 C  
HETATM    2  N   UNL     1     -12.191  13.937  69.992  1.00  0.00    -0.339 N  
HETATM    3  C   UNL     1     -12.080  15.297  70.091  1.00  0.00    -0.358 C  
HETATM    4  C   UNL     1     -11.423  15.970  68.966  1.00  0.00    -0.360 C  
HETATM    5  O   UNL     1     -12.478  15.970  71.038  1.00  0.00    -0.394 OA 
HETATM    6  C   UNL     1     -10.837  15.314  67.946  1.00  0.00    -0.288 C  
HETATM    7  O   UNL     1     -12.006  12.018  68.781  1.00  0.00    -0.307 OA 
HETATM    8  N   UNL     1     -10.980  13.914  67.954  1.00  0.00    -0.245 N  
HETATM    9  C   UNL     1     -11.759  13.223  68.894  1.00  0.00    -0.327 C  
ENDROOT
BRANCH   6  10
HETATM   10  N   UNL     1     -10.134  16.075  66.966  1.00  0.00    -0.265 NA 
HETATM   11  N   UNL     1      -8.152  17.739  68.593  1.00  0.00    -0.292 NA 
HETATM   12  C   UNL     1     -10.713  17.088  66.074  1.00  0.00    -0.116 C  
HETATM   13  C   UNL     1     -10.203  18.482  66.424  1.00  0.00    -0.449 C  
HETATM   14  H2  UNL     1      -9.123  17.893  68.862  1.00  0.00     0.000 HD 
HETATM   15  H1  UNL     1      -7.713  17.006  69.151  1.00  0.00     0.000 HD 
HETATM   16  C   UNL     1      -8.683  18.534  66.319  1.00  0.00    -0.219 C  
HETATM   17  C   UNL     1      -8.648  16.049  66.810  1.00  0.00    -0.257 C  
HETATM   18  C   UNL     1      -8.022  17.430  67.160  1.00  0.00    -0.204 C  
ENDBRANCH   6  10
BRANCH   8  19
HETATM   19  C   UNL     1     -10.106  13.025  67.184  1.00  0.00    -0.244 C  
BRANCH  19  20
HETATM   20  C   UNL     1     -10.676  12.380  65.926  1.00  0.00    -0.299 A  
HETATM   21  C   UNL     1     -10.365  10.798  64.095  1.00  0.00    -0.382 A  
HETATM   22  C   UNL     1      -9.005  10.539  66.105  1.00  0.00    -0.160 C  
HETATM   23  N   UNL     1      -8.175   9.989  66.697  1.00  0.00    -0.121 NA 
HETATM   24  C   UNL     1     -10.038  11.239  65.385  1.00  0.00    -0.314 A  
HETATM   25  C   UNL     1     -11.327  11.469  63.342  1.00  0.00    -0.303 A  
HETATM   26  C   UNL     1     -12.022  12.539  63.900  1.00  0.00    -0.563 A  
HETATM   27  C   UNL     1     -11.724  12.971  65.194  1.00  0.00    -0.379 A  
ENDBRANCH  19  20
ENDBRANCH   8  19
TORSDOF 3
ENDMDL
MODEL       28
REMARK 921   NORMALIZED FREE ENERGY PREDICTED BY IDOCK:   -6.67 KCAL/MOL
REMARK 922        TOTAL FREE ENERGY PREDICTED BY IDOCK:   -8.16 KCAL/MOL
REMARK 923 INTER-LIGAND FREE ENERGY PREDICTED BY IDOCK:   -7.73 KCAL/MOL
REMARK 924 INTRA-LIGAND FREE ENERGY PREDICTED BY IDOCK:   -0.42 KCAL/MOL
REMARK 927      BINDING AFFINITY PREDICTED BY RF-SCORE:    0.00 PKD
ROOT
HETATM    1  C   UNL     1     -12.139  13.384  64.137  1.00  0.00    -0.433 C  
HETATM    2  N   UNL     1     -11.486  12.423  65.006  1.00  0.00    -0.322 N  
HETATM    3  C   UNL     1     -10.698  11.451  64.454  1.00  0.00    -0.342 C  
HETATM    4  C   UNL     1      -9.973  10.599  65.402  1.00  0.00    -0.343 C  
HETATM    5  O   UNL     1     -10.556  11.257  63.250  1.00  0.00    -0.356 OA 
HETATM    6  C   UNL     1      -9.956  10.812  66.732  1.00  0.00    -0.206 C  
HETATM    7  O   UNL     1     -12.472  13.379  66.822  1.00  0.00    -0.279 OA 
HETATM    8  N   UNL     1     -10.776  11.858  67.196  1.00  0.00    -0.230 N  
HETATM    9  C   UNL     1     -11.643  12.586  66.367  1.00  0.00    -0.391 C  
ENDROOT
BRANCH   6  10
HETATM   10  N   UNL     1      -9.126   9.982  67.541  1.00  0.00    -0.134 NA 
HETATM   11  N   UNL     1     -10.998   7.769  68.509  1.00  0.00    -0.414 NA 
HETATM   12  C   UNL     1      -8.458  10.375  68.789  1.00  0.00    -0.132 C  
HETATM   13  C   UNL     1      -9.058   9.644  69.985  1.00  0.00    -0.269 C  
HETATM   14  H2  UNL     1     -11.314   8.704  68.768  1.00  0.00     0.000 HD 
HETATM   15  H1  UNL     1     -11.396   7.464  67.620  1.00  0.00     0.000 HD 
HETATM   16  C   UNL     1      -8.932   8.135  69.805  1.00  0.00    -0.144 C  
HETATM   17  C   UNL     1      -8.935   8.519  67.301  1.00  0.00    -0.129 C  
HETATM   18  C   UNL     1      -9.530   7.676  68.466  1.00  0.00    -0.147 C  
ENDBRANCH   6  10
BRANCH   8  19
HETATM   19  C   UNL     1     -10.592  12.485  68.507  1.00  0.00    -0.243 C  
BRANCH  19  20
HETATM   20  C   UNL     1     -11.674  12.267  69.560  1.00  0.00    -0.398 A  
HETATM   21  C   UNL     1     -12.898  13.151  71.476  1.00  0.00    -0.401 A  
HETATM   22  C   UNL     1     -11.747  14.719  70.001  1.00  0.00    -0.295 C  
HETATM   23  N   UNL     1     -11.436  15.800  69.725  1.00  0.00    -0.323 NA 
HETATM   24  C   UNL     1     -12.120  13.366  70.329  1.00  0.00    -0.419 A  
HETATM   25  C   UNL     1     -13.248  11.857  71.858  1.00  0.00    -0.467 A  
HETATM   26  C   UNL     1     -12.887  10.776  71.058  1.00  0.00    -0.480 A  
HETATM   27  C   UNL     1     -12.136  10.981  69.899  1.00  0.00    -0.435 A  
ENDBRANCH  19  20
ENDBRANCH   8  19
TORSDOF 3
ENDMDL
MODEL       29
REMARK 921   NORMALIZED FREE ENERGY PREDICTED BY IDOCK:   -6.65 KCAL/MOL
REMARK 922        TOTAL FREE ENERGY PREDICTED BY IDOCK:   -8.13 KCAL/MOL
REMARK 923 INTER-LIGAND FREE ENERGY PREDICTED BY IDOCK:   -7.06 KCAL/MOL
REMARK 924 INTRA-LIGAND FREE ENERGY PREDICTED BY IDOCK:   -1.07 KCAL/MOL
REMARK 927      BINDING AFFINITY PREDICTED BY RF-SCORE:    0.00 PKD
ROOT
HETATM    1  C   UNL     1     -12.208  14.075  65.439  1.00  0.00    -0.439 C  
HETATM    2  N   UNL     1     -11.743  12.763  65.847  1.00  0.00    -0.391 N  
HETATM    3  C   UNL     1     -11.348  11.867  64.893  1.00  0.00    -0.277 C  
HETATM    4  C   UNL     1     -10.772  10.614  65.390  1.00  0.00    -0.106 C  
HETATM    5  O   UNL     1     -11.436  12.043  63.681  1.00  0.00    -0.410 OA 
HETATM    6  C   UNL     1     -10.511  10.378  66.691  1.00  0.00    -0.215 C  
HETATM    7  O   UNL     1     -12.154  13.285  68.026  1.00  0.00    -0.332 OA 
HETATM    8  N   UNL     1     -10.926  11.378  67.590  1.00  0.00    -0.232 N  
HETATM    9  C   UNL     1     -11.656  12.512  67.201  1.00  0.00    -0.368 C  
ENDROOT
BRANCH   6  10
HETATM   10  N   UNL     1      -9.848   9.165  67.040  1.00  0.00    -0.190 NA 
HETATM   11  N   UNL     1      -8.762   8.114  64.384  1.00  0.00    -0.385 NA 
HETATM   12  C   UNL     1     -10.477   7.963  67.602  1.00  0.00    -0.234 C  
HETATM   13  C   UNL     1     -10.440   6.809  66.606  1.00  0.00    -0.213 C  
HETATM   14  H2  UNL     1      -9.774   8.245  64.381  1.00  0.00     0.000 HD 
HETATM   15  H1  UNL     1      -8.270   8.943  64.047  1.00  0.00     0.000 HD 
HETATM   16  C   UNL     1      -9.001   6.485  66.220  1.00  0.00    -0.168 C  
HETATM   17  C   UNL     1      -8.409   8.893  66.739  1.00  0.00    -0.111 C  
HETATM   18  C   UNL     1      -8.260   7.732  65.713  1.00  0.00    -0.132 C  
ENDBRANCH   6  10
BRANCH   8  19
HETATM   19  C   UNL     1     -10.392  11.491  68.949  1.00  0.00    -0.169 C  
BRANCH  19  20
HETATM   20  C   UNL     1     -11.057  10.669  70.048  1.00  0.00    -0.359 A  
HETATM   21  C   UNL     1     -10.987   8.694  71.477  1.00  0.00    -0.360 A  
HETATM   22  C   UNL     1      -8.909   9.476  70.464  1.00  0.00    -0.201 C  
HETATM   23  N   UNL     1      -7.770   9.362  70.282  1.00  0.00    -0.126 NA 
HETATM   24  C   UNL     1     -10.326   9.634  70.674  1.00  0.00    -0.365 A  
HETATM   25  C   UNL     1     -12.364   8.780  71.675  1.00  0.00    -0.394 A  
HETATM   26  C   UNL     1     -13.078   9.846  71.134  1.00  0.00    -0.453 A  
HETATM   27  C   UNL     1     -12.425  10.803  70.355  1.00  0.00    -0.430 A  
ENDBRANCH  19  20
ENDBRANCH   8  19
TORSDOF 3
ENDMDL
MODEL       30
REMARK 921   NORMALIZED FREE ENERGY PREDICTED BY IDOCK:   -6.64 KCAL/MOL
REMARK 922        TOTAL FREE ENERGY PREDICTED BY IDOCK:   -8.12 KCAL/MOL
REMARK 923 INTER-LIGAND FREE ENERGY PREDICTED BY IDOCK:   -8.43 KCAL/MOL
REMARK 924 INTRA-LIGAND FREE ENERGY PREDICTED BY IDOCK:    0.31 KCAL/MOL
REMARK 927      BINDING AFFINITY PREDICTED BY RF-SCORE:    0.00 PKD
ROOT
HETATM    1  C   UNL     1     -11.598  13.588  63.843  1.00  0.00    -0.306 C  
HETATM    2  N   UNL     1     -10.983  14.519  64.771  1.00  0.00    -0.399 N  
HETATM    3  C   UNL     1     -11.259  15.854  64.660  1.00  0.00    -0.351 C  
HETATM    4  C   UNL     1     -10.703  16.712  65.710  1.00  0.00    -0.210 C  
HETATM    5  O   UNL     1     -11.931  16.363  63.768  1.00  0.00    -0.964 OA 
HETATM    6  C   UNL     1     -10.066  16.239  66.800  1.00  0.00    -0.278 C  
HETATM    7  O   UNL     1      -9.852  12.805  65.755  1.00  0.00    -0.262 OA 
HETATM    8  N   UNL     1      -9.860  14.847  66.833  1.00  0.00    -0.235 N  
HETATM    9  C   UNL     1     -10.195  13.991  65.773  1.00  0.00    -0.328 C  
ENDROOT
BRANCH   6  10
HETATM   10  N   UNL     1      -9.665  17.166  67.806  1.00  0.00    -0.265 NA 
HETATM   11  N   UNL     1      -9.266  19.789  66.291  1.00  0.00    -0.384 NA 
HETATM   12  C   UNL     1      -8.439  17.096  68.612  1.00  0.00    -0.258 C  
HETATM   13  C   UNL     1      -7.485  18.232  68.256  1.00  0.00    -0.288 C  
HETATM   14  H2  UNL     1      -8.687  19.029  65.937  1.00  0.00     0.000 HD 
HETATM   15  H1  UNL     1     -10.157  19.852  65.797  1.00  0.00     0.000 HD 
HETATM   16  C   UNL     1      -8.157  19.582  68.484  1.00  0.00    -0.376 C  
HETATM   17  C   UNL     1     -10.385  18.446  68.085  1.00  0.00    -0.366 C  
HETATM   18  C   UNL     1      -9.498  19.676  67.740  1.00  0.00    -0.348 C  
ENDBRANCH   6  10
BRANCH   8  19
HETATM   19  C   UNL     1      -9.562  14.121  68.070  1.00  0.00    -0.218 C  
BRANCH  19  20
HETATM   20  C   UNL     1     -10.644  13.211  68.641  1.00  0.00    -0.259 A  
HETATM   21  C   UNL     1     -12.225  12.763  70.443  1.00  0.00    -0.371 A  
HETATM   22  C   UNL     1     -11.385  15.037  70.165  1.00  0.00    -0.269 C  
HETATM   23  N   UNL     1     -11.338  16.144  70.506  1.00  0.00    -0.390 NA 
HETATM   24  C   UNL     1     -11.426  13.666  69.727  1.00  0.00    -0.256 A  
HETATM   25  C   UNL     1     -12.264  11.417  70.084  1.00  0.00    -0.401 A  
HETATM   26  C   UNL     1     -11.565  10.977  68.963  1.00  0.00    -0.392 A  
HETATM   27  C   UNL     1     -10.788  11.873  68.226  1.00  0.00    -0.261 A  
ENDBRANCH  19  20
ENDBRANCH   8  19
TORSDOF 3
ENDMDL
MODEL       31
REMARK 921   NORMALIZED FREE ENERGY PREDICTED BY IDOCK:   -6.61 KCAL/MOL
REMARK 922        TOTAL FREE ENERGY PREDICTED BY IDOCK:   -8.09 KCAL/MOL
REMARK 923 INTER-LIGAND FREE ENERGY PREDICTED BY IDOCK:   -7.55 KCAL/MOL
REMARK 924 INTRA-LIGAND FREE ENERGY PREDICTED BY IDOCK:   -0.55 KCAL/MOL
REMARK 927      BINDING AFFINITY PREDICTED BY RF-SCORE:    0.00 PKD
ROOT
HETATM    1  C   UNL     1      -9.650  10.335  63.130  1.00  0.00    -0.250 C  
HETATM    2  N   UNL     1     -10.028  10.374  64.530  1.00  0.00    -0.343 N  
HETATM    3  C   UNL     1      -9.392   9.550  65.418  1.00  0.00    -0.261 C  
HETATM    4  C   UNL     1      -9.739   9.739  66.829  1.00  0.00    -0.248 C  
HETATM    5  O   UNL     1      -8.567   8.692  65.116  1.00  0.00    -0.179 OA 
HETATM    6  C   UNL     1     -10.528  10.736  67.275  1.00  0.00    -0.237 C  
HETATM    7  O   UNL     1     -11.628  11.927  64.066  1.00  0.00    -0.378 OA 
HETATM    8  N   UNL     1     -11.109  11.549  66.284  1.00  0.00    -0.292 N  
HETATM    9  C   UNL     1     -10.974  11.304  64.909  1.00  0.00    -0.173 C  
ENDROOT
BRANCH   6  10
HETATM   10  N   UNL     1     -10.704  10.883  68.683  1.00  0.00    -0.188 NA 
HETATM   11  N   UNL     1     -11.080   8.023  69.692  1.00  0.00    -0.442 NA 
HETATM   12  C   UNL     1     -11.810  11.583  69.351  1.00  0.00    -0.350 C  
HETATM   13  C   UNL     1     -12.701  10.603  70.106  1.00  0.00    -0.224 C  
HETATM   14  H2  UNL     1     -11.767   8.294  68.988  1.00  0.00     0.000 HD 
HETATM   15  H1  UNL     1     -10.265   7.573  69.275  1.00  0.00     0.000 HD 
HETATM   16  C   UNL     1     -11.890   9.841  71.148  1.00  0.00    -0.466 C  
HETATM   17  C   UNL     1      -9.845  10.203  69.699  1.00  0.00    -0.225 C  
HETATM   18  C   UNL     1     -10.662   9.164  70.521  1.00  0.00    -0.238 C  
ENDBRANCH   6  10
BRANCH   8  19
HETATM   19  C   UNL     1     -11.649  12.880  66.569  1.00  0.00    -0.371 C  
BRANCH  19  20
HETATM   20  C   UNL     1     -10.666  14.040  66.682  1.00  0.00    -0.281 A  
HETATM   21  C   UNL     1      -9.628  15.977  65.623  1.00  0.00    -0.226 A  
HETATM   22  C   UNL     1     -11.745  15.153  64.731  1.00  0.00    -0.331 C  
HETATM   23  N   UNL     1     -12.604  15.213  63.956  1.00  0.00    -0.717 NA 
HETATM   24  C   UNL     1     -10.686  15.060  65.702  1.00  0.00    -0.365 A  
HETATM   25  C   UNL     1      -8.559  15.900  66.514  1.00  0.00    -0.345 A  
HETATM   26  C   UNL     1      -8.574  14.954  67.535  1.00  0.00    -0.195 A  
HETATM   27  C   UNL     1      -9.635  14.053  67.641  1.00  0.00    -0.221 A  
ENDBRANCH  19  20
ENDBRANCH   8  19
TORSDOF 3
ENDMDL
MODEL       32
REMARK 921   NORMALIZED FREE ENERGY PREDICTED BY IDOCK:   -6.59 KCAL/MOL
REMARK 922        TOTAL FREE ENERGY PREDICTED BY IDOCK:   -8.07 KCAL/MOL
REMARK 923 INTER-LIGAND FREE ENERGY PREDICTED BY IDOCK:   -8.13 KCAL/MOL
REMARK 924 INTRA-LIGAND FREE ENERGY PREDICTED BY IDOCK:    0.07 KCAL/MOL
REMARK 927      BINDING AFFINITY PREDICTED BY RF-SCORE:    0.00 PKD
ROOT
HETATM    1  C   UNL     1     -10.724   8.054  69.949  1.00  0.00    -0.242 C  
HETATM    2  N   UNL     1     -11.183   9.420  69.779  1.00  0.00    -0.170 N  
HETATM    3  C   UNL     1     -11.768  10.064  70.834  1.00  0.00    -0.374 C  
HETATM    4  C   UNL     1     -12.088  11.479  70.623  1.00  0.00    -0.450 C  
HETATM    5  O   UNL     1     -12.029   9.550  71.918  1.00  0.00    -0.370 OA 
HETATM    6  C   UNL     1     -11.725  12.169  69.524  1.00  0.00    -0.336 C  
HETATM    7  O   UNL     1     -10.541   9.375  67.595  1.00  0.00    -0.260 OA 
HETATM    8  N   UNL     1     -11.099  11.420  68.509  1.00  0.00    -0.214 N  
HETATM    9  C   UNL     1     -10.937  10.028  68.565  1.00  0.00    -0.209 C  
ENDROOT
BRANCH   6  10
HETATM   10  N   UNL     1     -11.996  13.568  69.481  1.00  0.00    -0.330 NA 
HETATM   11  N   UNL     1      -9.237  14.870  69.664  1.00  0.00    -0.446 NA 
HETATM   12  C   UNL     1     -12.755  14.336  70.477  1.00  0.00    -0.328 C  
HETATM   13  C   UNL     1     -11.849  15.304  71.229  1.00  0.00    -0.416 C  
HETATM   14  H2  UNL     1      -9.447  14.261  70.455  1.00  0.00     0.000 HD 
HETATM   15  H1  UNL     1      -8.750  14.373  68.918  1.00  0.00     0.000 HD 
HETATM   16  C   UNL     1     -11.179  16.270  70.259  1.00  0.00    -0.343 C  
HETATM   17  C   UNL     1     -11.406  14.494  68.467  1.00  0.00    -0.286 C  
HETATM   18  C   UNL     1     -10.446  15.521  69.135  1.00  0.00    -0.232 C  
ENDBRANCH   6  10
BRANCH   8  19
HETATM   19  C   UNL     1     -10.296  12.038  67.451  1.00  0.00    -0.207 C  
BRANCH  19  20
HETATM   20  C   UNL     1     -10.855  12.023  66.032  1.00  0.00    -0.329 A  
HETATM   21  C   UNL     1     -10.423  11.759  63.646  1.00  0.00    -0.490 A  
HETATM   22  C   UNL     1      -8.812  10.843  65.233  1.00  0.00    -0.167 C  
HETATM   23  N   UNL     1      -7.816  10.292  65.455  1.00  0.00    -0.146 NA 
HETATM   24  C   UNL     1     -10.051  11.531  64.978  1.00  0.00    -0.315 A  
HETATM   25  C   UNL     1     -11.592  12.459  63.350  1.00  0.00    -0.541 A  
HETATM   26  C   UNL     1     -12.434  12.871  64.380  1.00  0.00    -0.447 A  
HETATM   27  C   UNL     1     -12.087  12.625  65.710  1.00  0.00    -0.484 A  
ENDBRANCH  19  20
ENDBRANCH   8  19
TORSDOF 3
ENDMDL
MODEL       33
REMARK 921   NORMALIZED FREE ENERGY PREDICTED BY IDOCK:   -6.56 KCAL/MOL
REMARK 922        TOTAL FREE ENERGY PREDICTED BY IDOCK:   -8.03 KCAL/MOL
REMARK 923 INTER-LIGAND FREE ENERGY PREDICTED BY IDOCK:   -7.00 KCAL/MOL
REMARK 924 INTRA-LIGAND FREE ENERGY PREDICTED BY IDOCK:   -1.03 KCAL/MOL
REMARK 927      BINDING AFFINITY PREDICTED BY RF-SCORE:    0.00 PKD
ROOT
HETATM    1  C   UNL     1      -6.537  11.674  68.646  1.00  0.00    -0.066 C  
HETATM    2  N   UNL     1      -7.605  10.733  68.927  1.00  0.00    -0.112 N  
HETATM    3  C   UNL     1      -7.557   9.990  70.074  1.00  0.00    -0.172 C  
HETATM    4  C   UNL     1      -8.733   9.159  70.349  1.00  0.00    -0.245 C  
HETATM    5  O   UNL     1      -6.622   9.982  70.870  1.00  0.00    -0.277 OA 
HETATM    6  C   UNL     1      -9.860   9.196  69.612  1.00  0.00    -0.180 C  
HETATM    7  O   UNL     1      -8.604  11.261  66.950  1.00  0.00    -0.139 OA 
HETATM    8  N   UNL     1      -9.819  10.017  68.469  1.00  0.00    -0.153 N  
HETATM    9  C   UNL     1      -8.663  10.688  68.042  1.00  0.00    -0.126 C  
ENDROOT
BRANCH   6  10
HETATM   10  N   UNL     1     -10.977   8.422  70.042  1.00  0.00    -0.228 NA 
HETATM   11  N   UNL     1     -10.529   8.067  73.044  1.00  0.00    -0.333 NA 
HETATM   12  C   UNL     1     -11.295   7.050  69.624  1.00  0.00    -0.138 C  
HETATM   13  C   UNL     1     -11.134   6.072  70.783  1.00  0.00    -0.355 C  
HETATM   14  H2  UNL     1      -9.758   7.712  72.478  1.00  0.00     0.000 HD 
HETATM   15  H1  UNL     1     -10.382   9.037  73.323  1.00  0.00     0.000 HD 
HETATM   16  C   UNL     1     -12.045   6.465  71.941  1.00  0.00    -0.362 C  
HETATM   17  C   UNL     1     -11.921   8.857  71.117  1.00  0.00    -0.293 C  
HETATM   18  C   UNL     1     -11.824   7.927  72.360  1.00  0.00    -0.348 C  
ENDBRANCH   6  10
BRANCH   8  19
HETATM   19  C   UNL     1     -11.028  10.490  67.791  1.00  0.00    -0.313 C  
BRANCH  19  20
HETATM   20  C   UNL     1     -11.566  11.866  68.170  1.00  0.00    -0.400 A  
HETATM   21  C   UNL     1     -11.997  14.170  67.497  1.00  0.00    -0.419 A  
HETATM   22  C   UNL     1     -11.701  12.483  65.759  1.00  0.00    -0.426 C  
HETATM   23  N   UNL     1     -11.638  12.188  64.640  1.00  0.00    -0.336 NA 
HETATM   24  C   UNL     1     -11.772  12.829  67.156  1.00  0.00    -0.443 A  
HETATM   25  C   UNL     1     -12.031  14.561  68.835  1.00  0.00    -0.326 A  
HETATM   26  C   UNL     1     -11.916  13.605  69.841  1.00  0.00    -0.415 A  
HETATM   27  C   UNL     1     -11.719  12.262  69.512  1.00  0.00    -0.398 A  
ENDBRANCH  19  20
ENDBRANCH   8  19
TORSDOF 3
ENDMDL
MODEL       34
REMARK 921   NORMALIZED FREE ENERGY PREDICTED BY IDOCK:   -6.56 KCAL/MOL
REMARK 922        TOTAL FREE ENERGY PREDICTED BY IDOCK:   -8.03 KCAL/MOL
REMARK 923 INTER-LIGAND FREE ENERGY PREDICTED BY IDOCK:   -7.07 KCAL/MOL
REMARK 924 INTRA-LIGAND FREE ENERGY PREDICTED BY IDOCK:   -0.96 KCAL/MOL
REMARK 927      BINDING AFFINITY PREDICTED BY RF-SCORE:    0.00 PKD
ROOT
HETATM    1  C   UNL     1     -12.770  14.503  70.467  1.00  0.00    -0.345 C  
HETATM    2  N   UNL     1     -11.897  13.429  70.033  1.00  0.00    -0.311 N  
HETATM    3  C   UNL     1     -12.166  12.147  70.429  1.00  0.00    -0.294 C  
HETATM    4  C   UNL     1     -11.316  11.105  69.846  1.00  0.00    -0.348 C  
HETATM    5  O   UNL     1     -13.053  11.824  71.214  1.00  0.00    -0.307 OA 
HETATM    6  C   UNL     1     -10.406  11.339  68.880  1.00  0.00    -0.195 C  
HETATM    7  O   UNL     1     -10.569  14.930  68.953  1.00  0.00    -0.231 OA 
HETATM    8  N   UNL     1     -10.228  12.688  68.520  1.00  0.00    -0.224 N  
HETATM    9  C   UNL     1     -10.868  13.753  69.173  1.00  0.00    -0.170 C  
ENDROOT
BRANCH   6  10
HETATM   10  N   UNL     1      -9.717  10.227  68.314  1.00  0.00    -0.140 NA 
HETATM   11  N   UNL     1     -11.049   7.792  69.594  1.00  0.00    -0.439 NA 
HETATM   12  C   UNL     1      -8.292   9.911  68.483  1.00  0.00    -0.108 C  
HETATM   13  C   UNL     1      -8.107   8.640  69.305  1.00  0.00    -0.112 C  
HETATM   14  H2  UNL     1     -10.651   8.437  70.276  1.00  0.00     0.000 HD 
HETATM   15  H1  UNL     1     -12.030   7.998  69.401  1.00  0.00     0.000 HD 
HETATM   16  C   UNL     1      -8.803   7.464  68.630  1.00  0.00    -0.126 C  
HETATM   17  C   UNL     1     -10.398   9.123  67.573  1.00  0.00    -0.261 C  
HETATM   18  C   UNL     1     -10.279   7.774  68.340  1.00  0.00    -0.200 C  
ENDBRANCH   6  10
BRANCH   8  19
HETATM   19  C   UNL     1      -9.606  13.094  67.258  1.00  0.00    -0.233 C  
BRANCH  19  20
HETATM   20  C   UNL     1     -10.509  13.275  66.043  1.00  0.00    -0.289 A  
HETATM   21  C   UNL     1     -11.592  14.808  64.485  1.00  0.00    -0.366 A  
HETATM   22  C   UNL     1      -9.659  15.599  65.748  1.00  0.00    -0.326 C  
HETATM   23  N   UNL     1      -8.914  16.440  66.030  1.00  0.00    -0.442 NA 
HETATM   24  C   UNL     1     -10.578  14.540  65.415  1.00  0.00    -0.385 A  
HETATM   25  C   UNL     1     -12.530  13.829  64.162  1.00  0.00    -0.293 A  
HETATM   26  C   UNL     1     -12.418  12.553  64.710  1.00  0.00    -0.532 A  
HETATM   27  C   UNL     1     -11.395  12.267  65.616  1.00  0.00    -0.394 A  
ENDBRANCH  19  20
ENDBRANCH   8  19
TORSDOF 3
ENDMDL
MODEL       35
REMARK 921   NORMALIZED FREE ENERGY PREDICTED BY IDOCK:   -6.55 KCAL/MOL
REMARK 922        TOTAL FREE ENERGY PREDICTED BY IDOCK:   -8.02 KCAL/MOL
REMARK 923 INTER-LIGAND FREE ENERGY PREDICTED BY IDOCK:   -7.61 KCAL/MOL
REMARK 924 INTRA-LIGAND FREE ENERGY PREDICTED BY IDOCK:   -0.41 KCAL/MOL
REMARK 927      BINDING AFFINITY PREDICTED BY RF-SCORE:    0.00 PKD
ROOT
HETATM    1  C   UNL     1      -9.808  12.722  65.965  1.00  0.00    -0.255 C  
HETATM    2  N   UNL     1      -9.709  11.574  66.847  1.00  0.00    -0.185 N  
HETATM    3  C   UNL     1      -8.476  11.054  67.132  1.00  0.00    -0.137 C  
HETATM    4  C   UNL     1      -8.448   9.979  68.128  1.00  0.00    -0.114 C  
HETATM    5  O   UNL     1      -7.420  11.426  66.626  1.00  0.00    -0.145 OA 
HETATM    6  C   UNL     1      -9.528   9.591  68.835  1.00  0.00    -0.155 C  
HETATM    7  O   UNL     1     -11.978  11.501  67.025  1.00  0.00    -0.556 OA 
HETATM    8  N   UNL     1     -10.743  10.210  68.488  1.00  0.00    -0.218 N  
HETATM    9  C   UNL     1     -10.875  11.104  67.414  1.00  0.00    -0.266 C  
ENDROOT
BRANCH   6  10
HETATM   10  N   UNL     1      -9.353   8.610  69.855  1.00  0.00    -0.157 NA 
HETATM   11  N   UNL     1     -12.063   7.205  70.012  1.00  0.00    -0.516 NA 
HETATM   12  C   UNL     1      -9.070   8.872  71.272  1.00  0.00    -0.253 C  
HETATM   13  C   UNL     1     -10.253   8.476  72.149  1.00  0.00    -0.403 C  
HETATM   14  H2  UNL     1     -12.121   8.210  70.176  1.00  0.00     0.000 HD 
HETATM   15  H1  UNL     1     -12.204   6.970  69.029  1.00  0.00     0.000 HD 
HETATM   16  C   UNL     1     -10.577   6.997  71.970  1.00  0.00    -0.237 C  
HETATM   17  C   UNL     1      -9.585   7.148  69.644  1.00  0.00    -0.154 C  
HETATM   18  C   UNL     1     -10.790   6.643  70.490  1.00  0.00    -0.261 C  
ENDBRANCH   6  10
BRANCH   8  19
HETATM   19  C   UNL     1     -11.908  10.221  69.376  1.00  0.00    -0.038 C  
BRANCH  19  20
HETATM   20  C   UNL     1     -12.116  11.444  70.264  1.00  0.00    -0.459 A  
HETATM   21  C   UNL     1     -13.348  12.478  72.097  1.00  0.00    -0.540 A  
HETATM   22  C   UNL     1     -13.356  10.045  71.911  1.00  0.00    -0.415 C  
HETATM   23  N   UNL     1     -13.704   9.005  72.288  1.00  0.00    -0.466 NA 
HETATM   24  C   UNL     1     -12.916  11.327  71.424  1.00  0.00    -0.482 A  
HETATM   25  C   UNL     1     -12.983  13.743  71.638  1.00  0.00    -0.448 A  
HETATM   26  C   UNL     1     -12.124  13.865  70.549  1.00  0.00    -0.426 A  
HETATM   27  C   UNL     1     -11.665  12.724  69.887  1.00  0.00    -0.321 A  
ENDBRANCH  19  20
ENDBRANCH   8  19
TORSDOF 3
ENDMDL
MODEL       36
REMARK 921   NORMALIZED FREE ENERGY PREDICTED BY IDOCK:   -6.54 KCAL/MOL
REMARK 922        TOTAL FREE ENERGY PREDICTED BY IDOCK:   -8.00 KCAL/MOL
REMARK 923 INTER-LIGAND FREE ENERGY PREDICTED BY IDOCK:   -7.02 KCAL/MOL
REMARK 924 INTRA-LIGAND FREE ENERGY PREDICTED BY IDOCK:   -0.98 KCAL/MOL
REMARK 927      BINDING AFFINITY PREDICTED BY RF-SCORE:    0.00 PKD
ROOT
HETATM    1  C   UNL     1     -12.074  13.531  68.430  1.00  0.00    -0.258 C  
HETATM    2  N   UNL     1     -11.696  12.133  68.335  1.00  0.00    -0.318 N  
HETATM    3  C   UNL     1     -11.363  11.612  67.115  1.00  0.00    -0.306 C  
HETATM    4  C   UNL     1     -10.871  10.231  67.121  1.00  0.00    -0.278 C  
HETATM    5  O   UNL     1     -11.442  12.213  66.047  1.00  0.00    -0.348 OA 
HETATM    6  C   UNL     1     -10.623   9.534  68.247  1.00  0.00    -0.216 C  
HETATM    7  O   UNL     1     -12.067  11.871  70.566  1.00  0.00    -0.366 OA 
HETATM    8  N   UNL     1     -10.970  10.172  69.452  1.00  0.00    -0.234 N  
HETATM    9  C   UNL     1     -11.623  11.412  69.509  1.00  0.00    -0.331 C  
ENDROOT
BRANCH   6  10
HETATM   10  N   UNL     1     -10.041   8.237  68.127  1.00  0.00    -0.192 NA 
HETATM   11  N   UNL     1      -9.039   8.132  65.241  1.00  0.00    -0.394 NA 
HETATM   12  C   UNL     1     -10.748   6.955  68.244  1.00  0.00    -0.214 C  
HETATM   13  C   UNL     1     -10.792   6.229  66.904  1.00  0.00    -0.428 C  
HETATM   14  H2  UNL     1     -10.040   8.317  65.313  1.00  0.00     0.000 HD 
HETATM   15  H1  UNL     1      -8.494   8.994  65.206  1.00  0.00     0.000 HD 
HETATM   16  C   UNL     1      -9.379   5.976  66.389  1.00  0.00    -0.171 C  
HETATM   17  C   UNL     1      -8.626   8.002  67.709  1.00  0.00    -0.128 C  
HETATM   18  C   UNL     1      -8.558   7.274  66.336  1.00  0.00    -0.138 C  
ENDBRANCH   6  10
BRANCH   8  19
HETATM   19  C   UNL     1     -10.426   9.762  70.749  1.00  0.00    -0.269 C  
BRANCH  19  20
HETATM   20  C   UNL     1     -11.103   8.601  71.471  1.00  0.00    -0.358 A  
HETATM   21  C   UNL     1     -10.860   6.615  72.865  1.00  0.00    -0.293 A  
HETATM   22  C   UNL     1      -9.056   8.258  72.850  1.00  0.00    -0.262 C  
HETATM   23  N   UNL     1      -8.008   8.609  73.200  1.00  0.00    -0.405 NA 
HETATM   24  C   UNL     1     -10.359   7.839  72.401  1.00  0.00    -0.311 A  
HETATM   25  C   UNL     1     -12.097   6.146  72.426  1.00  0.00    -0.186 A  
HETATM   26  C   UNL     1     -12.875   6.931  71.578  1.00  0.00    -0.384 A  
HETATM   27  C   UNL     1     -12.398   8.165  71.131  1.00  0.00    -0.229 A  
ENDBRANCH  19  20
ENDBRANCH   8  19
TORSDOF 3
ENDMDL
MODEL       37
REMARK 921   NORMALIZED FREE ENERGY PREDICTED BY IDOCK:   -6.53 KCAL/MOL
REMARK 922        TOTAL FREE ENERGY PREDICTED BY IDOCK:   -7.99 KCAL/MOL
REMARK 923 INTER-LIGAND FREE ENERGY PREDICTED BY IDOCK:   -7.13 KCAL/MOL
REMARK 924 INTRA-LIGAND FREE ENERGY PREDICTED BY IDOCK:   -0.86 KCAL/MOL
REMARK 927      BINDING AFFINITY PREDICTED BY RF-SCORE:    0.00 PKD
ROOT
HETATM    1  C   UNL     1     -12.562  13.411  70.388  1.00  0.00    -0.167 C  
HETATM    2  N   UNL     1     -11.889  14.592  69.881  1.00  0.00    -0.300 N  
HETATM    3  C   UNL     1     -11.361  15.492  70.766  1.00  0.00    -0.355 C  
HETATM    4  C   UNL     1     -10.587  16.590  70.178  1.00  0.00    -0.083 C  
HETATM    5  O   UNL     1     -11.483  15.436  71.987  1.00  0.00    -0.424 OA 
HETATM    6  C   UNL     1     -10.284  16.669  68.868  1.00  0.00    -0.284 C  
HETATM    7  O   UNL     1     -12.367  13.961  67.746  1.00  0.00    -0.252 OA 
HETATM    8  N   UNL     1     -10.851  15.677  68.046  1.00  0.00    -0.297 N  
HETATM    9  C   UNL     1     -11.756  14.712  68.513  1.00  0.00    -0.316 C  
ENDROOT
BRANCH   6  10
HETATM   10  N   UNL     1      -9.433  17.727  68.432  1.00  0.00    -0.287 NA 
HETATM   11  N   UNL     1     -10.483  18.434  65.650  1.00  0.00    -0.619 NA 
HETATM   12  C   UNL     1      -7.987  17.633  68.190  1.00  0.00    -0.256 C  
HETATM   13  C   UNL     1      -7.669  17.783  66.706  1.00  0.00    -0.258 C  
HETATM   14  H2  UNL     1     -10.201  17.458  65.737  1.00  0.00     0.000 HD 
HETATM   15  H1  UNL     1     -11.474  18.565  65.857  1.00  0.00     0.000 HD 
HETATM   16  C   UNL     1      -8.176  19.123  66.186  1.00  0.00    -0.264 C  
HETATM   17  C   UNL     1      -9.933  19.071  68.011  1.00  0.00    -0.368 C  
HETATM   18  C   UNL     1      -9.668  19.320  66.497  1.00  0.00    -0.367 C  
ENDBRANCH   6  10
BRANCH   8  19
HETATM   19  C   UNL     1     -10.334  15.364  66.712  1.00  0.00    -0.279 C  
BRANCH  19  20
HETATM   20  C   UNL     1      -9.458  14.125  66.558  1.00  0.00    -0.303 A  
HETATM   21  C   UNL     1      -9.253  11.828  65.764  1.00  0.00    -0.148 A  
HETATM   22  C   UNL     1     -11.009  13.236  64.823  1.00  0.00    -0.350 C  
HETATM   23  N   UNL     1     -11.916  13.380  64.115  1.00  0.00    -0.430 NA 
HETATM   24  C   UNL     1      -9.887  13.078  65.711  1.00  0.00    -0.217 A  
HETATM   25  C   UNL     1      -8.190  11.613  66.640  1.00  0.00    -0.140 A  
HETATM   26  C   UNL     1      -7.705  12.664  67.414  1.00  0.00    -0.161 A  
HETATM   27  C   UNL     1      -8.311  13.921  67.349  1.00  0.00    -0.208 A  
ENDBRANCH  19  20
ENDBRANCH   8  19
TORSDOF 3
ENDMDL
MODEL       38
REMARK 921   NORMALIZED FREE ENERGY PREDICTED BY IDOCK:   -6.51 KCAL/MOL
REMARK 922        TOTAL FREE ENERGY PREDICTED BY IDOCK:   -7.97 KCAL/MOL
REMARK 923 INTER-LIGAND FREE ENERGY PREDICTED BY IDOCK:   -7.35 KCAL/MOL
REMARK 924 INTRA-LIGAND FREE ENERGY PREDICTED BY IDOCK:   -0.62 KCAL/MOL
REMARK 927      BINDING AFFINITY PREDICTED BY RF-SCORE:    0.00 PKD
ROOT
HETATM    1  C   UNL     1      -7.990   8.497  67.723  1.00  0.00    -0.107 C  
HETATM    2  N   UNL     1      -8.751   9.640  67.255  1.00  0.00    -0.132 N  
HETATM    3  C   UNL     1      -9.411   9.559  66.060  1.00  0.00    -0.216 C  
HETATM    4  C   UNL     1     -10.259  10.705  65.717  1.00  0.00    -0.317 C  
HETATM    5  O   UNL     1      -9.346   8.612  65.281  1.00  0.00    -0.067 OA 
HETATM    6  C   UNL     1     -10.502  11.730  66.558  1.00  0.00    -0.230 C  
HETATM    7  O   UNL     1      -8.105  10.833  69.084  1.00  0.00    -0.152 OA 
HETATM    8  N   UNL     1      -9.798  11.702  67.777  1.00  0.00    -0.175 N  
HETATM    9  C   UNL     1      -8.826  10.739  68.086  1.00  0.00    -0.133 C  
ENDROOT
BRANCH   6  10
HETATM   10  N   UNL     1     -11.431  12.732  66.154  1.00  0.00    -0.331 NA 
HETATM   11  N   UNL     1     -11.146  12.835  63.113  1.00  0.00    -0.656 NA 
HETATM   12  C   UNL     1     -11.380  14.157  66.508  1.00  0.00    -0.341 C  
HETATM   13  C   UNL     1     -11.081  15.014  65.283  1.00  0.00    -0.391 C  
HETATM   14  H2  UNL     1     -10.271  13.017  63.606  1.00  0.00     0.000 HD 
HETATM   15  H1  UNL     1     -11.256  11.847  62.886  1.00  0.00     0.000 HD 
HETATM   16  C   UNL     1     -12.146  14.803  64.213  1.00  0.00    -0.415 C  
HETATM   17  C   UNL     1     -12.532  12.491  65.172  1.00  0.00    -0.379 C  
HETATM   18  C   UNL     1     -12.313  13.315  63.870  1.00  0.00    -0.351 C  
ENDBRANCH   6  10
BRANCH   8  19
HETATM   19  C   UNL     1     -10.213  12.479  68.947  1.00  0.00     0.009 C  
BRANCH  19  20
HETATM   20  C   UNL     1     -11.380  11.952  69.776  1.00  0.00    -0.223 A  
HETATM   21  C   UNL     1     -13.130  12.422  71.409  1.00  0.00    -0.299 A  
HETATM   22  C   UNL     1     -12.168  14.285  70.160  1.00  0.00    -0.345 C  
HETATM   23  N   UNL     1     -12.102  15.419  69.932  1.00  0.00    -0.348 NA 
HETATM   24  C   UNL     1     -12.232  12.871  70.430  1.00  0.00    -0.381 A  
HETATM   25  C   UNL     1     -13.198  11.068  71.735  1.00  0.00    -0.505 A  
HETATM   26  C   UNL     1     -12.424  10.146  71.035  1.00  0.00    -0.474 A  
HETATM   27  C   UNL     1     -11.547  10.579  70.039  1.00  0.00    -0.392 A  
ENDBRANCH  19  20
ENDBRANCH   8  19
TORSDOF 3
ENDMDL
MODEL       39
REMARK 921   NORMALIZED FREE ENERGY PREDICTED BY IDOCK:   -6.50 KCAL/MOL
REMARK 922        TOTAL FREE ENERGY PREDICTED BY IDOCK:   -7.95 KCAL/MOL
REMARK 923 INTER-LIGAND FREE ENERGY PREDICTED BY IDOCK:   -7.03 KCAL/MOL
REMARK 924 INTRA-LIGAND FREE ENERGY PREDICTED BY IDOCK:   -0.92 KCAL/MOL
REMARK 927      BINDING AFFINITY PREDICTED BY RF-SCORE:    0.00 PKD
ROOT
HETATM    1  C   UNL     1     -11.098  16.078  71.238  1.00  0.00    -0.065 C  
HETATM    2  N   UNL     1     -11.136  15.158  70.117  1.00  0.00    -0.265 N  
HETATM    3  C   UNL     1     -12.279  14.447  69.875  1.00  0.00    -0.340 C  
HETATM    4  C   UNL     1     -12.284  13.638  68.652  1.00  0.00    -0.189 C  
HETATM    5  O   UNL     1     -13.277  14.450  70.591  1.00  0.00    -0.322 OA 
HETATM    6  C   UNL     1     -11.296  13.669  67.735  1.00  0.00    -0.306 C  
HETATM    7  O   UNL     1      -8.965  15.644  69.631  1.00  0.00    -0.262 OA 
HETATM    8  N   UNL     1     -10.178  14.457  68.065  1.00  0.00    -0.225 N  
HETATM    9  C   UNL     1     -10.025  15.101  69.302  1.00  0.00    -0.242 C  
ENDROOT
BRANCH   6  10
HETATM   10  N   UNL     1     -11.464  12.920  66.534  1.00  0.00    -0.323 NA 
HETATM   11  N   UNL     1      -8.642  11.970  65.844  1.00  0.00    -0.375 NA 
HETATM   12  C   UNL     1     -11.927  13.444  65.242  1.00  0.00    -0.380 C  
HETATM   13  C   UNL     1     -10.807  13.416  64.207  1.00  0.00    -0.383 C  
HETATM   14  H2  UNL     1      -8.719  12.985  65.913  1.00  0.00     0.000 HD 
HETATM   15  H1  UNL     1      -8.370  11.547  66.732  1.00  0.00     0.000 HD 
HETATM   16  C   UNL     1     -10.296  11.993  64.015  1.00  0.00    -0.406 C  
HETATM   17  C   UNL     1     -11.043  11.494  66.383  1.00  0.00    -0.269 C  
HETATM   18  C   UNL     1      -9.885  11.357  65.351  1.00  0.00    -0.236 C  
ENDBRANCH   6  10
BRANCH   8  19
HETATM   19  C   UNL     1      -9.217  14.925  67.063  1.00  0.00    -0.234 C  
BRANCH  19  20
HETATM   20  C   UNL     1      -9.326  16.372  66.593  1.00  0.00    -0.282 A  
HETATM   21  C   UNL     1      -8.311  18.586  66.478  1.00  0.00    -0.297 A  
HETATM   22  C   UNL     1      -6.870  16.662  66.899  1.00  0.00    -0.218 C  
HETATM   23  N   UNL     1      -5.823  16.214  67.114  1.00  0.00    -0.330 NA 
HETATM   24  C   UNL     1      -8.180  17.199  66.636  1.00  0.00    -0.291 A  
HETATM   25  C   UNL     1      -9.564  19.158  66.265  1.00  0.00    -0.386 A  
HETATM   26  C   UNL     1     -10.685  18.342  66.134  1.00  0.00    -0.210 A  
HETATM   27  C   UNL     1     -10.563  16.957  66.262  1.00  0.00    -0.191 A  
ENDBRANCH  19  20
ENDBRANCH   8  19
TORSDOF 3
ENDMDL
MODEL       40
REMARK 921   NORMALIZED FREE ENERGY PREDICTED BY IDOCK:   -6.47 KCAL/MOL
REMARK 922        TOTAL FREE ENERGY PREDICTED BY IDOCK:   -7.92 KCAL/MOL
REMARK 923 INTER-LIGAND FREE ENERGY PREDICTED BY IDOCK:   -7.00 KCAL/MOL
REMARK 924 INTRA-LIGAND FREE ENERGY PREDICTED BY IDOCK:   -0.93 KCAL/MOL
REMARK 927      BINDING AFFINITY PREDICTED BY RF-SCORE:    0.00 PKD
ROOT
HETATM    1  C   UNL     1     -12.142  13.379  64.203  1.00  0.00    -0.433 C  
HETATM    2  N   UNL     1     -11.258  14.313  64.874  1.00  0.00    -0.360 N  
HETATM    3  C   UNL     1     -11.391  15.653  64.629  1.00  0.00    -0.349 C  
HETATM    4  C   UNL     1     -10.551  16.539  65.439  1.00  0.00    -0.293 C  
HETATM    5  O   UNL     1     -12.154  16.146  63.803  1.00  0.00    -0.946 OA 
HETATM    6  C   UNL     1      -9.781  16.109  66.459  1.00  0.00    -0.263 C  
HETATM    7  O   UNL     1     -10.172  12.582  65.878  1.00  0.00    -0.251 OA 
HETATM    8  N   UNL     1      -9.738  14.715  66.649  1.00  0.00    -0.258 N  
HETATM    9  C   UNL     1     -10.364  13.799  65.790  1.00  0.00    -0.307 C  
ENDROOT
BRANCH   6  10
HETATM   10  N   UNL     1      -9.093  17.080  67.244  1.00  0.00    -0.220 NA 
HETATM   11  N   UNL     1     -10.988  19.477  67.300  1.00  0.00    -0.450 NA 
HETATM   12  C   UNL     1      -7.813  17.719  66.909  1.00  0.00    -0.224 C  
HETATM   13  C   UNL     1      -8.003  19.202  66.612  1.00  0.00    -0.283 C  
HETATM   14  H2  UNL     1     -10.722  19.197  66.357  1.00  0.00     0.000 HD 
HETATM   15  H1  UNL     1     -11.849  19.021  67.605  1.00  0.00     0.000 HD 
HETATM   16  C   UNL     1      -8.615  19.911  67.815  1.00  0.00    -0.370 C  
HETATM   17  C   UNL     1      -9.665  17.703  68.476  1.00  0.00    -0.328 C  
HETATM   18  C   UNL     1      -9.912  19.226  68.272  1.00  0.00    -0.410 C  
ENDBRANCH   6  10
BRANCH   8  19
HETATM   19  C   UNL     1      -9.300  14.101  67.904  1.00  0.00    -0.204 C  
BRANCH  19  20
HETATM   20  C   UNL     1      -7.876  13.559  67.975  1.00  0.00    -0.147 A  
HETATM   21  C   UNL     1      -6.373  11.801  68.748  1.00  0.00    -0.061 A  
HETATM   22  C   UNL     1      -8.757  11.307  68.577  1.00  0.00    -0.156 C  
HETATM   23  N   UNL     1      -9.647  10.577  68.708  1.00  0.00    -0.171 NA 
HETATM   24  C   UNL     1      -7.664  12.231  68.411  1.00  0.00    -0.141 A  
HETATM   25  C   UNL     1      -5.290  12.672  68.644  1.00  0.00    -0.059 A  
HETATM   26  C   UNL     1      -5.477  13.954  68.133  1.00  0.00    -0.120 A  
HETATM   27  C   UNL     1      -6.754  14.384  67.768  1.00  0.00    -0.191 A  
ENDBRANCH  19  20
ENDBRANCH   8  19
TORSDOF 3
ENDMDL
MODEL       41
REMARK 921   NORMALIZED FREE ENERGY PREDICTED BY IDOCK:   -6.47 KCAL/MOL
REMARK 922        TOTAL FREE ENERGY PREDICTED BY IDOCK:   -7.92 KCAL/MOL
REMARK 923 INTER-LIGAND FREE ENERGY PREDICTED BY IDOCK:   -6.71 KCAL/MOL
REMARK 924 INTRA-LIGAND FREE ENERGY PREDICTED BY IDOCK:   -1.21 KCAL/MOL
REMARK 927      BINDING AFFINITY PREDICTED BY RF-SCORE:    0.00 PKD
ROOT
HETATM    1  C   UNL     1     -11.725   8.193  72.448  1.00  0.00    -0.399 C  
HETATM    2  N   UNL     1     -10.990   8.995  71.488  1.00  0.00    -0.321 N  
HETATM    3  C   UNL     1      -9.715   8.632  71.149  1.00  0.00    -0.224 C  
HETATM    4  C   UNL     1      -9.087   9.415  70.081  1.00  0.00    -0.262 C  
HETATM    5  O   UNL     1      -9.084   7.712  71.664  1.00  0.00    -0.132 OA 
HETATM    6  C   UNL     1      -9.738  10.353  69.365  1.00  0.00    -0.200 C  
HETATM    7  O   UNL     1     -12.742  10.442  71.338  1.00  0.00    -0.370 OA 
HETATM    8  N   UNL     1     -11.056  10.631  69.772  1.00  0.00    -0.277 N  
HETATM    9  C   UNL     1     -11.651  10.057  70.906  1.00  0.00    -0.378 C  
ENDROOT
BRANCH   6  10
HETATM   10  N   UNL     1      -9.053  10.972  68.278  1.00  0.00    -0.151 NA 
HETATM   11  N   UNL     1      -6.815   9.007  67.590  1.00  0.00    -0.069 NA 
HETATM   12  C   UNL     1      -8.326  12.248  68.323  1.00  0.00    -0.174 C  
HETATM   13  C   UNL     1      -6.827  12.030  68.154  1.00  0.00    -0.069 C  
HETATM   14  H2  UNL     1      -6.783   9.330  68.557  1.00  0.00     0.000 HD 
HETATM   15  H1  UNL     1      -7.353   8.145  67.493  1.00  0.00     0.000 HD 
HETATM   16  C   UNL     1      -6.536  11.336  66.828  1.00  0.00    -0.136 C  
HETATM   17  C   UNL     1      -8.852  10.318  66.949  1.00  0.00    -0.132 C  
HETATM   18  C   UNL     1      -7.345  10.038  66.683  1.00  0.00    -0.103 C  
ENDBRANCH   6  10
BRANCH   8  19
HETATM   19  C   UNL     1     -12.028  11.299  68.904  1.00  0.00    -0.310 C  
BRANCH  19  20
HETATM   20  C   UNL     1     -11.994  12.822  68.835  1.00  0.00    -0.286 A  
HETATM   21  C   UNL     1     -11.539  14.819  67.510  1.00  0.00    -0.379 A  
HETATM   22  C   UNL     1     -11.955  12.715  66.346  1.00  0.00    -0.357 C  
HETATM   23  N   UNL     1     -12.042  12.106  65.364  1.00  0.00    -0.484 NA 
HETATM   24  C   UNL     1     -11.849  13.453  67.578  1.00  0.00    -0.408 A  
HETATM   25  C   UNL     1     -11.383  15.566  68.677  1.00  0.00    -0.348 A  
HETATM   26  C   UNL     1     -11.610  14.973  69.916  1.00  0.00    -0.328 A  
HETATM   27  C   UNL     1     -11.947  13.620  69.995  1.00  0.00    -0.413 A  
ENDBRANCH  19  20
ENDBRANCH   8  19
TORSDOF 3
ENDMDL
MODEL       42
REMARK 921   NORMALIZED FREE ENERGY PREDICTED BY IDOCK:   -6.42 KCAL/MOL
REMARK 922        TOTAL FREE ENERGY PREDICTED BY IDOCK:   -7.87 KCAL/MOL
REMARK 923 INTER-LIGAND FREE ENERGY PREDICTED BY IDOCK:   -7.43 KCAL/MOL
REMARK 924 INTRA-LIGAND FREE ENERGY PREDICTED BY IDOCK:   -0.43 KCAL/MOL
REMARK 927      BINDING AFFINITY PREDICTED BY RF-SCORE:    0.00 PKD
ROOT
HETATM    1  C   UNL     1      -7.959   8.837  65.281  1.00  0.00    -0.118 C  
HETATM    2  N   UNL     1      -8.731   8.996  66.498  1.00  0.00    -0.126 N  
HETATM    3  C   UNL     1      -8.228   8.516  67.677  1.00  0.00    -0.118 C  
HETATM    4  C   UNL     1      -9.006   8.828  68.880  1.00  0.00    -0.134 C  
HETATM    5  O   UNL     1      -7.192   7.866  67.788  1.00  0.00    -0.086 OA 
HETATM    6  C   UNL     1     -10.080   9.642  68.882  1.00  0.00    -0.187 C  
HETATM    7  O   UNL     1     -10.409   9.985  65.318  1.00  0.00    -0.236 OA 
HETATM    8  N   UNL     1     -10.498  10.109  67.622  1.00  0.00    -0.226 N  
HETATM    9  C   UNL     1      -9.918   9.695  66.413  1.00  0.00    -0.255 C  
ENDROOT
BRANCH   6  10
HETATM   10  N   UNL     1     -10.688   9.957  70.132  1.00  0.00    -0.286 NA 
HETATM   11  N   UNL     1     -12.385   7.499  70.780  1.00  0.00    -0.532 NA 
HETATM   12  C   UNL     1     -11.637  11.050  70.385  1.00  0.00    -0.293 C  
HETATM   13  C   UNL     1     -13.025  10.507  70.708  1.00  0.00    -0.413 C  
HETATM   14  H2  UNL     1     -12.628   7.932  69.889  1.00  0.00     0.000 HD 
HETATM   15  H1  UNL     1     -11.689   6.762  70.668  1.00  0.00     0.000 HD 
HETATM   16  C   UNL     1     -12.969   9.600  71.932  1.00  0.00    -0.527 C  
HETATM   17  C   UNL     1     -10.553   9.108  71.355  1.00  0.00    -0.341 C  
HETATM   18  C   UNL     1     -11.921   8.490  71.764  1.00  0.00    -0.332 C  
ENDBRANCH   6  10
BRANCH   8  19
HETATM   19  C   UNL     1     -11.361  11.281  67.460  1.00  0.00    -0.288 C  
BRANCH  19  20
HETATM   20  C   UNL     1     -10.694  12.628  67.201  1.00  0.00    -0.264 A  
HETATM   21  C   UNL     1     -10.268  14.455  65.642  1.00  0.00    -0.371 A  
HETATM   22  C   UNL     1     -12.177  12.992  65.232  1.00  0.00    -0.466 C  
HETATM   23  N   UNL     1     -13.086  12.676  64.585  1.00  0.00    -0.848 NA 
HETATM   24  C   UNL     1     -11.051  13.365  66.049  1.00  0.00    -0.294 A  
HETATM   25  C   UNL     1      -9.143  14.828  66.376  1.00  0.00    -0.267 A  
HETATM   26  C   UNL     1      -8.835  14.162  67.560  1.00  0.00    -0.202 A  
HETATM   27  C   UNL     1      -9.623  13.093  67.989  1.00  0.00    -0.220 A  
ENDBRANCH  19  20
ENDBRANCH   8  19
TORSDOF 3
ENDMDL
MODEL       43
REMARK 921   NORMALIZED FREE ENERGY PREDICTED BY IDOCK:   -6.33 KCAL/MOL
REMARK 922        TOTAL FREE ENERGY PREDICTED BY IDOCK:   -7.76 KCAL/MOL
REMARK 923 INTER-LIGAND FREE ENERGY PREDICTED BY IDOCK:   -7.35 KCAL/MOL
REMARK 924 INTRA-LIGAND FREE ENERGY PREDICTED BY IDOCK:   -0.40 KCAL/MOL
REMARK 927      BINDING AFFINITY PREDICTED BY RF-SCORE:    0.00 PKD
ROOT
HETATM    1  C   UNL     1      -6.530  12.781  69.611  1.00  0.00    -0.046 C  
HETATM    2  N   UNL     1      -7.545  12.617  68.588  1.00  0.00    -0.112 N  
HETATM    3  C   UNL     1      -7.792  11.369  68.085  1.00  0.00    -0.130 C  
HETATM    4  C   UNL     1      -8.916  11.266  67.150  1.00  0.00    -0.155 C  
HETATM    5  O   UNL     1      -7.155  10.357  68.365  1.00  0.00    -0.075 OA 
HETATM    6  C   UNL     1      -9.756  12.285  66.880  1.00  0.00    -0.212 C  
HETATM    7  O   UNL     1      -7.920  14.863  68.586  1.00  0.00    -0.129 OA 
HETATM    8  N   UNL     1      -9.433  13.520  67.473  1.00  0.00    -0.215 N  
HETATM    9  C   UNL     1      -8.265  13.735  68.221  1.00  0.00    -0.156 C  
ENDROOT
BRANCH   6  10
HETATM   10  N   UNL     1     -10.879  12.033  66.038  1.00  0.00    -0.278 NA 
HETATM   11  N   UNL     1      -9.787  12.400  63.207  1.00  0.00    -0.578 NA 
HETATM   12  C   UNL     1     -12.118  12.819  65.984  1.00  0.00    -0.395 C  
HETATM   13  C   UNL     1     -12.244  13.554  64.654  1.00  0.00    -0.450 C  
HETATM   14  H2  UNL     1      -9.673  13.227  63.792  1.00  0.00     0.000 HD 
HETATM   15  H1  UNL     1      -8.970  11.790  63.246  1.00  0.00     0.000 HD 
HETATM   16  C   UNL     1     -12.231  12.562  63.496  1.00  0.00    -0.652 C  
HETATM   17  C   UNL     1     -10.889  10.993  64.964  1.00  0.00    -0.123 C  
HETATM   18  C   UNL     1     -11.001  11.644  63.554  1.00  0.00    -0.407 C  
ENDBRANCH   6  10
BRANCH   8  19
HETATM   19  C   UNL     1     -10.407  14.603  67.625  1.00  0.00    -0.233 C  
BRANCH  19  20
HETATM   20  C   UNL     1     -11.196  14.675  68.928  1.00  0.00    -0.285 A  
HETATM   21  C   UNL     1     -11.626  15.856  71.018  1.00  0.00    -0.465 A  
HETATM   22  C   UNL     1     -10.555  17.069  69.192  1.00  0.00    -0.303 C  
HETATM   23  N   UNL     1     -10.073  18.034  68.767  1.00  0.00    -0.385 NA 
HETATM   24  C   UNL     1     -11.146  15.858  69.701  1.00  0.00    -0.320 A  
HETATM   25  C   UNL     1     -12.167  14.696  71.570  1.00  0.00    -0.416 A  
HETATM   26  C   UNL     1     -12.301  13.552  70.787  1.00  0.00    -0.440 A  
HETATM   27  C   UNL     1     -11.851  13.551  69.465  1.00  0.00    -0.392 A  
ENDBRANCH  19  20
ENDBRANCH   8  19
TORSDOF 3
ENDMDL
MODEL       44
REMARK 921   NORMALIZED FREE ENERGY PREDICTED BY IDOCK:   -6.30 KCAL/MOL
REMARK 922        TOTAL FREE ENERGY PREDICTED BY IDOCK:   -7.72 KCAL/MOL
REMARK 923 INTER-LIGAND FREE ENERGY PREDICTED BY IDOCK:   -6.51 KCAL/MOL
REMARK 924 INTRA-LIGAND FREE ENERGY PREDICTED BY IDOCK:   -1.21 KCAL/MOL
REMARK 927      BINDING AFFINITY PREDICTED BY RF-SCORE:    0.00 PKD
ROOT
HETATM    1  C   UNL     1     -11.579   8.520  72.440  1.00  0.00    -0.354 C  
HETATM    2  N   UNL     1     -11.449   9.391  71.288  1.00  0.00    -0.332 N  
HETATM    3  C   UNL     1     -12.307  10.447  71.148  1.00  0.00    -0.400 C  
HETATM    4  C   UNL     1     -12.032  11.353  70.029  1.00  0.00    -0.442 C  
HETATM    5  O   UNL     1     -13.262  10.682  71.883  1.00  0.00    -0.461 OA 
HETATM    6  C   UNL     1     -10.938  11.260  69.247  1.00  0.00    -0.243 C  
HETATM    7  O   UNL     1      -9.745   8.106  70.495  1.00  0.00    -0.173 OA 
HETATM    8  N   UNL     1     -10.101  10.156  69.493  1.00  0.00    -0.224 N  
HETATM    9  C   UNL     1     -10.407   9.146  70.418  1.00  0.00    -0.223 C  
ENDROOT
BRANCH   6  10
HETATM   10  N   UNL     1     -10.723  12.266  68.259  1.00  0.00    -0.213 NA 
HETATM   11  N   UNL     1     -12.522  14.574  69.140  1.00  0.00    -0.575 NA 
HETATM   12  C   UNL     1     -11.048  12.162  66.830  1.00  0.00    -0.297 C  
HETATM   13  C   UNL     1     -12.184  13.109  66.457  1.00  0.00    -0.358 C  
HETATM   14  H2  UNL     1     -13.032  13.705  68.983  1.00  0.00     0.000 HD 
HETATM   15  H1  UNL     1     -12.228  14.674  70.112  1.00  0.00     0.000 HD 
HETATM   16  C   UNL     1     -11.805  14.549  66.780  1.00  0.00    -0.390 C  
HETATM   17  C   UNL     1     -10.262  13.651  68.577  1.00  0.00    -0.234 C  
HETATM   18  C   UNL     1     -11.362  14.700  68.244  1.00  0.00    -0.297 C  
ENDBRANCH   6  10
BRANCH   8  19
HETATM   19  C   UNL     1      -8.708  10.103  69.041  1.00  0.00    -0.161 C  
BRANCH  19  20
HETATM   20  C   UNL     1      -8.444   9.724  67.588  1.00  0.00    -0.122 A  
HETATM   21  C   UNL     1      -7.709  10.430  65.372  1.00  0.00    -0.136 A  
HETATM   22  C   UNL     1      -7.048  11.768  67.303  1.00  0.00    -0.140 C  
HETATM   23  N   UNL     1      -6.509  12.690  67.755  1.00  0.00    -0.111 NA 
HETATM   24  C   UNL     1      -7.726  10.619  66.761  1.00  0.00    -0.127 A  
HETATM   25  C   UNL     1      -8.387   9.356  64.797  1.00  0.00    -0.159 A  
HETATM   26  C   UNL     1      -9.023   8.422  65.610  1.00  0.00    -0.183 A  
HETATM   27  C   UNL     1      -9.024   8.585  66.997  1.00  0.00    -0.157 A  
ENDBRANCH  19  20
ENDBRANCH   8  19
TORSDOF 3
ENDMDL
MODEL       45
REMARK 921   NORMALIZED FREE ENERGY PREDICTED BY IDOCK:   -6.26 KCAL/MOL
REMARK 922        TOTAL FREE ENERGY PREDICTED BY IDOCK:   -7.67 KCAL/MOL
REMARK 923 INTER-LIGAND FREE ENERGY PREDICTED BY IDOCK:   -6.70 KCAL/MOL
REMARK 924 INTRA-LIGAND FREE ENERGY PREDICTED BY IDOCK:   -0.97 KCAL/MOL
REMARK 927      BINDING AFFINITY PREDICTED BY RF-SCORE:    0.00 PKD
ROOT
HETATM    1  C   UNL     1     -10.853  10.978  64.139  1.00  0.00    -0.180 C  
HETATM    2  N   UNL     1     -11.051  12.039  65.108  1.00  0.00    -0.311 N  
HETATM    3  C   UNL     1     -12.203  12.776  65.067  1.00  0.00    -0.473 C  
HETATM    4  C   UNL     1     -12.385  13.741  66.155  1.00  0.00    -0.496 C  
HETATM    5  O   UNL     1     -13.073  12.677  64.206  1.00  0.00    -0.741 OA 
HETATM    6  C   UNL     1     -11.557  13.834  67.214  1.00  0.00    -0.361 C  
HETATM    7  O   UNL     1      -8.996  11.625  65.996  1.00  0.00    -0.205 OA 
HETATM    8  N   UNL     1     -10.417  13.010  67.176  1.00  0.00    -0.242 N  
HETATM    9  C   UNL     1     -10.082  12.206  66.076  1.00  0.00    -0.235 C  
ENDROOT
BRANCH   6  10
HETATM   10  N   UNL     1     -11.899  14.737  68.264  1.00  0.00    -0.310 NA 
HETATM   11  N   UNL     1      -9.212  15.868  69.181  1.00  0.00    -0.240 NA 
HETATM   12  C   UNL     1     -12.526  14.383  69.544  1.00  0.00    -0.125 C  
HETATM   13  C   UNL     1     -11.559  14.593  70.704  1.00  0.00    -0.305 C  
HETATM   14  H2  UNL     1      -9.264  14.852  69.248  1.00  0.00     0.000 HD 
HETATM   15  H1  UNL     1      -8.826  16.172  68.286  1.00  0.00     0.000 HD 
HETATM   16  C   UNL     1     -11.099  16.045  70.758  1.00  0.00    -0.321 C  
HETATM   17  C   UNL     1     -11.523  16.184  68.265  1.00  0.00    -0.259 C  
HETATM   18  C   UNL     1     -10.519  16.503  69.411  1.00  0.00    -0.320 C  
ENDBRANCH   6  10
BRANCH   8  19
HETATM   19  C   UNL     1      -9.639  12.681  68.372  1.00  0.00    -0.173 C  
BRANCH  19  20
HETATM   20  C   UNL     1     -10.042  11.443  69.167  1.00  0.00    -0.044 A  
HETATM   21  C   UNL     1      -9.480   9.184  69.895  1.00  0.00    -0.199 A  
HETATM   22  C   UNL     1      -7.680  10.650  69.142  1.00  0.00    -0.138 C  
HETATM   23  N   UNL     1      -6.559  10.834  68.911  1.00  0.00    -0.053 NA 
HETATM   24  C   UNL     1      -9.078  10.440  69.418  1.00  0.00    -0.170 A  
HETATM   25  C   UNL     1     -10.827   8.919  70.137  1.00  0.00    -0.251 A  
HETATM   26  C   UNL     1     -11.772   9.929  69.975  1.00  0.00    -0.186 A  
HETATM   27  C   UNL     1     -11.380  11.192  69.527  1.00  0.00    -0.359 A  
ENDBRANCH  19  20
ENDBRANCH   8  19
TORSDOF 3
ENDMDL
MODEL       46
REMARK 921   NORMALIZED FREE ENERGY PREDICTED BY IDOCK:   -6.24 KCAL/MOL
REMARK 922        TOTAL FREE ENERGY PREDICTED BY IDOCK:   -7.65 KCAL/MOL
REMARK 923 INTER-LIGAND FREE ENERGY PREDICTED BY IDOCK:   -7.08 KCAL/MOL
REMARK 924 INTRA-LIGAND FREE ENERGY PREDICTED BY IDOCK:   -0.57 KCAL/MOL
REMARK 927      BINDING AFFINITY PREDICTED BY RF-SCORE:    0.00 PKD
ROOT
HETATM    1  C   UNL     1     -11.836  16.137  69.173  1.00  0.00    -0.178 C  
HETATM    2  N   UNL     1     -11.568  14.725  69.372  1.00  0.00    -0.292 N  
HETATM    3  C   UNL     1     -12.355  14.010  70.233  1.00  0.00    -0.358 C  
HETATM    4  C   UNL     1     -12.104  12.566  70.282  1.00  0.00    -0.373 C  
HETATM    5  O   UNL     1     -13.238  14.485  70.941  1.00  0.00    -0.366 OA 
HETATM    6  C   UNL     1     -11.252  11.930  69.453  1.00  0.00    -0.211 C  
HETATM    7  O   UNL     1      -9.784  14.855  67.963  1.00  0.00    -0.207 OA 
HETATM    8  N   UNL     1     -10.514  12.753  68.582  1.00  0.00    -0.237 N  
HETATM    9  C   UNL     1     -10.564  14.155  68.617  1.00  0.00    -0.249 C  
ENDROOT
BRANCH   6  10
HETATM   10  N   UNL     1     -11.174  10.508  69.523  1.00  0.00    -0.253 NA 
HETATM   11  N   UNL     1      -8.317   9.962  70.463  1.00  0.00    -0.392 NA 
HETATM   12  C   UNL     1     -11.301   9.575  68.396  1.00  0.00     0.260 C  
HETATM   13  C   UNL     1      -9.975   8.877  68.111  1.00  0.00    -0.208 C  
HETATM   14  H2  UNL     1      -8.360  10.501  69.597  1.00  0.00     0.000 HD 
HETATM   15  H1  UNL     1      -8.277  10.565  71.285  1.00  0.00     0.000 HD 
HETATM   16  C   UNL     1      -9.501   8.112  69.341  1.00  0.00    -0.162 C  
HETATM   17  C   UNL     1     -10.797   9.761  70.762  1.00  0.00    -0.333 C  
HETATM   18  C   UNL     1      -9.441   9.020  70.580  1.00  0.00    -0.221 C  
ENDBRANCH   6  10
BRANCH   8  19
HETATM   19  C   UNL     1      -9.862  12.243  67.374  1.00  0.00    -0.198 C  
BRANCH  19  20
HETATM   20  C   UNL     1     -10.723  12.037  66.132  1.00  0.00    -0.312 A  
HETATM   21  C   UNL     1     -10.833  11.404  63.779  1.00  0.00    -0.468 A  
HETATM   22  C   UNL     1      -8.910  10.677  65.094  1.00  0.00    -0.193 C  
HETATM   23  N   UNL     1      -7.891  10.131  65.174  1.00  0.00    -0.137 NA 
HETATM   24  C   UNL     1     -10.174  11.364  65.016  1.00  0.00    -0.333 A  
HETATM   25  C   UNL     1     -12.037  12.093  63.643  1.00  0.00    -0.648 A  
HETATM   26  C   UNL     1     -12.628  12.684  64.757  1.00  0.00    -0.530 A  
HETATM   27  C   UNL     1     -11.994  12.627  66.000  1.00  0.00    -0.478 A  
ENDBRANCH  19  20
ENDBRANCH   8  19
TORSDOF 3
ENDMDL
MODEL       47
REMARK 921   NORMALIZED FREE ENERGY PREDICTED BY IDOCK:   -6.23 KCAL/MOL
REMARK 922        TOTAL FREE ENERGY PREDICTED BY IDOCK:   -7.64 KCAL/MOL
REMARK 923 INTER-LIGAND FREE ENERGY PREDICTED BY IDOCK:   -7.01 KCAL/MOL
REMARK 924 INTRA-LIGAND FREE ENERGY PREDICTED BY IDOCK:   -0.63 KCAL/MOL
REMARK 927      BINDING AFFINITY PREDICTED BY RF-SCORE:    0.00 PKD
ROOT
HETATM    1  C   UNL     1     -12.502  14.977  64.454  1.00  0.00    -0.140 C  
HETATM    2  N   UNL     1     -11.437  14.573  65.352  1.00  0.00    -0.340 N  
HETATM    3  C   UNL     1     -10.362  15.401  65.529  1.00  0.00    -0.387 C  
HETATM    4  C   UNL     1      -9.392  14.983  66.547  1.00  0.00    -0.309 C  
HETATM    5  O   UNL     1     -10.167  16.445  64.913  1.00  0.00    -0.509 OA 
HETATM    6  C   UNL     1      -9.580  13.929  67.366  1.00  0.00    -0.235 C  
HETATM    7  O   UNL     1     -12.507  12.604  65.753  1.00  0.00    -0.607 OA 
HETATM    8  N   UNL     1     -10.733  13.161  67.122  1.00  0.00    -0.254 N  
HETATM    9  C   UNL     1     -11.601  13.391  66.043  1.00  0.00    -0.344 C  
ENDROOT
BRANCH   6  10
HETATM   10  N   UNL     1      -8.617  13.688  68.389  1.00  0.00    -0.169 NA 
HETATM   11  N   UNL     1      -6.061  14.991  67.335  1.00  0.00    -0.328 NA 
HETATM   12  C   UNL     1      -8.124  12.374  68.825  1.00  0.00     0.074 C  
HETATM   13  C   UNL     1      -6.657  12.188  68.453  1.00  0.00    -0.059 C  
HETATM   14  H2  UNL     1      -6.437  14.278  66.710  1.00  0.00     0.000 HD 
HETATM   15  H1  UNL     1      -6.412  15.922  67.107  1.00  0.00     0.000 HD 
HETATM   16  C   UNL     1      -5.804  13.278  69.091  1.00  0.00    -0.080 C  
HETATM   17  C   UNL     1      -7.850  14.771  69.076  1.00  0.00    -0.150 C  
HETATM   18  C   UNL     1      -6.332  14.680  68.748  1.00  0.00    -0.087 C  
ENDBRANCH   6  10
BRANCH   8  19
HETATM   19  C   UNL     1     -11.304  12.252  68.120  1.00  0.00    -0.295 C  
BRANCH  19  20
HETATM   20  C   UNL     1     -11.856  12.860  69.405  1.00  0.00    -0.371 A  
HETATM   21  C   UNL     1     -12.859  12.492  71.597  1.00  0.00    -0.368 A  
HETATM   22  C   UNL     1     -11.645  10.655  70.546  1.00  0.00    -0.350 C  
HETATM   23  N   UNL     1     -11.271   9.558  70.553  1.00  0.00    -0.268 NA 
HETATM   24  C   UNL     1     -12.103  12.020  70.515  1.00  0.00    -0.402 A  
HETATM   25  C   UNL     1     -13.360  13.793  71.594  1.00  0.00    -0.430 A  
HETATM   26  C   UNL     1     -13.048  14.654  70.546  1.00  0.00    -0.252 A  
HETATM   27  C   UNL     1     -12.273  14.203  69.475  1.00  0.00    -0.351 A  
ENDBRANCH  19  20
ENDBRANCH   8  19
TORSDOF 3
ENDMDL
MODEL       48
REMARK 921   NORMALIZED FREE ENERGY PREDICTED BY IDOCK:   -6.22 KCAL/MOL
REMARK 922        TOTAL FREE ENERGY PREDICTED BY IDOCK:   -7.63 KCAL/MOL
REMARK 923 INTER-LIGAND FREE ENERGY PREDICTED BY IDOCK:   -7.24 KCAL/MOL
REMARK 924 INTRA-LIGAND FREE ENERGY PREDICTED BY IDOCK:   -0.39 KCAL/MOL
REMARK 927      BINDING AFFINITY PREDICTED BY RF-SCORE:    0.00 PKD
ROOT
HETATM    1  C   UNL     1     -10.636  17.899  68.130  1.00  0.00    -0.340 C  
HETATM    2  N   UNL     1     -10.427  16.463  68.137  1.00  0.00    -0.289 N  
HETATM    3  C   UNL     1     -11.110  15.692  69.037  1.00  0.00    -0.279 C  
HETATM    4  C   UNL     1     -10.943  14.242  68.897  1.00  0.00    -0.275 C  
HETATM    5  O   UNL     1     -11.840  16.125  69.925  1.00  0.00    -0.274 OA 
HETATM    6  C   UNL     1     -10.274  13.665  67.879  1.00  0.00    -0.250 C  
HETATM    7  O   UNL     1      -8.883  16.669  66.476  1.00  0.00    -0.233 OA 
HETATM    8  N   UNL     1      -9.633  14.546  66.988  1.00  0.00    -0.237 N  
HETATM    9  C   UNL     1      -9.591  15.937  67.174  1.00  0.00    -0.218 C  
ENDROOT
BRANCH   6  10
HETATM   10  N   UNL     1     -10.272  12.242  67.790  1.00  0.00    -0.199 NA 
HETATM   11  N   UNL     1     -11.636  11.330  70.369  1.00  0.00    -0.472 NA 
HETATM   12  C   UNL     1      -9.087  11.375  67.757  1.00  0.00    -0.158 C  
HETATM   13  C   UNL     1      -8.983  10.540  69.028  1.00  0.00    -0.183 C  
HETATM   14  H2  UNL     1     -10.808  11.904  70.533  1.00  0.00     0.000 HD 
HETATM   15  H1  UNL     1     -12.488  11.891  70.334  1.00  0.00     0.000 HD 
HETATM   16  C   UNL     1     -10.228   9.677  69.200  1.00  0.00    -0.212 C  
HETATM   17  C   UNL     1     -11.510  11.408  67.868  1.00  0.00    -0.291 C  
HETATM   18  C   UNL     1     -11.511  10.521  69.146  1.00  0.00    -0.247 C  
ENDBRANCH   6  10
BRANCH   8  19
HETATM   19  C   UNL     1      -9.212  14.145  65.644  1.00  0.00     0.398 C  
BRANCH  19  20
HETATM   20  C   UNL     1     -10.236  13.446  64.756  1.00  0.00    -0.339 A  
HETATM   21  C   UNL     1     -12.409  13.528  63.652  1.00  0.00    -0.377 A  
HETATM   22  C   UNL     1     -11.363  15.626  64.327  1.00  0.00    -0.171 C  
HETATM   23  N   UNL     1     -11.384  16.782  64.414  1.00  0.00    -1.077 NA 
HETATM   24  C   UNL     1     -11.318  14.190  64.232  1.00  0.00    -0.241 A  
HETATM   25  C   UNL     1     -12.431  12.136  63.576  1.00  0.00    -0.666 A  
HETATM   26  C   UNL     1     -11.332  11.400  64.010  1.00  0.00    -0.291 A  
HETATM   27  C   UNL     1     -10.227  12.051  64.564  1.00  0.00    -0.318 A  
ENDBRANCH  19  20
ENDBRANCH   8  19
TORSDOF 3
ENDMDL
MODEL       49
REMARK 921   NORMALIZED FREE ENERGY PREDICTED BY IDOCK:   -6.22 KCAL/MOL
REMARK 922        TOTAL FREE ENERGY PREDICTED BY IDOCK:   -7.63 KCAL/MOL
REMARK 923 INTER-LIGAND FREE ENERGY PREDICTED BY IDOCK:   -6.40 KCAL/MOL
REMARK 924 INTRA-LIGAND FREE ENERGY PREDICTED BY IDOCK:   -1.23 KCAL/MOL
REMARK 927      BINDING AFFINITY PREDICTED BY RF-SCORE:    0.00 PKD
ROOT
HETATM    1  C   UNL     1     -12.337  12.104  63.187  1.00  0.00    -0.268 C  
HETATM    2  N   UNL     1     -11.772  12.533  64.452  1.00  0.00    -0.346 N  
HETATM    3  C   UNL     1     -12.137  13.745  64.972  1.00  0.00    -0.403 C  
HETATM    4  C   UNL     1     -11.623  14.049  66.310  1.00  0.00    -0.379 C  
HETATM    5  O   UNL     1     -12.854  14.567  64.407  1.00  0.00    -0.603 OA 
HETATM    6  C   UNL     1     -10.941  13.165  67.066  1.00  0.00    -0.269 C  
HETATM    7  O   UNL     1     -10.516  10.636  64.546  1.00  0.00    -0.345 OA 
HETATM    8  N   UNL     1     -10.644  11.935  66.451  1.00  0.00    -0.240 N  
HETATM    9  C   UNL     1     -10.936  11.652  65.108  1.00  0.00    -0.266 C  
ENDROOT
BRANCH   6  10
HETATM   10  N   UNL     1     -10.589  13.540  68.395  1.00  0.00    -0.242 NA 
HETATM   11  N   UNL     1     -12.786  15.494  69.229  1.00  0.00    -0.384 NA 
HETATM   12  C   UNL     1      -9.376  14.264  68.800  1.00  0.00    -0.119 C  
HETATM   13  C   UNL     1      -9.716  15.662  69.306  1.00  0.00    -0.271 C  
HETATM   14  H2  UNL     1     -12.285  15.786  68.390  1.00  0.00     0.000 HD 
HETATM   15  H1  UNL     1     -13.615  14.942  69.006  1.00  0.00     0.000 HD 
HETATM   16  C   UNL     1     -10.669  15.581  70.492  1.00  0.00    -0.309 C  
HETATM   17  C   UNL     1     -11.497  13.372  69.570  1.00  0.00    -0.244 C  
HETATM   18  C   UNL     1     -11.918  14.751  70.156  1.00  0.00    -0.312 C  
ENDBRANCH   6  10
BRANCH   8  19
HETATM   19  C   UNL     1     -10.281  10.737  67.212  1.00  0.00    -0.205 C  
BRANCH  19  20
HETATM   20  C   UNL     1      -8.864  10.649  67.768  1.00  0.00    -0.133 A  
HETATM   21  C   UNL     1      -7.420  10.537  69.731  1.00  0.00    -0.127 A  
HETATM   22  C   UNL     1      -9.768   9.917  69.972  1.00  0.00    -0.227 C  
HETATM   23  N   UNL     1     -10.657   9.570  70.630  1.00  0.00    -0.285 NA 
HETATM   24  C   UNL     1      -8.677  10.353  69.138  1.00  0.00    -0.173 A  
HETATM   25  C   UNL     1      -6.344  10.999  68.975  1.00  0.00    -0.048 A  
HETATM   26  C   UNL     1      -6.497  11.208  67.606  1.00  0.00    -0.065 A  
HETATM   27  C   UNL     1      -7.738  11.002  67.000  1.00  0.00    -0.134 A  
ENDBRANCH  19  20
ENDBRANCH   8  19
TORSDOF 3
ENDMDL
MODEL       50
REMARK 921   NORMALIZED FREE ENERGY PREDICTED BY IDOCK:   -6.21 KCAL/MOL
REMARK 922        TOTAL FREE ENERGY PREDICTED BY IDOCK:   -7.62 KCAL/MOL
REMARK 923 INTER-LIGAND FREE ENERGY PREDICTED BY IDOCK:   -6.64 KCAL/MOL
REMARK 924 INTRA-LIGAND FREE ENERGY PREDICTED BY IDOCK:   -0.98 KCAL/MOL
REMARK 927      BINDING AFFINITY PREDICTED BY RF-SCORE:    0.00 PKD
ROOT
HETATM    1  C   UNL     1     -12.490  13.417  63.685  1.00  0.00    -0.242 C  
HETATM    2  N   UNL     1     -11.557  12.743  64.567  1.00  0.00    -0.329 N  
HETATM    3  C   UNL     1     -10.667  11.847  64.041  1.00  0.00    -0.375 C  
HETATM    4  C   UNL     1      -9.675  11.305  64.974  1.00  0.00    -0.293 C  
HETATM    5  O   UNL     1     -10.642  11.484  62.868  1.00  0.00    -0.182 OA 
HETATM    6  C   UNL     1      -9.534  11.735  66.244  1.00  0.00    -0.224 C  
HETATM    7  O   UNL     1     -12.477  13.797  66.364  1.00  0.00    -0.423 OA 
HETATM    8  N   UNL     1     -10.480  12.682  66.679  1.00  0.00    -0.243 N  
HETATM    9  C   UNL     1     -11.570  13.098  65.900  1.00  0.00    -0.354 C  
ENDROOT
BRANCH   6  10
HETATM   10  N   UNL     1      -8.461  11.209  67.022  1.00  0.00    -0.141 NA 
HETATM   11  N   UNL     1      -9.734  10.595  69.732  1.00  0.00    -0.414 NA 
HETATM   12  C   UNL     1      -7.243  11.928  67.420  1.00  0.00    -0.142 C  
HETATM   13  C   UNL     1      -7.216  12.167  68.926  1.00  0.00    -0.079 C  
HETATM   14  H2  UNL     1      -9.828  11.573  69.456  1.00  0.00     0.000 HD 
HETATM   15  H1  UNL     1     -10.535  10.036  69.435  1.00  0.00     0.000 HD 
HETATM   16  C   UNL     1      -7.281  10.841  69.676  1.00  0.00    -0.127 C  
HETATM   17  C   UNL     1      -8.496   9.867  67.678  1.00  0.00    -0.114 C  
HETATM   18  C   UNL     1      -8.486   9.999  69.229  1.00  0.00    -0.163 C  
ENDBRANCH   6  10
BRANCH   8  19
HETATM   19  C   UNL     1     -10.261  13.540  67.846  1.00  0.00    -0.247 C  
BRANCH  19  20
HETATM   20  C   UNL     1      -9.809  14.976  67.600  1.00  0.00    -0.220 A  
HETATM   21  C   UNL     1     -10.308  17.356  67.781  1.00  0.00    -0.358 A  
HETATM   22  C   UNL     1     -11.520  15.797  69.214  1.00  0.00    -0.365 C  
HETATM   23  N   UNL     1     -12.322  15.586  70.024  1.00  0.00    -0.360 NA 
HETATM   24  C   UNL     1     -10.522  16.037  68.204  1.00  0.00    -0.269 A  
HETATM   25  C   UNL     1      -9.383  17.634  66.775  1.00  0.00    -0.286 A  
HETATM   26  C   UNL     1      -8.614  16.605  66.237  1.00  0.00    -0.359 A  
HETATM   27  C   UNL     1      -8.799  15.291  66.670  1.00  0.00    -0.328 A  
ENDBRANCH  19  20
ENDBRANCH   8  19
TORSDOF 3
ENDMDL
MODEL       51
REMARK 921   NORMALIZED FREE ENERGY PREDICTED BY IDOCK:   -6.14 KCAL/MOL
REMARK 922        TOTAL FREE ENERGY PREDICTED BY IDOCK:   -7.54 KCAL/MOL
REMARK 923 INTER-LIGAND FREE ENERGY PREDICTED BY IDOCK:   -6.75 KCAL/MOL
REMARK 924 INTRA-LIGAND FREE ENERGY PREDICTED BY IDOCK:   -0.79 KCAL/MOL
REMARK 927      BINDING AFFINITY PREDICTED BY RF-SCORE:    0.00 PKD
ROOT
HETATM    1  C   UNL     1     -10.990   9.905  70.635  1.00  0.00    -0.337 C  
HETATM    2  N   UNL     1     -11.085  10.408  69.278  1.00  0.00    -0.238 N  
HETATM    3  C   UNL     1     -11.599  11.657  69.062  1.00  0.00    -0.316 C  
HETATM    4  C   UNL     1     -11.544  12.144  67.681  1.00  0.00    -0.413 C  
HETATM    5  O   UNL     1     -12.084  12.379  69.930  1.00  0.00    -0.299 OA 
HETATM    6  C   UNL     1     -10.916  11.488  66.685  1.00  0.00    -0.296 C  
HETATM    7  O   UNL     1     -10.257   8.443  68.479  1.00  0.00    -0.194 OA 
HETATM    8  N   UNL     1     -10.392  10.225  67.017  1.00  0.00    -0.231 N  
HETATM    9  C   UNL     1     -10.579   9.616  68.268  1.00  0.00    -0.225 C  
ENDROOT
BRANCH   6  10
HETATM   10  N   UNL     1     -10.835  12.114  65.406  1.00  0.00    -0.284 NA 
HETATM   11  N   UNL     1     -13.139  14.122  65.410  1.00  0.00    -0.705 NA 
HETATM   12  C   UNL     1     -11.014  11.457  64.105  1.00  0.00    -0.341 C  
HETATM   13  C   UNL     1     -12.287  11.939  63.418  1.00  0.00    -0.577 C  
HETATM   14  H2  UNL     1     -13.443  13.162  65.569  1.00  0.00     0.000 HD 
HETATM   15  H1  UNL     1     -12.953  14.613  66.285  1.00  0.00     0.000 HD 
HETATM   16  C   UNL     1     -12.242  13.449  63.213  1.00  0.00    -0.314 C  
HETATM   17  C   UNL     1     -10.698  13.591  65.216  1.00  0.00    -0.323 C  
HETATM   18  C   UNL     1     -11.961  14.188  64.531  1.00  0.00    -0.458 C  
ENDBRANCH   6  10
BRANCH   8  19
HETATM   19  C   UNL     1      -9.362   9.560  66.216  1.00  0.00    -0.188 C  
BRANCH  19  20
HETATM   20  C   UNL     1      -8.011  10.253  66.073  1.00  0.00    -0.138 A  
HETATM   21  C   UNL     1      -5.965  10.539  64.777  1.00  0.00    -0.077 A  
HETATM   22  C   UNL     1      -7.930   9.612  63.666  1.00  0.00    -0.142 C  
HETATM   23  N   UNL     1      -8.442   9.170  62.725  1.00  0.00    -0.201 NA 
HETATM   24  C   UNL     1      -7.312  10.155  64.848  1.00  0.00    -0.136 A  
HETATM   25  C   UNL     1      -5.310  11.030  65.905  1.00  0.00    -0.143 A  
HETATM   26  C   UNL     1      -6.016  11.212  67.092  1.00  0.00    -0.073 A  
HETATM   27  C   UNL     1      -7.365  10.859  67.167  1.00  0.00    -0.105 A  
ENDBRANCH  19  20
ENDBRANCH   8  19
TORSDOF 3
ENDMDL
MODEL       52
REMARK 921   NORMALIZED FREE ENERGY PREDICTED BY IDOCK:   -6.13 KCAL/MOL
REMARK 922        TOTAL FREE ENERGY PREDICTED BY IDOCK:   -7.52 KCAL/MOL
REMARK 923 INTER-LIGAND FREE ENERGY PREDICTED BY IDOCK:   -6.34 KCAL/MOL
REMARK 924 INTRA-LIGAND FREE ENERGY PREDICTED BY IDOCK:   -1.19 KCAL/MOL
REMARK 927      BINDING AFFINITY PREDICTED BY RF-SCORE:    0.00 PKD
ROOT
HETATM    1  C   UNL     1     -12.723  12.179  72.041  1.00  0.00     0.000 C  
HETATM    2  N   UNL     1     -12.512  12.486  70.639  1.00  0.00    -0.288 N  
HETATM    3  C   UNL     1     -12.383  13.792  70.252  1.00  0.00    -0.337 C  
HETATM    4  C   UNL     1     -12.046  14.013  68.843  1.00  0.00    -0.351 C  
HETATM    5  O   UNL     1     -12.521  14.763  70.991  1.00  0.00    -0.288 OA 
HETATM    6  C   UNL     1     -11.745  13.019  67.985  1.00  0.00    -0.355 C  
HETATM    7  O   UNL     1     -12.646  10.272  70.124  1.00  0.00    -0.206 OA 
HETATM    8  N   UNL     1     -11.877  11.712  68.490  1.00  0.00    -0.315 N  
HETATM    9  C   UNL     1     -12.381  11.425  69.768  1.00  0.00    -0.184 C  
ENDROOT
BRANCH   6  10
HETATM   10  N   UNL     1     -11.326  13.365  66.667  1.00  0.00    -0.313 NA 
HETATM   11  N   UNL     1     -10.612  16.330  66.864  1.00  0.00    -0.299 NA 
HETATM   12  C   UNL     1     -12.157  13.338  65.456  1.00  0.00    -0.435 C  
HETATM   13  C   UNL     1     -12.405  14.748  64.930  1.00  0.00    -0.258 C  
HETATM   14  H2  UNL     1     -11.575  16.130  67.134  1.00  0.00     0.000 HD 
HETATM   15  H1  UNL     1      -9.980  16.313  67.665  1.00  0.00     0.000 HD 
HETATM   16  C   UNL     1     -11.083  15.438  64.614  1.00  0.00    -0.361 C  
HETATM   17  C   UNL     1      -9.989  13.957  66.354  1.00  0.00    -0.297 C  
HETATM   18  C   UNL     1     -10.131  15.412  65.820  1.00  0.00    -0.363 C  
ENDBRANCH   6  10
BRANCH   8  19
HETATM   19  C   UNL     1     -11.233  10.554  67.866  1.00  0.00    -0.289 C  
BRANCH  19  20
HETATM   20  C   UNL     1      -9.709  10.491  67.882  1.00  0.00    -0.171 A  
HETATM   21  C   UNL     1      -7.650  10.019  66.663  1.00  0.00    -0.104 A  
HETATM   22  C   UNL     1      -9.676  10.497  65.390  1.00  0.00    -0.257 C  
HETATM   23  N   UNL     1     -10.228  10.613  64.377  1.00  0.00    -0.354 NA 
HETATM   24  C   UNL     1      -9.011  10.355  66.660  1.00  0.00    -0.155 A  
HETATM   25  C   UNL     1      -6.973   9.829  67.866  1.00  0.00    -0.078 A  
HETATM   26  C   UNL     1      -7.631  10.045  69.074  1.00  0.00    -0.090 A  
HETATM   27  C   UNL     1      -8.979  10.407  69.083  1.00  0.00    -0.188 A  
ENDBRANCH  19  20
ENDBRANCH   8  19
TORSDOF 3
ENDMDL
MODEL       53
REMARK 921   NORMALIZED FREE ENERGY PREDICTED BY IDOCK:   -6.09 KCAL/MOL
REMARK 922        TOTAL FREE ENERGY PREDICTED BY IDOCK:   -7.48 KCAL/MOL
REMARK 923 INTER-LIGAND FREE ENERGY PREDICTED BY IDOCK:   -6.80 KCAL/MOL
REMARK 924 INTRA-LIGAND FREE ENERGY PREDICTED BY IDOCK:   -0.68 KCAL/MOL
REMARK 927      BINDING AFFINITY PREDICTED BY RF-SCORE:    0.00 PKD
ROOT
HETATM    1  C   UNL     1     -12.511  12.024  63.617  1.00  0.00    -0.525 C  
HETATM    2  N   UNL     1     -11.794  12.827  64.589  1.00  0.00    -0.353 N  
HETATM    3  C   UNL     1     -11.946  14.186  64.576  1.00  0.00    -0.458 C  
HETATM    4  C   UNL     1     -11.291  14.915  65.666  1.00  0.00    -0.325 C  
HETATM    5  O   UNL     1     -12.584  14.816  63.737  1.00  0.00    -0.806 OA 
HETATM    6  C   UNL     1     -10.681  14.310  66.705  1.00  0.00    -0.290 C  
HETATM    7  O   UNL     1     -10.810  10.952  65.427  1.00  0.00    -0.168 OA 
HETATM    8  N   UNL     1     -10.606  12.907  66.639  1.00  0.00    -0.260 N  
HETATM    9  C   UNL     1     -11.040  12.161  65.532  1.00  0.00    -0.316 C  
ENDROOT
BRANCH   6  10
HETATM   10  N   UNL     1     -10.176  15.124  67.761  1.00  0.00    -0.235 NA 
HETATM   11  N   UNL     1     -10.591  17.984  66.765  1.00  0.00    -0.316 NA 
HETATM   12  C   UNL     1      -8.786  15.171  68.232  1.00  0.00    -0.171 C  
HETATM   13  C   UNL     1      -8.143  16.515  67.908  1.00  0.00    -0.168 C  
HETATM   14  H2  UNL     1     -10.016  17.420  66.140  1.00  0.00     0.000 HD 
HETATM   15  H1  UNL     1     -11.579  17.947  66.512  1.00  0.00     0.000 HD 
HETATM   16  C   UNL     1      -8.928  17.650  68.555  1.00  0.00    -0.289 C  
HETATM   17  C   UNL     1     -10.984  16.174  68.454  1.00  0.00    -0.341 C  
HETATM   18  C   UNL     1     -10.415  17.595  68.174  1.00  0.00    -0.385 C  
ENDBRANCH   6  10
BRANCH   8  19
HETATM   19  C   UNL     1     -10.353  12.072  67.816  1.00  0.00    -0.197 C  
BRANCH  19  20
HETATM   20  C   UNL     1      -8.944  11.523  68.012  1.00  0.00    -0.170 A  
HETATM   21  C   UNL     1      -7.375  10.328  69.447  1.00  0.00    -0.115 A  
HETATM   22  C   UNL     1      -9.766  10.047  69.843  1.00  0.00    -0.203 C  
HETATM   23  N   UNL     1     -10.641   9.591  70.451  1.00  0.00    -0.253 NA 
HETATM   24  C   UNL     1      -8.694  10.627  69.076  1.00  0.00    -0.152 A  
HETATM   25  C   UNL     1      -6.303  10.899  68.762  1.00  0.00    -0.048 A  
HETATM   26  C   UNL     1      -6.540  11.713  67.658  1.00  0.00    -0.082 A  
HETATM   27  C   UNL     1      -7.849  11.996  67.263  1.00  0.00    -0.170 A  
ENDBRANCH  19  20
ENDBRANCH   8  19
TORSDOF 3
ENDMDL
MODEL       54
REMARK 921   NORMALIZED FREE ENERGY PREDICTED BY IDOCK:   -6.08 KCAL/MOL
REMARK 922        TOTAL FREE ENERGY PREDICTED BY IDOCK:   -7.46 KCAL/MOL
REMARK 923 INTER-LIGAND FREE ENERGY PREDICTED BY IDOCK:   -6.38 KCAL/MOL
REMARK 924 INTRA-LIGAND FREE ENERGY PREDICTED BY IDOCK:   -1.08 KCAL/MOL
REMARK 927      BINDING AFFINITY PREDICTED BY RF-SCORE:    0.00 PKD
ROOT
HETATM    1  C   UNL     1     -12.124   8.397  72.217  1.00  0.00    -0.392 C  
HETATM    2  N   UNL     1     -11.941   9.269  71.072  1.00  0.00    -0.299 N  
HETATM    3  C   UNL     1     -12.425  10.547  71.120  1.00  0.00    -0.412 C  
HETATM    4  C   UNL     1     -12.088  11.403  69.978  1.00  0.00    -0.417 C  
HETATM    5  O   UNL     1     -13.098  11.012  72.036  1.00  0.00    -0.496 OA 
HETATM    6  C   UNL     1     -11.250  11.032  68.991  1.00  0.00    -0.258 C  
HETATM    7  O   UNL     1     -10.920   7.579  69.937  1.00  0.00    -0.250 OA 
HETATM    8  N   UNL     1     -10.780   9.707  69.051  1.00  0.00    -0.220 N  
HETATM    9  C   UNL     1     -11.215   8.776  70.007  1.00  0.00    -0.106 C  
ENDROOT
BRANCH   6  10
HETATM   10  N   UNL     1     -10.913  11.992  67.991  1.00  0.00    -0.210 NA 
HETATM   11  N   UNL     1     -12.401  14.519  68.850  1.00  0.00    -0.582 NA 
HETATM   12  C   UNL     1     -11.254  11.915  66.564  1.00  0.00    -0.327 C  
HETATM   13  C   UNL     1     -12.262  12.993  66.183  1.00  0.00    -0.428 C  
HETATM   14  H2  UNL     1     -13.018  13.720  68.705  1.00  0.00     0.000 HD 
HETATM   15  H1  UNL     1     -12.093  14.592  69.820  1.00  0.00     0.000 HD 
HETATM   16  C   UNL     1     -11.702  14.378  66.489  1.00  0.00    -0.404 C  
HETATM   17  C   UNL     1     -10.278  13.311  68.292  1.00  0.00    -0.250 C  
HETATM   18  C   UNL     1     -11.238  14.487  67.950  1.00  0.00    -0.295 C  
ENDBRANCH   6  10
BRANCH   8  19
HETATM   19  C   UNL     1      -9.590   9.255  68.326  1.00  0.00    -0.147 C  
BRANCH  19  20
HETATM   20  C   UNL     1      -8.261   9.932  68.647  1.00  0.00    -0.108 A  
HETATM   21  C   UNL     1      -6.106  10.737  67.835  1.00  0.00    -0.046 A  
HETATM   22  C   UNL     1      -7.908  10.398  66.224  1.00  0.00    -0.132 C  
HETATM   23  N   UNL     1      -8.302  10.412  65.135  1.00  0.00    -0.164 NA 
HETATM   24  C   UNL     1      -7.436  10.370  67.585  1.00  0.00    -0.089 A  
HETATM   25  C   UNL     1      -5.592  10.685  69.130  1.00  0.00    -0.040 A  
HETATM   26  C   UNL     1      -6.422  10.339  70.193  1.00  0.00    -0.128 A  
HETATM   27  C   UNL     1      -7.756   9.998  69.959  1.00  0.00    -0.181 A  
ENDBRANCH  19  20
ENDBRANCH   8  19
TORSDOF 3
ENDMDL
MODEL       55
REMARK 921   NORMALIZED FREE ENERGY PREDICTED BY IDOCK:   -6.07 KCAL/MOL
REMARK 922        TOTAL FREE ENERGY PREDICTED BY IDOCK:   -7.45 KCAL/MOL
REMARK 923 INTER-LIGAND FREE ENERGY PREDICTED BY IDOCK:   -8.10 KCAL/MOL
REMARK 924 INTRA-LIGAND FREE ENERGY PREDICTED BY IDOCK:    0.66 KCAL/MOL
REMARK 927      BINDING AFFINITY PREDICTED BY RF-SCORE:    0.00 PKD
ROOT
HETATM    1  C   UNL     1     -12.360   9.608  71.401  1.00  0.00    -0.378 C  
HETATM    2  N   UNL     1     -11.885  10.599  70.454  1.00  0.00    -0.319 N  
HETATM    3  C   UNL     1     -11.130  10.196  69.387  1.00  0.00    -0.243 C  
HETATM    4  C   UNL     1     -10.796  11.236  68.409  1.00  0.00    -0.248 C  
HETATM    5  O   UNL     1     -10.732   9.050  69.198  1.00  0.00    -0.222 OA 
HETATM    6  C   UNL     1     -11.292  12.488  68.455  1.00  0.00    -0.297 C  
HETATM    7  O   UNL     1     -12.840  12.255  71.692  1.00  0.00    -0.349 OA 
HETATM    8  N   UNL     1     -12.084  12.793  69.578  1.00  0.00    -0.251 N  
HETATM    9  C   UNL     1     -12.284  11.906  70.646  1.00  0.00    -0.331 C  
ENDROOT
BRANCH   6  10
HETATM   10  N   UNL     1     -10.981  13.380  67.387  1.00  0.00    -0.268 NA 
HETATM   11  N   UNL     1     -12.940  12.603  65.173  1.00  0.00    -0.713 NA 
HETATM   12  C   UNL     1      -9.711  13.446  66.652  1.00  0.00    -0.275 C  
HETATM   13  C   UNL     1      -9.888  12.985  65.209  1.00  0.00    -0.102 C  
HETATM   14  H2  UNL     1     -12.348  11.829  65.475  1.00  0.00     0.000 HD 
HETATM   15  H1  UNL     1     -13.820  12.634  65.688  1.00  0.00     0.000 HD 
HETATM   16  C   UNL     1     -10.922  13.850  64.498  1.00  0.00    -0.379 C  
HETATM   17  C   UNL     1     -11.982  14.293  66.755  1.00  0.00    -0.436 C  
HETATM   18  C   UNL     1     -12.247  13.897  65.274  1.00  0.00    -0.433 C  
ENDBRANCH   6  10
BRANCH   8  19
HETATM   19  C   UNL     1     -13.011  13.927  69.608  1.00  0.00     0.700 C  
BRANCH  19  20
HETATM   20  C   UNL     1     -12.993  14.830  70.836  1.00  0.00    -0.422 A  
HETATM   21  C   UNL     1     -11.672  16.112  72.437  1.00  0.00    -0.550 A  
HETATM   22  C   UNL     1     -10.670  15.544  70.286  1.00  0.00    -0.333 C  
HETATM   23  N   UNL     1      -9.770  15.563  69.556  1.00  0.00    -0.274 NA 
HETATM   24  C   UNL     1     -11.799  15.506  71.179  1.00  0.00    -0.435 A  
HETATM   25  C   UNL     1     -12.722  16.064  73.353  1.00  0.00    -0.668 A  
HETATM   26  C   UNL     1     -13.932  15.477  72.991  1.00  0.00    -0.272 A  
HETATM   27  C   UNL     1     -14.079  14.895  71.730  1.00  0.00    -0.609 A  
ENDBRANCH  19  20
ENDBRANCH   8  19
TORSDOF 3
ENDMDL
MODEL       56
REMARK 921   NORMALIZED FREE ENERGY PREDICTED BY IDOCK:   -6.06 KCAL/MOL
REMARK 922        TOTAL FREE ENERGY PREDICTED BY IDOCK:   -7.44 KCAL/MOL
REMARK 923 INTER-LIGAND FREE ENERGY PREDICTED BY IDOCK:   -6.53 KCAL/MOL
REMARK 924 INTRA-LIGAND FREE ENERGY PREDICTED BY IDOCK:   -0.91 KCAL/MOL
REMARK 927      BINDING AFFINITY PREDICTED BY RF-SCORE:    0.00 PKD
ROOT
HETATM    1  C   UNL     1     -12.714  11.995  63.691  1.00  0.00    -0.431 C  
HETATM    2  N   UNL     1     -11.752  12.725  64.496  1.00  0.00    -0.346 N  
HETATM    3  C   UNL     1     -12.103  13.939  65.020  1.00  0.00    -0.406 C  
HETATM    4  C   UNL     1     -11.126  14.553  65.925  1.00  0.00    -0.327 C  
HETATM    5  O   UNL     1     -13.157  14.526  64.794  1.00  0.00    -0.485 OA 
HETATM    6  C   UNL     1     -10.004  13.934  66.340  1.00  0.00    -0.297 C  
HETATM    7  O   UNL     1     -10.204  11.091  64.147  1.00  0.00    -0.305 OA 
HETATM    8  N   UNL     1      -9.750  12.674  65.766  1.00  0.00    -0.220 N  
HETATM    9  C   UNL     1     -10.541  12.115  64.751  1.00  0.00    -0.296 C  
ENDROOT
BRANCH   6  10
HETATM   10  N   UNL     1      -9.186  14.590  67.307  1.00  0.00    -0.199 NA 
HETATM   11  N   UNL     1     -10.798  17.064  68.094  1.00  0.00    -0.372 NA 
HETATM   12  C   UNL     1      -7.854  15.164  67.071  1.00  0.00    -0.162 C  
HETATM   13  C   UNL     1      -7.886  16.684  67.180  1.00  0.00    -0.211 C  
HETATM   14  H2  UNL     1     -10.595  17.018  67.095  1.00  0.00     0.000 HD 
HETATM   15  H1  UNL     1     -11.695  16.633  68.321  1.00  0.00     0.000 HD 
HETATM   16  C   UNL     1      -8.377  17.109  68.559  1.00  0.00    -0.262 C  
HETATM   17  C   UNL     1      -9.645  14.921  68.690  1.00  0.00    -0.222 C  
HETATM   18  C   UNL     1      -9.727  16.460  68.902  1.00  0.00    -0.257 C  
ENDBRANCH   6  10
BRANCH   8  19
HETATM   19  C   UNL     1      -8.832  11.702  66.365  1.00  0.00    -0.182 C  
BRANCH  19  20
HETATM   20  C   UNL     1      -9.362  10.820  67.490  1.00  0.00    -0.158 A  
HETATM   21  C   UNL     1     -10.162   8.625  68.190  1.00  0.00    -0.250 A  
HETATM   22  C   UNL     1      -8.816   8.785  66.161  1.00  0.00    -0.168 C  
HETATM   23  N   UNL     1      -8.317   8.289  65.240  1.00  0.00    -0.161 NA 
HETATM   24  C   UNL     1      -9.432   9.422  67.296  1.00  0.00    -0.169 A  
HETATM   25  C   UNL     1     -10.811   9.202  69.280  1.00  0.00    -0.150 A  
HETATM   26  C   UNL     1     -10.675  10.565  69.528  1.00  0.00    -0.291 A  
HETATM   27  C   UNL     1      -9.928  11.364  68.660  1.00  0.00    -0.209 A  
ENDBRANCH  19  20
ENDBRANCH   8  19
TORSDOF 3
ENDMDL
MODEL       57
REMARK 921   NORMALIZED FREE ENERGY PREDICTED BY IDOCK:   -6.05 KCAL/MOL
REMARK 922        TOTAL FREE ENERGY PREDICTED BY IDOCK:   -7.43 KCAL/MOL
REMARK 923 INTER-LIGAND FREE ENERGY PREDICTED BY IDOCK:   -6.55 KCAL/MOL
REMARK 924 INTRA-LIGAND FREE ENERGY PREDICTED BY IDOCK:   -0.88 KCAL/MOL
REMARK 927      BINDING AFFINITY PREDICTED BY RF-SCORE:    0.00 PKD
ROOT
HETATM    1  C   UNL     1     -13.362  10.654  72.201  1.00  0.00    -0.230 C  
HETATM    2  N   UNL     1     -12.320  10.453  71.212  1.00  0.00    -0.377 N  
HETATM    3  C   UNL     1     -11.546   9.327  71.275  1.00  0.00    -0.349 C  
HETATM    4  C   UNL     1     -10.603   9.134  70.170  1.00  0.00    -0.258 C  
HETATM    5  O   UNL     1     -11.596   8.486  72.170  1.00  0.00    -0.332 OA 
HETATM    6  C   UNL     1     -10.563   9.924  69.079  1.00  0.00    -0.220 C  
HETATM    7  O   UNL     1     -12.822  12.460  70.260  1.00  0.00     0.115 OA 
HETATM    8  N   UNL     1     -11.422  11.039  69.097  1.00  0.00    -0.273 N  
HETATM    9  C   UNL     1     -12.208  11.389  70.205  1.00  0.00    -0.349 C  
ENDROOT
BRANCH   6  10
HETATM   10  N   UNL     1      -9.676   9.572  68.019  1.00  0.00    -0.144 NA 
HETATM   11  N   UNL     1     -10.391   6.670  67.380  1.00  0.00    -0.189 NA 
HETATM   12  C   UNL     1      -8.211   9.508  68.099  1.00  0.00    -0.114 C  
HETATM   13  C   UNL     1      -7.718   8.070  67.974  1.00  0.00    -0.118 C  
HETATM   14  H2  UNL     1     -10.110   6.810  68.351  1.00  0.00     0.000 HD 
HETATM   15  H1  UNL     1     -11.400   6.753  67.259  1.00  0.00     0.000 HD 
HETATM   16  C   UNL     1      -8.173   7.465  66.651  1.00  0.00    -0.125 C  
HETATM   17  C   UNL     1     -10.136   9.065  66.691  1.00  0.00    -0.285 C  
HETATM   18  C   UNL     1      -9.693   7.590  66.468  1.00  0.00    -0.168 C  
ENDBRANCH   6  10
BRANCH   8  19
HETATM   19  C   UNL     1     -11.806  11.762  67.883  1.00  0.00    -0.219 C  
BRANCH  19  20
HETATM   20  C   UNL     1     -10.959  12.960  67.468  1.00  0.00    -0.283 A  
HETATM   21  C   UNL     1     -10.100  14.354  65.660  1.00  0.00    -0.377 A  
HETATM   22  C   UNL     1     -12.081  12.992  65.243  1.00  0.00    -0.441 C  
HETATM   23  N   UNL     1     -12.913  12.613  64.531  1.00  0.00    -0.797 NA 
HETATM   24  C   UNL     1     -11.054  13.448  66.144  1.00  0.00    -0.299 A  
HETATM   25  C   UNL     1      -9.061  14.791  66.481  1.00  0.00    -0.291 A  
HETATM   26  C   UNL     1      -9.011  14.384  67.812  1.00  0.00    -0.192 A  
HETATM   27  C   UNL     1      -9.971  13.503  68.313  1.00  0.00    -0.237 A  
ENDBRANCH  19  20
ENDBRANCH   8  19
TORSDOF 3
ENDMDL
MODEL       58
REMARK 921   NORMALIZED FREE ENERGY PREDICTED BY IDOCK:   -6.05 KCAL/MOL
REMARK 922        TOTAL FREE ENERGY PREDICTED BY IDOCK:   -7.43 KCAL/MOL
REMARK 923 INTER-LIGAND FREE ENERGY PREDICTED BY IDOCK:   -6.57 KCAL/MOL
REMARK 924 INTRA-LIGAND FREE ENERGY PREDICTED BY IDOCK:   -0.86 KCAL/MOL
REMARK 927      BINDING AFFINITY PREDICTED BY RF-SCORE:    0.00 PKD
ROOT
HETATM    1  C   UNL     1     -12.050   8.712  71.780  1.00  0.00    -0.340 C  
HETATM    2  N   UNL     1     -11.831   9.750  70.791  1.00  0.00    -0.302 N  
HETATM    3  C   UNL     1     -12.385  10.986  70.984  1.00  0.00    -0.385 C  
HETATM    4  C   UNL     1     -12.013  12.015  70.008  1.00  0.00    -0.400 C  
HETATM    5  O   UNL     1     -13.146  11.282  71.902  1.00  0.00    -0.493 OA 
HETATM    6  C   UNL     1     -11.087  11.829  69.047  1.00  0.00    -0.246 C  
HETATM    7  O   UNL     1     -10.643   8.291  69.508  1.00  0.00    -0.227 OA 
HETATM    8  N   UNL     1     -10.553  10.530  68.952  1.00  0.00    -0.201 N  
HETATM    9  C   UNL     1     -11.006   9.451  69.726  1.00  0.00    -0.215 C  
ENDROOT
BRANCH   6  10
HETATM   10  N   UNL     1     -10.731  12.939  68.226  1.00  0.00    -0.236 NA 
HETATM   11  N   UNL     1     -10.376  15.245  70.200  1.00  0.00    -0.473 NA 
HETATM   12  C   UNL     1     -11.570  13.558  67.191  1.00  0.00    -0.357 C  
HETATM   13  C   UNL     1     -11.994  14.965  67.599  1.00  0.00    -0.173 C  
HETATM   14  H2  UNL     1     -11.304  14.824  70.237  1.00  0.00     0.000 HD 
HETATM   15  H1  UNL     1      -9.735  14.817  70.868  1.00  0.00     0.000 HD 
HETATM   16  C   UNL     1     -10.769  15.841  67.839  1.00  0.00    -0.302 C  
HETATM   17  C   UNL     1      -9.480  13.737  68.411  1.00  0.00    -0.198 C  
HETATM   18  C   UNL     1      -9.804  15.196  68.845  1.00  0.00    -0.229 C  
ENDBRANCH   6  10
BRANCH   8  19
HETATM   19  C   UNL     1      -9.292  10.242  68.266  1.00  0.00    -0.138 C  
BRANCH  19  20
HETATM   20  C   UNL     1      -9.351   9.875  66.787  1.00  0.00    -0.187 A  
HETATM   21  C   UNL     1      -8.366   8.648  64.923  1.00  0.00    -0.174 A  
HETATM   22  C   UNL     1      -7.829   7.946  67.197  1.00  0.00    -0.109 C  
HETATM   23  N   UNL     1      -7.261   7.250  67.931  1.00  0.00    -0.088 NA 
HETATM   24  C   UNL     1      -8.540   8.823  66.304  1.00  0.00    -0.144 A  
HETATM   25  C   UNL     1      -9.000   9.499  64.019  1.00  0.00    -0.228 A  
HETATM   26  C   UNL     1      -9.869  10.483  64.484  1.00  0.00    -0.401 A  
HETATM   27  C   UNL     1     -10.071  10.648  65.856  1.00  0.00    -0.321 A  
ENDBRANCH  19  20
ENDBRANCH   8  19
TORSDOF 3
ENDMDL
MODEL       59
REMARK 921   NORMALIZED FREE ENERGY PREDICTED BY IDOCK:   -6.03 KCAL/MOL
REMARK 922        TOTAL FREE ENERGY PREDICTED BY IDOCK:   -7.41 KCAL/MOL
REMARK 923 INTER-LIGAND FREE ENERGY PREDICTED BY IDOCK:   -6.26 KCAL/MOL
REMARK 924 INTRA-LIGAND FREE ENERGY PREDICTED BY IDOCK:   -1.14 KCAL/MOL
REMARK 927      BINDING AFFINITY PREDICTED BY RF-SCORE:    0.00 PKD
ROOT
HETATM    1  C   UNL     1      -6.229  10.823  68.964  1.00  0.00    -0.042 C  
HETATM    2  N   UNL     1      -7.168  11.895  68.693  1.00  0.00    -0.104 N  
HETATM    3  C   UNL     1      -6.716  13.185  68.654  1.00  0.00    -0.096 C  
HETATM    4  C   UNL     1      -7.698  14.196  68.250  1.00  0.00    -0.139 C  
HETATM    5  O   UNL     1      -5.571  13.540  68.922  1.00  0.00    -0.071 OA 
HETATM    6  C   UNL     1      -8.936  13.898  67.810  1.00  0.00    -0.188 C  
HETATM    7  O   UNL     1      -8.875  10.391  68.601  1.00  0.00    -0.127 OA 
HETATM    8  N   UNL     1      -9.293  12.537  67.859  1.00  0.00    -0.193 N  
HETATM    9  C   UNL     1      -8.473  11.543  68.416  1.00  0.00    -0.159 C  
ENDROOT
BRANCH   6  10
HETATM   10  N   UNL     1      -9.763  14.960  67.341  1.00  0.00    -0.216 NA 
HETATM   11  N   UNL     1      -7.836  17.306  66.986  1.00  0.00    -0.202 NA 
HETATM   12  C   UNL     1     -10.868  15.590  68.075  1.00  0.00    -0.300 C  
HETATM   13  C   UNL     1     -10.530  17.030  68.445  1.00  0.00    -0.370 C  
HETATM   14  H2  UNL     1      -7.848  16.936  67.936  1.00  0.00     0.000 HD 
HETATM   15  H1  UNL     1      -7.115  16.865  66.414  1.00  0.00     0.000 HD 
HETATM   16  C   UNL     1     -10.234  17.846  67.192  1.00  0.00    -0.355 C  
HETATM   17  C   UNL     1      -9.518  15.694  66.062  1.00  0.00    -0.355 C  
HETATM   18  C   UNL     1      -9.148  17.182  66.331  1.00  0.00    -0.256 C  
ENDBRANCH   6  10
BRANCH   8  19
HETATM   19  C   UNL     1     -10.401  11.981  67.079  1.00  0.00    -0.211 C  
BRANCH  19  20
HETATM   20  C   UNL     1     -10.176  11.747  65.589  1.00  0.00    -0.284 A  
HETATM   21  C   UNL     1     -11.060  11.898  63.320  1.00  0.00    -0.390 A  
HETATM   22  C   UNL     1     -12.062  13.288  65.058  1.00  0.00    -0.408 C  
HETATM   23  N   UNL     1     -12.851  14.066  65.397  1.00  0.00    -0.716 NA 
HETATM   24  C   UNL     1     -11.076  12.317  64.658  1.00  0.00    -0.358 A  
HETATM   25  C   UNL     1     -10.152  10.929  62.895  1.00  0.00    -0.179 A  
HETATM   26  C   UNL     1      -9.206  10.427  63.785  1.00  0.00    -0.302 A  
HETATM   27  C   UNL     1      -9.195  10.857  65.113  1.00  0.00    -0.240 A  
ENDBRANCH  19  20
ENDBRANCH   8  19
TORSDOF 3
ENDMDL
MODEL       60
REMARK 921   NORMALIZED FREE ENERGY PREDICTED BY IDOCK:   -6.01 KCAL/MOL
REMARK 922        TOTAL FREE ENERGY PREDICTED BY IDOCK:   -7.39 KCAL/MOL
REMARK 923 INTER-LIGAND FREE ENERGY PREDICTED BY IDOCK:   -6.40 KCAL/MOL
REMARK 924 INTRA-LIGAND FREE ENERGY PREDICTED BY IDOCK:   -0.98 KCAL/MOL
REMARK 927      BINDING AFFINITY PREDICTED BY RF-SCORE:    0.00 PKD
ROOT
HETATM    1  C   UNL     1      -5.619   9.898  68.666  1.00  0.00    -0.035 C  
HETATM    2  N   UNL     1      -6.818  10.668  68.388  1.00  0.00    -0.063 N  
HETATM    3  C   UNL     1      -6.868  11.444  67.263  1.00  0.00    -0.115 C  
HETATM    4  C   UNL     1      -8.155  12.088  66.985  1.00  0.00    -0.158 C  
HETATM    5  O   UNL     1      -5.932  11.625  66.488  1.00  0.00    -0.141 OA 
HETATM    6  C   UNL     1      -9.275  11.850  67.695  1.00  0.00    -0.183 C  
HETATM    7  O   UNL     1      -7.756   9.926  70.325  1.00  0.00    -0.168 OA 
HETATM    8  N   UNL     1      -9.125  11.011  68.815  1.00  0.00    -0.173 N  
HETATM    9  C   UNL     1      -7.885  10.518  69.249  1.00  0.00    -0.144 C  
ENDROOT
BRANCH   6  10
HETATM   10  N   UNL     1     -10.493  12.452  67.262  1.00  0.00    -0.221 NA 
HETATM   11  N   UNL     1      -9.925  13.297  64.380  1.00  0.00    -0.648 NA 
HETATM   12  C   UNL     1     -11.105  13.668  67.814  1.00  0.00    -0.272 C  
HETATM   13  C   UNL     1     -11.065  14.809  66.803  1.00  0.00    -0.338 C  
HETATM   14  H2  UNL     1      -9.280  13.709  65.054  1.00  0.00     0.000 HD 
HETATM   15  H1  UNL     1      -9.569  12.420  63.999  1.00  0.00     0.000 HD 
HETATM   16  C   UNL     1     -11.800  14.415  65.527  1.00  0.00    -0.357 C  
HETATM   17  C   UNL     1     -11.257  11.999  66.059  1.00  0.00    -0.335 C  
HETATM   18  C   UNL     1     -11.265  13.094  64.954  1.00  0.00    -0.310 C  
ENDBRANCH   6  10
BRANCH   8  19
HETATM   19  C   UNL     1     -10.255  10.332  69.452  1.00  0.00    -0.235 C  
BRANCH  19  20
HETATM   20  C   UNL     1     -10.655   8.960  68.921  1.00  0.00    -0.188 A  
HETATM   21  C   UNL     1     -10.975   6.584  69.373  1.00  0.00    -0.395 A  
HETATM   22  C   UNL     1     -10.963   8.139  71.253  1.00  0.00    -0.240 C  
HETATM   23  N   UNL     1     -11.024   8.345  72.392  1.00  0.00    -0.360 NA 
HETATM   24  C   UNL     1     -10.881   7.905  69.835  1.00  0.00    -0.221 A  
HETATM   25  C   UNL     1     -10.859   6.303  68.012  1.00  0.00    -0.409 A  
HETATM   26  C   UNL     1     -10.723   7.344  67.097  1.00  0.00    -0.400 A  
HETATM   27  C   UNL     1     -10.656   8.665  67.544  1.00  0.00    -0.292 A  
ENDBRANCH  19  20
ENDBRANCH   8  19
TORSDOF 3
ENDMDL
MODEL       61
REMARK 921   NORMALIZED FREE ENERGY PREDICTED BY IDOCK:   -5.99 KCAL/MOL
REMARK 922        TOTAL FREE ENERGY PREDICTED BY IDOCK:   -7.36 KCAL/MOL
REMARK 923 INTER-LIGAND FREE ENERGY PREDICTED BY IDOCK:   -6.38 KCAL/MOL
REMARK 924 INTRA-LIGAND FREE ENERGY PREDICTED BY IDOCK:   -0.98 KCAL/MOL
REMARK 927      BINDING AFFINITY PREDICTED BY RF-SCORE:    0.00 PKD
ROOT
HETATM    1  C   UNL     1     -12.500  13.134  70.261  1.00  0.00    -0.163 C  
HETATM    2  N   UNL     1     -11.397  12.438  69.625  1.00  0.00    -0.178 N  
HETATM    3  C   UNL     1     -11.255  11.092  69.819  1.00  0.00    -0.268 C  
HETATM    4  C   UNL     1     -10.196  10.440  69.043  1.00  0.00    -0.233 C  
HETATM    5  O   UNL     1     -11.944  10.412  70.576  1.00  0.00    -0.282 OA 
HETATM    6  C   UNL     1      -9.476  11.068  68.092  1.00  0.00    -0.172 C  
HETATM    7  O   UNL     1     -10.648  14.403  68.751  1.00  0.00    -0.242 OA 
HETATM    8  N   UNL     1      -9.721  12.446  67.948  1.00  0.00    -0.198 N  
HETATM    9  C   UNL     1     -10.580  13.170  68.789  1.00  0.00    -0.201 C  
ENDROOT
BRANCH   6  10
HETATM   10  N   UNL     1      -8.549  10.301  67.327  1.00  0.00    -0.125 NA 
HETATM   11  N   UNL     1      -6.300  12.268  66.686  1.00  0.00    -0.467 NA 
HETATM   12  C   UNL     1      -8.800   9.695  66.012  1.00  0.00    -0.152 C  
HETATM   13  C   UNL     1      -7.970  10.376  64.929  1.00  0.00    -0.115 C  
HETATM   14  H2  UNL     1      -7.213  12.579  66.353  1.00  0.00     0.000 HD 
HETATM   15  H1  UNL     1      -6.095  12.622  67.621  1.00  0.00     0.000 HD 
HETATM   16  C   UNL     1      -6.484  10.270  65.252  1.00  0.00    -0.122 C  
HETATM   17  C   UNL     1      -7.113  10.127  67.702  1.00  0.00    -0.086 C  
HETATM   18  C   UNL     1      -6.175  10.802  66.660  1.00  0.00    -0.092 C  
ENDBRANCH   6  10
BRANCH   8  19
HETATM   19  C   UNL     1      -9.349  13.194  66.744  1.00  0.00    -0.244 C  
BRANCH  19  20
HETATM   20  C   UNL     1     -10.385  13.316  65.632  1.00  0.00    -0.292 A  
HETATM   21  C   UNL     1     -11.909  14.750  64.379  1.00  0.00    -0.393 A  
HETATM   22  C   UNL     1     -10.068  15.787  65.598  1.00  0.00    -0.371 C  
HETATM   23  N   UNL     1      -9.489  16.732  65.939  1.00  0.00    -0.512 NA 
HETATM   24  C   UNL     1     -10.775  14.601  65.189  1.00  0.00    -0.430 A  
HETATM   25  C   UNL     1     -12.652  13.635  63.992  1.00  0.00    -0.147 A  
HETATM   26  C   UNL     1     -12.225  12.359  64.351  1.00  0.00    -0.519 A  
HETATM   27  C   UNL     1     -11.081  12.197  65.136  1.00  0.00    -0.369 A  
ENDBRANCH  19  20
ENDBRANCH   8  19
TORSDOF 3
ENDMDL
MODEL       62
REMARK 921   NORMALIZED FREE ENERGY PREDICTED BY IDOCK:   -5.98 KCAL/MOL
REMARK 922        TOTAL FREE ENERGY PREDICTED BY IDOCK:   -7.35 KCAL/MOL
REMARK 923 INTER-LIGAND FREE ENERGY PREDICTED BY IDOCK:   -6.43 KCAL/MOL
REMARK 924 INTRA-LIGAND FREE ENERGY PREDICTED BY IDOCK:   -0.92 KCAL/MOL
REMARK 927      BINDING AFFINITY PREDICTED BY RF-SCORE:    0.00 PKD
ROOT
HETATM    1  C   UNL     1      -8.647  18.615  67.440  1.00  0.00    -0.269 C  
HETATM    2  N   UNL     1      -8.836  17.194  67.223  1.00  0.00    -0.214 N  
HETATM    3  C   UNL     1      -7.740  16.387  67.085  1.00  0.00    -0.186 C  
HETATM    4  C   UNL     1      -8.009  14.949  66.997  1.00  0.00    -0.170 C  
HETATM    5  O   UNL     1      -6.577  16.779  67.039  1.00  0.00    -0.167 OA 
HETATM    6  C   UNL     1      -9.232  14.408  67.169  1.00  0.00    -0.222 C  
HETATM    7  O   UNL     1     -11.094  17.484  67.218  1.00  0.00    -0.099 OA 
HETATM    8  N   UNL     1     -10.289  15.323  67.336  1.00  0.00    -0.252 N  
HETATM    9  C   UNL     1     -10.129  16.714  67.237  1.00  0.00    -0.279 C  
ENDROOT
BRANCH   6  10
HETATM   10  N   UNL     1      -9.351  12.988  67.170  1.00  0.00    -0.222 NA 
HETATM   11  N   UNL     1      -6.488  11.997  66.767  1.00  0.00    -0.359 NA 
HETATM   12  C   UNL     1     -10.088  12.177  66.190  1.00  0.00    -0.228 C  
HETATM   13  C   UNL     1      -9.134  11.340  65.345  1.00  0.00    -0.162 C  
HETATM   14  H2  UNL     1      -6.811  12.608  66.017  1.00  0.00     0.000 HD 
HETATM   15  H1  UNL     1      -6.009  12.518  67.503  1.00  0.00     0.000 HD 
HETATM   16  C   UNL     1      -8.305  10.418  66.233  1.00  0.00    -0.146 C  
HETATM   17  C   UNL     1      -8.603  12.096  68.108  1.00  0.00    -0.177 C  
HETATM   18  C   UNL     1      -7.585  11.202  67.341  1.00  0.00    -0.113 C  
ENDBRANCH   6  10
BRANCH   8  19
HETATM   19  C   UNL     1     -11.578  14.944  67.919  1.00  0.00    -0.344 C  
BRANCH  19  20
HETATM   20  C   UNL     1     -11.662  14.809  69.436  1.00  0.00    -0.358 A  
HETATM   21  C   UNL     1     -12.455  13.525  71.352  1.00  0.00    -0.347 A  
HETATM   22  C   UNL     1     -12.267  12.403  69.193  1.00  0.00    -0.009 C  
HETATM   23  N   UNL     1     -12.393  11.460  68.532  1.00  0.00    -0.407 NA 
HETATM   24  C   UNL     1     -12.105  13.588  69.996  1.00  0.00    -0.411 A  
HETATM   25  C   UNL     1     -12.357  14.657  72.160  1.00  0.00    -0.377 A  
HETATM   26  C   UNL     1     -11.839  15.839  71.638  1.00  0.00    -0.539 A  
HETATM   27  C   UNL     1     -11.462  15.906  70.295  1.00  0.00    -0.376 A  
ENDBRANCH  19  20
ENDBRANCH   8  19
TORSDOF 3
ENDMDL
MODEL       63
REMARK 921   NORMALIZED FREE ENERGY PREDICTED BY IDOCK:   -5.97 KCAL/MOL
REMARK 922        TOTAL FREE ENERGY PREDICTED BY IDOCK:   -7.33 KCAL/MOL
REMARK 923 INTER-LIGAND FREE ENERGY PREDICTED BY IDOCK:   -7.68 KCAL/MOL
REMARK 924 INTRA-LIGAND FREE ENERGY PREDICTED BY IDOCK:    0.34 KCAL/MOL
REMARK 927      BINDING AFFINITY PREDICTED BY RF-SCORE:    0.00 PKD
ROOT
HETATM    1  C   UNL     1     -12.717  12.246  64.222  1.00  0.00    -0.315 C  
HETATM    2  N   UNL     1     -11.654  13.076  64.756  1.00  0.00    -0.316 N  
HETATM    3  C   UNL     1     -11.723  14.433  64.600  1.00  0.00    -0.430 C  
HETATM    4  C   UNL     1     -10.681  15.211  65.277  1.00  0.00    -0.422 C  
HETATM    5  O   UNL     1     -12.583  15.026  63.953  1.00  0.00    -0.813 OA 
HETATM    6  C   UNL     1      -9.774  14.670  66.115  1.00  0.00    -0.319 C  
HETATM    7  O   UNL     1     -10.543  11.218  65.463  1.00  0.00    -0.262 OA 
HETATM    8  N   UNL     1      -9.808  13.268  66.232  1.00  0.00    -0.282 N  
HETATM    9  C   UNL     1     -10.651  12.449  65.465  1.00  0.00    -0.275 C  
ENDROOT
BRANCH   6  10
HETATM   10  N   UNL     1      -8.879  15.543  66.799  1.00  0.00    -0.242 NA 
HETATM   11  N   UNL     1     -10.715  17.465  68.307  1.00  0.00    -0.360 NA 
HETATM   12  C   UNL     1      -7.923  16.469  66.177  1.00  0.00    -0.156 C  
HETATM   13  C   UNL     1      -8.325  17.919  66.425  1.00  0.00    -0.273 C  
HETATM   14  H2  UNL     1     -10.872  17.466  67.299  1.00  0.00     0.000 HD 
HETATM   15  H1  UNL     1     -11.322  16.799  68.786  1.00  0.00     0.000 HD 
HETATM   16  C   UNL     1      -8.394  18.203  67.922  1.00  0.00    -0.254 C  
HETATM   17  C   UNL     1      -8.893  15.745  68.280  1.00  0.00    -0.180 C  
HETATM   18  C   UNL     1      -9.308  17.201  68.644  1.00  0.00    -0.269 C  
ENDBRANCH   6  10
BRANCH   8  19
HETATM   19  C   UNL     1      -9.198  12.553  67.355  1.00  0.00    -0.186 C  
BRANCH  19  20
HETATM   20  C   UNL     1     -10.083  11.616  68.170  1.00  0.00    -0.202 A  
HETATM   21  C   UNL     1     -11.789  11.370  69.896  1.00  0.00    -0.435 A  
HETATM   22  C   UNL     1     -11.548  13.533  68.793  1.00  0.00    -0.325 C  
HETATM   23  N   UNL     1     -11.860  14.643  68.669  1.00  0.00    -0.323 NA 
HETATM   24  C   UNL     1     -11.143  12.158  68.933  1.00  0.00    -0.292 A  
HETATM   25  C   UNL     1     -11.403  10.046  70.099  1.00  0.00    -0.357 A  
HETATM   26  C   UNL     1     -10.421   9.478  69.291  1.00  0.00    -0.226 A  
HETATM   27  C   UNL     1      -9.789  10.246  68.311  1.00  0.00    -0.161 A  
ENDBRANCH  19  20
ENDBRANCH   8  19
TORSDOF 3
ENDMDL
MODEL       64
REMARK 921   NORMALIZED FREE ENERGY PREDICTED BY IDOCK:   -5.97 KCAL/MOL
REMARK 922        TOTAL FREE ENERGY PREDICTED BY IDOCK:   -7.33 KCAL/MOL
REMARK 923 INTER-LIGAND FREE ENERGY PREDICTED BY IDOCK:   -6.52 KCAL/MOL
REMARK 924 INTRA-LIGAND FREE ENERGY PREDICTED BY IDOCK:   -0.81 KCAL/MOL
REMARK 927      BINDING AFFINITY PREDICTED BY RF-SCORE:    0.00 PKD
ROOT
HETATM    1  C   UNL     1     -12.940  12.395  72.297  1.00  0.00    -0.075 C  
HETATM    2  N   UNL     1     -12.598  12.505  70.892  1.00  0.00    -0.304 N  
HETATM    3  C   UNL     1     -12.433  13.746  70.339  1.00  0.00    -0.314 C  
HETATM    4  C   UNL     1     -11.964  13.772  68.951  1.00  0.00    -0.394 C  
HETATM    5  O   UNL     1     -12.639  14.809  70.919  1.00  0.00    -0.296 OA 
HETATM    6  C   UNL     1     -11.585  12.671  68.272  1.00  0.00    -0.332 C  
HETATM    7  O   UNL     1     -12.685  10.240  70.682  1.00  0.00    -0.327 OA 
HETATM    8  N   UNL     1     -11.764  11.446  68.941  1.00  0.00    -0.316 N  
HETATM    9  C   UNL     1     -12.387  11.334  70.194  1.00  0.00    -0.276 C  
ENDROOT
BRANCH   6  10
HETATM   10  N   UNL     1     -11.043  12.835  66.964  1.00  0.00    -0.267 NA 
HETATM   11  N   UNL     1     -10.903  15.865  66.587  1.00  0.00    -0.266 NA 
HETATM   12  C   UNL     1     -11.667  12.406  65.705  1.00  0.00    -0.414 C  
HETATM   13  C   UNL     1     -12.081  13.607  64.862  1.00  0.00    -0.426 C  
HETATM   14  H2  UNL     1     -11.845  15.528  66.788  1.00  0.00     0.000 HD 
HETATM   15  H1  UNL     1     -10.404  16.132  67.436  1.00  0.00     0.000 HD 
HETATM   16  C   UNL     1     -10.870  14.479  64.547  1.00  0.00    -0.239 C  
HETATM   17  C   UNL     1      -9.801  13.616  66.675  1.00  0.00    -0.284 C  
HETATM   18  C   UNL     1     -10.118  14.881  65.825  1.00  0.00    -0.341 C  
ENDBRANCH   6  10
BRANCH   8  19
HETATM   19  C   UNL     1     -11.065  10.220  68.548  1.00  0.00    -0.242 C  
BRANCH  19  20
HETATM   20  C   UNL     1      -9.611  10.061  68.978  1.00  0.00    -0.200 A  
HETATM   21  C   UNL     1      -8.010   9.031  70.503  1.00  0.00    -0.150 A  
HETATM   22  C   UNL     1     -10.203   7.995  70.239  1.00  0.00    -0.200 C  
HETATM   23  N   UNL     1     -10.969   7.170  70.516  1.00  0.00    -0.253 NA 
HETATM   24  C   UNL     1      -9.267   9.030  69.883  1.00  0.00    -0.181 A  
HETATM   25  C   UNL     1      -7.086  10.037  70.224  1.00  0.00    -0.156 A  
HETATM   26  C   UNL     1      -7.383  11.006  69.268  1.00  0.00    -0.113 A  
HETATM   27  C   UNL     1      -8.622  10.999  68.624  1.00  0.00    -0.157 A  
ENDBRANCH  19  20
ENDBRANCH   8  19
TORSDOF 3
ENDMDL
MODEL       65
REMARK 921   NORMALIZED FREE ENERGY PREDICTED BY IDOCK:   -5.94 KCAL/MOL
REMARK 922        TOTAL FREE ENERGY PREDICTED BY IDOCK:   -7.30 KCAL/MOL
REMARK 923 INTER-LIGAND FREE ENERGY PREDICTED BY IDOCK:   -6.49 KCAL/MOL
REMARK 924 INTRA-LIGAND FREE ENERGY PREDICTED BY IDOCK:   -0.81 KCAL/MOL
REMARK 927      BINDING AFFINITY PREDICTED BY RF-SCORE:    0.00 PKD
ROOT
HETATM    1  C   UNL     1     -13.628   9.038  72.785  1.00  0.00    -0.222 C  
HETATM    2  N   UNL     1     -12.800   9.274  71.618  1.00  0.00    -0.348 N  
HETATM    3  C   UNL     1     -12.669  10.549  71.138  1.00  0.00    -0.418 C  
HETATM    4  C   UNL     1     -11.717  10.725  70.038  1.00  0.00    -0.417 C  
HETATM    5  O   UNL     1     -13.276  11.528  71.564  1.00  0.00    -0.372 OA 
HETATM    6  C   UNL     1     -10.909   9.745  69.589  1.00  0.00    -0.250 C  
HETATM    7  O   UNL     1     -12.376   7.043  71.453  1.00  0.00    -0.339 OA 
HETATM    8  N   UNL     1     -11.100   8.477  70.170  1.00  0.00    -0.227 N  
HETATM    9  C   UNL     1     -12.123   8.196  71.088  1.00  0.00    -0.260 C  
ENDROOT
BRANCH   6  10
HETATM   10  N   UNL     1      -9.947  10.066  68.586  1.00  0.00    -0.159 NA 
HETATM   11  N   UNL     1      -9.727  13.112  68.710  1.00  0.00    -0.418 NA 
HETATM   12  C   UNL     1     -10.087   9.835  67.142  1.00  0.00    -0.211 C  
HETATM   13  C   UNL     1     -10.198  11.154  66.385  1.00  0.00    -0.279 C  
HETATM   14  H2  UNL     1     -10.675  12.784  68.523  1.00  0.00     0.000 HD 
HETATM   15  H1  UNL     1      -9.559  13.242  69.708  1.00  0.00     0.000 HD 
HETATM   16  C   UNL     1      -8.966  12.016  66.636  1.00  0.00    -0.204 C  
HETATM   17  C   UNL     1      -8.694  10.834  68.859  1.00  0.00    -0.152 C  
HETATM   18  C   UNL     1      -8.712  12.213  68.138  1.00  0.00    -0.185 C  
ENDBRANCH   6  10
BRANCH   8  19
HETATM   19  C   UNL     1     -10.089   7.419  70.111  1.00  0.00    -0.197 C  
BRANCH  19  20
HETATM   20  C   UNL     1     -10.257   6.330  69.057  1.00  0.00    -0.224 A  
HETATM   21  C   UNL     1      -9.561   4.150  68.213  1.00  0.00    -0.191 A  
HETATM   22  C   UNL     1      -9.088   4.705  70.541  1.00  0.00    -0.120 C  
HETATM   23  N   UNL     1      -8.630   4.431  71.570  1.00  0.00    -0.110 NA 
HETATM   24  C   UNL     1      -9.660   5.066  69.270  1.00  0.00    -0.230 A  
HETATM   25  C   UNL     1     -10.061   4.471  66.952  1.00  0.00    -0.200 A  
HETATM   26  C   UNL     1     -10.729   5.678  66.757  1.00  0.00    -0.358 A  
HETATM   27  C   UNL     1     -10.857   6.586  67.810  1.00  0.00    -0.395 A  
ENDBRANCH  19  20
ENDBRANCH   8  19
TORSDOF 3
ENDMDL
MODEL       66
REMARK 921   NORMALIZED FREE ENERGY PREDICTED BY IDOCK:   -5.94 KCAL/MOL
REMARK 922        TOTAL FREE ENERGY PREDICTED BY IDOCK:   -7.30 KCAL/MOL
REMARK 923 INTER-LIGAND FREE ENERGY PREDICTED BY IDOCK:   -6.74 KCAL/MOL
REMARK 924 INTRA-LIGAND FREE ENERGY PREDICTED BY IDOCK:   -0.56 KCAL/MOL
REMARK 927      BINDING AFFINITY PREDICTED BY RF-SCORE:    0.00 PKD
ROOT
HETATM    1  C   UNL     1      -8.615   8.622  64.954  1.00  0.00    -0.135 C  
HETATM    2  N   UNL     1      -9.312   9.024  66.161  1.00  0.00    -0.213 N  
HETATM    3  C   UNL     1      -9.910   8.069  66.937  1.00  0.00    -0.248 C  
HETATM    4  C   UNL     1     -10.483   8.538  68.202  1.00  0.00    -0.236 C  
HETATM    5  O   UNL     1      -9.990   6.877  66.652  1.00  0.00    -0.184 OA 
HETATM    6  C   UNL     1     -10.334   9.794  68.667  1.00  0.00    -0.201 C  
HETATM    7  O   UNL     1      -8.854  11.208  65.711  1.00  0.00    -0.193 OA 
HETATM    8  N   UNL     1      -9.675  10.692  67.807  1.00  0.00    -0.160 N  
HETATM    9  C   UNL     1      -9.274  10.359  66.503  1.00  0.00    -0.160 C  
ENDROOT
BRANCH   6  10
HETATM   10  N   UNL     1     -10.842  10.101  69.963  1.00  0.00    -0.287 NA 
HETATM   11  N   UNL     1     -12.396   7.597  70.771  1.00  0.00    -0.524 NA 
HETATM   12  C   UNL     1     -11.801  11.166  70.289  1.00  0.00    -0.366 C  
HETATM   13  C   UNL     1     -13.137  10.581  70.734  1.00  0.00    -0.335 C  
HETATM   14  H2  UNL     1     -12.729   8.013  69.902  1.00  0.00     0.000 HD 
HETATM   15  H1  UNL     1     -11.688   6.881  70.604  1.00  0.00     0.000 HD 
HETATM   16  C   UNL     1     -12.947   9.688  71.955  1.00  0.00    -0.518 C  
HETATM   17  C   UNL     1     -10.574   9.269  71.175  1.00  0.00    -0.332 C  
HETATM   18  C   UNL     1     -11.881   8.611  71.705  1.00  0.00    -0.323 C  
ENDBRANCH   6  10
BRANCH   8  19
HETATM   19  C   UNL     1      -9.079  11.945  68.277  1.00  0.00    -0.183 C  
BRANCH  19  20
HETATM   20  C   UNL     1      -9.776  13.249  67.904  1.00  0.00    -0.224 A  
HETATM   21  C   UNL     1      -9.615  15.666  67.615  1.00  0.00    -0.220 A  
HETATM   22  C   UNL     1      -7.562  14.347  67.582  1.00  0.00    -0.179 C  
HETATM   23  N   UNL     1      -6.408  14.280  67.505  1.00  0.00    -0.328 NA 
HETATM   24  C   UNL     1      -8.998  14.409  67.683  1.00  0.00    -0.192 A  
HETATM   25  C   UNL     1     -10.998  15.781  67.751  1.00  0.00    -0.314 A  
HETATM   26  C   UNL     1     -11.780  14.636  67.880  1.00  0.00    -0.379 A  
HETATM   27  C   UNL     1     -11.178  13.377  67.922  1.00  0.00    -0.303 A  
ENDBRANCH  19  20
ENDBRANCH   8  19
TORSDOF 3
ENDMDL
MODEL       67
REMARK 921   NORMALIZED FREE ENERGY PREDICTED BY IDOCK:   -5.92 KCAL/MOL
REMARK 922        TOTAL FREE ENERGY PREDICTED BY IDOCK:   -7.28 KCAL/MOL
REMARK 923 INTER-LIGAND FREE ENERGY PREDICTED BY IDOCK:   -6.23 KCAL/MOL
REMARK 924 INTRA-LIGAND FREE ENERGY PREDICTED BY IDOCK:   -1.05 KCAL/MOL
REMARK 927      BINDING AFFINITY PREDICTED BY RF-SCORE:    0.00 PKD
ROOT
HETATM    1  C   UNL     1      -9.806  12.444  65.842  1.00  0.00    -0.252 C  
HETATM    2  N   UNL     1      -9.919  11.129  66.443  1.00  0.00    -0.210 N  
HETATM    3  C   UNL     1      -9.693  10.020  65.674  1.00  0.00    -0.272 C  
HETATM    4  C   UNL     1      -9.701   8.737  66.382  1.00  0.00    -0.335 C  
HETATM    5  O   UNL     1      -9.483  10.033  64.464  1.00  0.00    -0.272 OA 
HETATM    6  C   UNL     1      -9.790   8.626  67.722  1.00  0.00    -0.175 C  
HETATM    7  O   UNL     1     -10.523  12.075  68.424  1.00  0.00    -0.206 OA 
HETATM    8  N   UNL     1      -9.988   9.829  68.425  1.00  0.00    -0.152 N  
HETATM    9  C   UNL     1     -10.184  11.068  67.796  1.00  0.00    -0.183 C  
ENDROOT
BRANCH   6  10
HETATM   10  N   UNL     1      -9.676   7.329  68.304  1.00  0.00    -0.145 NA 
HETATM   11  N   UNL     1      -7.921   5.780  66.339  1.00  0.00    -0.101 NA 
HETATM   12  C   UNL     1     -10.774   6.381  68.534  1.00  0.00    -0.288 C  
HETATM   13  C   UNL     1     -10.641   5.159  67.632  1.00  0.00    -0.062 C  
HETATM   14  H2  UNL     1      -8.768   6.154  65.912  1.00  0.00     0.000 HD 
HETATM   15  H1  UNL     1      -7.134   6.424  66.251  1.00  0.00     0.000 HD 
HETATM   16  C   UNL     1      -9.313   4.454  67.884  1.00  0.00    -0.190 C  
HETATM   17  C   UNL     1      -8.369   6.683  68.633  1.00  0.00    -0.123 C  
HETATM   18  C   UNL     1      -8.127   5.423  67.751  1.00  0.00    -0.100 C  
ENDBRANCH   6  10
BRANCH   8  19
HETATM   19  C   UNL     1      -9.715   9.962  69.858  1.00  0.00    -0.235 C  
BRANCH  19  20
HETATM   20  C   UNL     1     -10.859   9.694  70.830  1.00  0.00    -0.409 A  
HETATM   21  C   UNL     1     -11.861   8.199  72.476  1.00  0.00    -0.438 A  
HETATM   22  C   UNL     1      -9.483   7.965  71.982  1.00  0.00    -0.174 C  
HETATM   23  N   UNL     1      -8.468   7.428  72.140  1.00  0.00    -0.108 NA 
HETATM   24  C   UNL     1     -10.736   8.643  71.768  1.00  0.00    -0.392 A  
HETATM   25  C   UNL     1     -13.104   8.796  72.271  1.00  0.00    -0.458 A  
HETATM   26  C   UNL     1     -13.217   9.888  71.415  1.00  0.00    -0.487 A  
HETATM   27  C   UNL     1     -12.097  10.357  70.725  1.00  0.00    -0.463 A  
ENDBRANCH  19  20
ENDBRANCH   8  19
TORSDOF 3
ENDMDL
MODEL       68
REMARK 921   NORMALIZED FREE ENERGY PREDICTED BY IDOCK:   -5.92 KCAL/MOL
REMARK 922        TOTAL FREE ENERGY PREDICTED BY IDOCK:   -7.28 KCAL/MOL
REMARK 923 INTER-LIGAND FREE ENERGY PREDICTED BY IDOCK:   -6.37 KCAL/MOL
REMARK 924 INTRA-LIGAND FREE ENERGY PREDICTED BY IDOCK:   -0.90 KCAL/MOL
REMARK 927      BINDING AFFINITY PREDICTED BY RF-SCORE:    0.00 PKD
ROOT
HETATM    1  C   UNL     1      -9.651   5.805  66.277  1.00  0.00    -0.134 C  
HETATM    2  N   UNL     1      -9.979   5.824  67.690  1.00  0.00    -0.130 N  
HETATM    3  C   UNL     1      -9.884   4.668  68.414  1.00  0.00    -0.102 C  
HETATM    4  C   UNL     1     -10.108   4.796  69.857  1.00  0.00    -0.299 C  
HETATM    5  O   UNL     1      -9.623   3.563  67.947  1.00  0.00    -0.190 OA 
HETATM    6  C   UNL     1     -10.269   5.978  70.484  1.00  0.00    -0.206 C  
HETATM    7  O   UNL     1     -10.524   8.031  67.543  1.00  0.00    -0.244 OA 
HETATM    8  N   UNL     1     -10.321   7.112  69.651  1.00  0.00    -0.209 N  
HETATM    9  C   UNL     1     -10.308   7.042  68.250  1.00  0.00    -0.194 C  
ENDROOT
BRANCH   6  10
HETATM   10  N   UNL     1     -10.369   5.983  71.906  1.00  0.00    -0.204 NA 
HETATM   11  N   UNL     1      -8.121   4.126  72.820  1.00  0.00    -0.091 NA 
HETATM   12  C   UNL     1     -11.504   5.490  72.699  1.00  0.00    -0.272 C  
HETATM   13  C   UNL     1     -11.121   4.242  73.486  1.00  0.00    -0.377 C  
HETATM   14  H2  UNL     1      -8.785   3.674  72.192  1.00  0.00     0.000 HD 
HETATM   15  H1  UNL     1      -7.332   4.531  72.315  1.00  0.00     0.000 HD 
HETATM   16  C   UNL     1      -9.952   4.540  74.419  1.00  0.00    -0.222 C  
HETATM   17  C   UNL     1      -9.244   6.366  72.813  1.00  0.00    -0.137 C  
HETATM   18  C   UNL     1      -8.765   5.150  73.658  1.00  0.00    -0.110 C  
ENDBRANCH   6  10
BRANCH   8  19
HETATM   19  C   UNL     1     -10.092   8.470  70.149  1.00  0.00    -0.190 C  
BRANCH  19  20
HETATM   20  C   UNL     1     -11.305   9.279  70.597  1.00  0.00    -0.330 A  
HETATM   21  C   UNL     1     -12.403  11.453  70.725  1.00  0.00    -0.483 A  
HETATM   22  C   UNL     1     -10.644  11.130  69.066  1.00  0.00    -0.218 C  
HETATM   23  N   UNL     1      -9.972  11.541  68.215  1.00  0.00    -0.195 NA 
HETATM   24  C   UNL     1     -11.466  10.602  70.124  1.00  0.00    -0.411 A  
HETATM   25  C   UNL     1     -13.192  11.000  71.782  1.00  0.00    -0.505 A  
HETATM   26  C   UNL     1     -13.102   9.674  72.195  1.00  0.00    -0.520 A  
HETATM   27  C   UNL     1     -12.191   8.809  71.585  1.00  0.00    -0.399 A  
ENDBRANCH  19  20
ENDBRANCH   8  19
TORSDOF 3
ENDMDL
MODEL       69
REMARK 921   NORMALIZED FREE ENERGY PREDICTED BY IDOCK:   -5.91 KCAL/MOL
REMARK 922        TOTAL FREE ENERGY PREDICTED BY IDOCK:   -7.27 KCAL/MOL
REMARK 923 INTER-LIGAND FREE ENERGY PREDICTED BY IDOCK:   -6.36 KCAL/MOL
REMARK 924 INTRA-LIGAND FREE ENERGY PREDICTED BY IDOCK:   -0.90 KCAL/MOL
REMARK 927      BINDING AFFINITY PREDICTED BY RF-SCORE:    0.00 PKD
ROOT
HETATM    1  C   UNL     1     -11.521  14.662  66.156  1.00  0.00    -0.339 C  
HETATM    2  N   UNL     1     -10.615  13.601  66.554  1.00  0.00    -0.280 N  
HETATM    3  C   UNL     1      -9.282  13.875  66.691  1.00  0.00    -0.236 C  
HETATM    4  C   UNL     1      -8.455  12.787  67.219  1.00  0.00    -0.194 C  
HETATM    5  O   UNL     1      -8.751  14.948  66.415  1.00  0.00    -0.230 OA 
HETATM    6  C   UNL     1      -8.957  11.622  67.674  1.00  0.00    -0.166 C  
HETATM    7  O   UNL     1     -12.344  12.119  66.574  1.00  0.00    -0.474 OA 
HETATM    8  N   UNL     1     -10.345  11.451  67.518  1.00  0.00    -0.191 N  
HETATM    9  C   UNL     1     -11.166  12.370  66.846  1.00  0.00    -0.305 C  
ENDROOT
BRANCH   6  10
HETATM   10  N   UNL     1      -8.063  10.683  68.266  1.00  0.00    -0.113 NA 
HETATM   11  N   UNL     1      -9.379   7.972  67.755  1.00  0.00    -0.137 NA 
HETATM   12  C   UNL     1      -7.724  10.586  69.692  1.00  0.00    -0.110 C  
HETATM   13  C   UNL     1      -8.273   9.300  70.300  1.00  0.00    -0.187 C  
HETATM   14  H2  UNL     1      -9.974   8.616  68.276  1.00  0.00     0.000 HD 
HETATM   15  H1  UNL     1      -9.539   8.034  66.749  1.00  0.00     0.000 HD 
HETATM   16  C   UNL     1      -7.712   8.085  69.569  1.00  0.00    -0.103 C  
HETATM   17  C   UNL     1      -7.444   9.547  67.518  1.00  0.00    -0.091 C  
HETATM   18  C   UNL     1      -7.953   8.177  68.055  1.00  0.00    -0.127 C  
ENDBRANCH   6  10
BRANCH   8  19
HETATM   19  C   UNL     1     -11.113  10.467  68.285  1.00  0.00    -0.281 C  
BRANCH  19  20
HETATM   20  C   UNL     1     -11.657  10.890  69.645  1.00  0.00    -0.394 A  
HETATM   21  C   UNL     1     -12.758  10.238  71.721  1.00  0.00    -0.535 A  
HETATM   22  C   UNL     1     -11.660   8.513  70.391  1.00  0.00    -0.069 C  
HETATM   23  N   UNL     1     -11.375   7.403  70.215  1.00  0.00    -0.255 NA 
HETATM   24  C   UNL     1     -12.006   9.896  70.588  1.00  0.00    -0.361 A  
HETATM   25  C   UNL     1     -13.154  11.558  71.934  1.00  0.00    -0.492 A  
HETATM   26  C   UNL     1     -12.740  12.556  71.056  1.00  0.00    -0.316 A  
HETATM   27  C   UNL     1     -11.968  12.232  69.939  1.00  0.00    -0.377 A  
ENDBRANCH  19  20
ENDBRANCH   8  19
TORSDOF 3
ENDMDL
MODEL       70
REMARK 921   NORMALIZED FREE ENERGY PREDICTED BY IDOCK:   -5.90 KCAL/MOL
REMARK 922        TOTAL FREE ENERGY PREDICTED BY IDOCK:   -7.25 KCAL/MOL
REMARK 923 INTER-LIGAND FREE ENERGY PREDICTED BY IDOCK:   -7.02 KCAL/MOL
REMARK 924 INTRA-LIGAND FREE ENERGY PREDICTED BY IDOCK:   -0.23 KCAL/MOL
REMARK 927      BINDING AFFINITY PREDICTED BY RF-SCORE:    0.00 PKD
ROOT
HETATM    1  C   UNL     1      -8.183   8.041  70.300  1.00  0.00    -0.123 C  
HETATM    2  N   UNL     1      -8.662   9.170  69.525  1.00  0.00    -0.134 N  
HETATM    3  C   UNL     1      -8.046   9.481  68.344  1.00  0.00    -0.101 C  
HETATM    4  C   UNL     1      -8.667  10.553  67.560  1.00  0.00    -0.125 C  
HETATM    5  O   UNL     1      -7.039   8.930  67.908  1.00  0.00    -0.077 OA 
HETATM    6  C   UNL     1      -9.842  11.128  67.884  1.00  0.00    -0.174 C  
HETATM    7  O   UNL     1     -10.214   9.625  71.129  1.00  0.00    -0.272 OA 
HETATM    8  N   UNL     1     -10.411  10.715  69.103  1.00  0.00    -0.212 N  
HETATM    9  C   UNL     1      -9.775   9.838  69.995  1.00  0.00    -0.250 C  
ENDROOT
BRANCH   6  10
HETATM   10  N   UNL     1     -10.400  12.083  66.984  1.00  0.00    -0.210 NA 
HETATM   11  N   UNL     1      -9.523  14.781  68.120  1.00  0.00    -0.203 NA 
HETATM   12  C   UNL     1     -11.830  12.313  66.739  1.00  0.00    -0.277 C  
HETATM   13  C   UNL     1     -12.262  13.679  67.261  1.00  0.00    -0.317 C  
HETATM   14  H2  UNL     1     -10.061  14.222  68.782  1.00  0.00     0.000 HD 
HETATM   15  H1  UNL     1      -8.519  14.623  68.214  1.00  0.00     0.000 HD 
HETATM   16  C   UNL     1     -11.456  14.784  66.589  1.00  0.00    -0.339 C  
HETATM   17  C   UNL     1      -9.588  13.106  66.258  1.00  0.00    -0.234 C  
HETATM   18  C   UNL     1      -9.945  14.545  66.730  1.00  0.00    -0.264 C  
ENDBRANCH   6  10
BRANCH   8  19
HETATM   19  C   UNL     1     -11.826  10.914  69.423  1.00  0.00    -0.328 C  
BRANCH  19  20
HETATM   20  C   UNL     1     -12.176  11.921  70.514  1.00  0.00    -0.426 A  
HETATM   21  C   UNL     1     -13.576  12.485  72.431  1.00  0.00    -0.353 A  
HETATM   22  C   UNL     1     -13.375  10.141  71.780  1.00  0.00    -0.385 C  
HETATM   23  N   UNL     1     -13.654   9.026  71.928  1.00  0.00    -0.404 NA 
HETATM   24  C   UNL     1     -13.019  11.522  71.577  1.00  0.00    -0.485 A  
HETATM   25  C   UNL     1     -13.294  13.838  72.247  1.00  0.00    -0.617 A  
HETATM   26  C   UNL     1     -12.397  14.232  71.258  1.00  0.00    -0.439 A  
HETATM   27  C   UNL     1     -11.815  13.279  70.419  1.00  0.00    -0.270 A  
ENDBRANCH  19  20
ENDBRANCH   8  19
TORSDOF 3
ENDMDL
MODEL       71
REMARK 921   NORMALIZED FREE ENERGY PREDICTED BY IDOCK:   -5.90 KCAL/MOL
REMARK 922        TOTAL FREE ENERGY PREDICTED BY IDOCK:   -7.25 KCAL/MOL
REMARK 923 INTER-LIGAND FREE ENERGY PREDICTED BY IDOCK:   -6.21 KCAL/MOL
REMARK 924 INTRA-LIGAND FREE ENERGY PREDICTED BY IDOCK:   -1.04 KCAL/MOL
REMARK 927      BINDING AFFINITY PREDICTED BY RF-SCORE:    0.00 PKD
ROOT
HETATM    1  C   UNL     1      -9.811   6.547  74.556  1.00  0.00    -0.332 C  
HETATM    2  N   UNL     1      -9.630   6.434  73.121  1.00  0.00    -0.149 N  
HETATM    3  C   UNL     1     -10.016   5.285  72.487  1.00  0.00    -0.170 C  
HETATM    4  C   UNL     1      -9.920   5.297  71.024  1.00  0.00    -0.266 C  
HETATM    5  O   UNL     1     -10.432   4.275  73.049  1.00  0.00    -0.164 OA 
HETATM    6  C   UNL     1      -9.603   6.393  70.308  1.00  0.00    -0.164 C  
HETATM    7  O   UNL     1      -8.666   8.496  73.070  1.00  0.00    -0.343 OA 
HETATM    8  N   UNL     1      -9.253   7.534  71.055  1.00  0.00    -0.152 N  
HETATM    9  C   UNL     1      -9.136   7.535  72.453  1.00  0.00    -0.136 C  
ENDROOT
BRANCH   6  10
HETATM   10  N   UNL     1      -9.649   6.310  68.885  1.00  0.00    -0.126 NA 
HETATM   11  N   UNL     1      -7.572   8.346  67.949  1.00  0.00    -0.097 NA 
HETATM   12  C   UNL     1     -10.798   6.642  68.033  1.00  0.00    -0.271 C  
HETATM   13  C   UNL     1     -10.517   7.884  67.194  1.00  0.00    -0.414 C  
HETATM   14  H2  UNL     1      -8.302   8.756  68.532  1.00  0.00     0.000 HD 
HETATM   15  H1  UNL     1      -6.765   8.051  68.500  1.00  0.00     0.000 HD 
HETATM   16  C   UNL     1      -9.290   7.667  66.316  1.00  0.00    -0.189 C  
HETATM   17  C   UNL     1      -8.458   6.004  68.036  1.00  0.00    -0.115 C  
HETATM   18  C   UNL     1      -8.076   7.221  67.145  1.00  0.00    -0.114 C  
ENDBRANCH   6  10
BRANCH   8  19
HETATM   19  C   UNL     1      -9.270   8.885  70.490  1.00  0.00    -0.203 C  
BRANCH  19  20
HETATM   20  C   UNL     1     -10.591   9.647  70.503  1.00  0.00    -0.369 A  
HETATM   21  C   UNL     1     -11.818  11.661  69.881  1.00  0.00    -0.434 A  
HETATM   22  C   UNL     1      -9.760  11.131  68.682  1.00  0.00    -0.198 C  
HETATM   23  N   UNL     1      -8.965  11.391  67.880  1.00  0.00    -0.147 NA 
HETATM   24  C   UNL     1     -10.736  10.792  69.686  1.00  0.00    -0.261 A  
HETATM   25  C   UNL     1     -12.765  11.398  70.870  1.00  0.00    -0.397 A  
HETATM   26  C   UNL     1     -12.678  10.228  71.620  1.00  0.00    -0.561 A  
HETATM   27  C   UNL     1     -11.619   9.341  71.415  1.00  0.00    -0.437 A  
ENDBRANCH  19  20
ENDBRANCH   8  19
TORSDOF 3
ENDMDL
MODEL       72
REMARK 921   NORMALIZED FREE ENERGY PREDICTED BY IDOCK:   -5.89 KCAL/MOL
REMARK 922        TOTAL FREE ENERGY PREDICTED BY IDOCK:   -7.25 KCAL/MOL
REMARK 923 INTER-LIGAND FREE ENERGY PREDICTED BY IDOCK:   -6.36 KCAL/MOL
REMARK 924 INTRA-LIGAND FREE ENERGY PREDICTED BY IDOCK:   -0.89 KCAL/MOL
REMARK 927      BINDING AFFINITY PREDICTED BY RF-SCORE:    0.00 PKD
ROOT
HETATM    1  C   UNL     1      -5.754   9.689  70.942  1.00  0.00    -0.071 C  
HETATM    2  N   UNL     1      -6.893  10.035  70.113  1.00  0.00    -0.121 N  
HETATM    3  C   UNL     1      -6.695  10.775  68.979  1.00  0.00    -0.070 C  
HETATM    4  C   UNL     1      -7.873  10.973  68.130  1.00  0.00    -0.116 C  
HETATM    5  O   UNL     1      -5.623  11.263  68.635  1.00  0.00    -0.043 OA 
HETATM    6  C   UNL     1      -9.059  10.372  68.349  1.00  0.00    -0.147 C  
HETATM    7  O   UNL     1      -8.289   8.993  71.579  1.00  0.00    -0.304 OA 
HETATM    8  N   UNL     1      -9.150   9.605  69.526  1.00  0.00    -0.184 N  
HETATM    9  C   UNL     1      -8.124   9.531  70.480  1.00  0.00    -0.166 C  
ENDROOT
BRANCH   6  10
HETATM   10  N   UNL     1     -10.100  10.556  67.392  1.00  0.00    -0.188 NA 
HETATM   11  N   UNL     1      -8.619  11.107  64.776  1.00  0.00    -0.375 NA 
HETATM   12  C   UNL     1     -11.105  11.627  67.397  1.00  0.00    -0.281 C  
HETATM   13  C   UNL     1     -10.894  12.582  66.227  1.00  0.00    -0.299 C  
HETATM   14  H2  UNL     1      -8.386  11.769  65.516  1.00  0.00     0.000 HD 
HETATM   15  H1  UNL     1      -7.978  10.314  64.758  1.00  0.00     0.000 HD 
HETATM   16  C   UNL     1     -10.974  11.829  64.904  1.00  0.00    -0.358 C  
HETATM   17  C   UNL     1     -10.223   9.749  66.140  1.00  0.00    -0.208 C  
HETATM   18  C   UNL     1     -10.008  10.634  64.878  1.00  0.00    -0.318 C  
ENDBRANCH   6  10
BRANCH   8  19
HETATM   19  C   UNL     1     -10.181   8.585  69.728  1.00  0.00    -0.206 C  
BRANCH  19  20
HETATM   20  C   UNL     1     -11.308   8.895  70.708  1.00  0.00    -0.325 A  
HETATM   21  C   UNL     1     -13.153   8.055  72.065  1.00  0.00    -0.289 A  
HETATM   22  C   UNL     1     -11.428   6.488  71.342  1.00  0.00    -0.309 C  
HETATM   23  N   UNL     1     -10.996   5.414  71.297  1.00  0.00    -0.133 NA 
HETATM   24  C   UNL     1     -11.949   7.830  71.382  1.00  0.00    -0.331 A  
HETATM   25  C   UNL     1     -13.719   9.329  72.095  1.00  0.00    -0.517 A  
HETATM   26  C   UNL     1     -13.051  10.400  71.509  1.00  0.00    -0.532 A  
HETATM   27  C   UNL     1     -11.837  10.193  70.849  1.00  0.00    -0.468 A  
ENDBRANCH  19  20
ENDBRANCH   8  19
TORSDOF 3
ENDMDL
MODEL       73
REMARK 921   NORMALIZED FREE ENERGY PREDICTED BY IDOCK:   -5.89 KCAL/MOL
REMARK 922        TOTAL FREE ENERGY PREDICTED BY IDOCK:   -7.24 KCAL/MOL
REMARK 923 INTER-LIGAND FREE ENERGY PREDICTED BY IDOCK:   -6.69 KCAL/MOL
REMARK 924 INTRA-LIGAND FREE ENERGY PREDICTED BY IDOCK:   -0.55 KCAL/MOL
REMARK 927      BINDING AFFINITY PREDICTED BY RF-SCORE:    0.00 PKD
ROOT
HETATM    1  C   UNL     1     -11.146   9.482  71.269  1.00  0.00    -0.379 C  
HETATM    2  N   UNL     1     -11.220  10.478  70.216  1.00  0.00    -0.312 N  
HETATM    3  C   UNL     1     -12.055  11.551  70.369  1.00  0.00    -0.382 C  
HETATM    4  C   UNL     1     -11.979  12.576  69.323  1.00  0.00    -0.304 C  
HETATM    5  O   UNL     1     -12.836  11.709  71.303  1.00  0.00    -0.391 OA 
HETATM    6  C   UNL     1     -11.067  12.562  68.331  1.00  0.00    -0.258 C  
HETATM    7  O   UNL     1      -9.751   9.275  68.959  1.00  0.00    -0.157 OA 
HETATM    8  N   UNL     1     -10.233  11.429  68.281  1.00  0.00    -0.186 N  
HETATM    9  C   UNL     1     -10.381  10.323  69.132  1.00  0.00    -0.223 C  
ENDROOT
BRANCH   6  10
HETATM   10  N   UNL     1     -11.021  13.671  67.437  1.00  0.00    -0.272 NA 
HETATM   11  N   UNL     1     -12.826  12.835  65.117  1.00  0.00    -0.776 NA 
HETATM   12  C   UNL     1      -9.834  14.166  66.728  1.00  0.00    -0.272 C  
HETATM   13  C   UNL     1      -9.954  13.931  65.227  1.00  0.00    -0.266 C  
HETATM   14  H2  UNL     1     -12.055  12.188  65.280  1.00  0.00     0.000 HD 
HETATM   15  H1  UNL     1     -13.667  12.564  65.627  1.00  0.00     0.000 HD 
HETATM   16  C   UNL     1     -11.192  14.630  64.676  1.00  0.00    -0.353 C  
HETATM   17  C   UNL     1     -12.235  14.410  66.974  1.00  0.00    -0.239 C  
HETATM   18  C   UNL     1     -12.458  14.222  65.445  1.00  0.00    -0.425 C  
ENDBRANCH   6  10
BRANCH   8  19
HETATM   19  C   UNL     1      -8.962  11.414  67.554  1.00  0.00    -0.150 C  
BRANCH  19  20
HETATM   20  C   UNL     1      -8.924  10.718  66.198  1.00  0.00    -0.192 A  
HETATM   21  C   UNL     1      -7.620  10.099  64.231  1.00  0.00    -0.124 A  
HETATM   22  C   UNL     1      -6.434  10.667  66.287  1.00  0.00    -0.126 C  
HETATM   23  N   UNL     1      -5.445  10.826  66.869  1.00  0.00    -0.046 NA 
HETATM   24  C   UNL     1      -7.675  10.477  65.580  1.00  0.00    -0.139 A  
HETATM   25  C   UNL     1      -8.793   9.945  63.494  1.00  0.00    -0.251 A  
HETATM   26  C   UNL     1     -10.029  10.095  64.117  1.00  0.00    -0.113 A  
HETATM   27  C   UNL     1     -10.096  10.445  65.467  1.00  0.00    -0.352 A  
ENDBRANCH  19  20
ENDBRANCH   8  19
TORSDOF 3
ENDMDL
MODEL       74
REMARK 921   NORMALIZED FREE ENERGY PREDICTED BY IDOCK:   -5.87 KCAL/MOL
REMARK 922        TOTAL FREE ENERGY PREDICTED BY IDOCK:   -7.21 KCAL/MOL
REMARK 923 INTER-LIGAND FREE ENERGY PREDICTED BY IDOCK:   -6.34 KCAL/MOL
REMARK 924 INTRA-LIGAND FREE ENERGY PREDICTED BY IDOCK:   -0.87 KCAL/MOL
REMARK 927      BINDING AFFINITY PREDICTED BY RF-SCORE:    0.00 PKD
ROOT
HETATM    1  C   UNL     1      -7.571   6.249  72.682  1.00  0.00    -0.100 C  
HETATM    2  N   UNL     1      -7.869   7.127  71.566  1.00  0.00    -0.093 N  
HETATM    3  C   UNL     1      -7.462   6.773  70.309  1.00  0.00    -0.090 C  
HETATM    4  C   UNL     1      -7.911   7.645  69.220  1.00  0.00    -0.126 C  
HETATM    5  O   UNL     1      -6.769   5.795  70.042  1.00  0.00    -0.047 OA 
HETATM    6  C   UNL     1      -8.778   8.663  69.391  1.00  0.00    -0.139 C  
HETATM    7  O   UNL     1      -8.846   8.616  72.986  1.00  0.00    -0.355 OA 
HETATM    8  N   UNL     1      -9.162   8.925  70.719  1.00  0.00    -0.202 N  
HETATM    9  C   UNL     1      -8.621   8.254  71.826  1.00  0.00    -0.161 C  
ENDROOT
BRANCH   6  10
HETATM   10  N   UNL     1      -9.226   9.372  68.238  1.00  0.00    -0.131 NA 
HETATM   11  N   UNL     1      -8.891  12.314  68.992  1.00  0.00    -0.280 NA 
HETATM   12  C   UNL     1     -10.587   9.358  67.685  1.00  0.00    -0.271 C  
HETATM   13  C   UNL     1     -11.258  10.718  67.848  1.00  0.00    -0.386 C  
HETATM   14  H2  UNL     1      -9.498  11.802  69.632  1.00  0.00     0.000 HD 
HETATM   15  H1  UNL     1      -7.920  12.313  69.304  1.00  0.00     0.000 HD 
HETATM   16  C   UNL     1     -10.444  11.800  67.147  1.00  0.00    -0.250 C  
HETATM   17  C   UNL     1      -8.387  10.365  67.500  1.00  0.00    -0.114 C  
HETATM   18  C   UNL     1      -8.982  11.799  67.617  1.00  0.00    -0.169 C  
ENDBRANCH   6  10
BRANCH   8  19
HETATM   19  C   UNL     1     -10.361   9.695  71.059  1.00  0.00    -0.222 C  
BRANCH  19  20
HETATM   20  C   UNL     1     -11.696   8.959  71.094  1.00  0.00    -0.356 A  
HETATM   21  C   UNL     1     -14.030   8.949  71.802  1.00  0.00    -0.448 A  
HETATM   22  C   UNL     1     -12.863  11.087  71.658  1.00  0.00    -0.435 C  
HETATM   23  N   UNL     1     -12.848  12.239  71.786  1.00  0.00    -0.302 NA 
HETATM   24  C   UNL     1     -12.859   9.656  71.496  1.00  0.00    -0.485 A  
HETATM   25  C   UNL     1     -14.062   7.559  71.702  1.00  0.00    -0.562 A  
HETATM   26  C   UNL     1     -12.949   6.872  71.224  1.00  0.00    -0.309 A  
HETATM   27  C   UNL     1     -11.786   7.568  70.889  1.00  0.00    -0.307 A  
ENDBRANCH  19  20
ENDBRANCH   8  19
TORSDOF 3
ENDMDL
MODEL       75
REMARK 921   NORMALIZED FREE ENERGY PREDICTED BY IDOCK:   -5.85 KCAL/MOL
REMARK 922        TOTAL FREE ENERGY PREDICTED BY IDOCK:   -7.20 KCAL/MOL
REMARK 923 INTER-LIGAND FREE ENERGY PREDICTED BY IDOCK:   -6.55 KCAL/MOL
REMARK 924 INTRA-LIGAND FREE ENERGY PREDICTED BY IDOCK:   -0.64 KCAL/MOL
REMARK 927      BINDING AFFINITY PREDICTED BY RF-SCORE:    0.00 PKD
ROOT
HETATM    1  C   UNL     1     -11.394   9.912  71.038  1.00  0.00    -0.386 C  
HETATM    2  N   UNL     1     -11.393  10.483  69.705  1.00  0.00    -0.261 N  
HETATM    3  C   UNL     1     -11.808  11.775  69.531  1.00  0.00    -0.337 C  
HETATM    4  C   UNL     1     -11.657  12.319  68.178  1.00  0.00    -0.396 C  
HETATM    5  O   UNL     1     -12.277  12.489  70.412  1.00  0.00    -0.348 OA 
HETATM    6  C   UNL     1     -11.035  11.666  67.177  1.00  0.00    -0.280 C  
HETATM    7  O   UNL     1     -10.673   8.501  68.845  1.00  0.00    -0.182 OA 
HETATM    8  N   UNL     1     -10.617  10.354  67.468  1.00  0.00    -0.242 N  
HETATM    9  C   UNL     1     -10.901   9.703  68.678  1.00  0.00    -0.167 C  
ENDROOT
BRANCH   6  10
HETATM   10  N   UNL     1     -10.854  12.343  65.936  1.00  0.00    -0.262 NA 
HETATM   11  N   UNL     1     -13.380  14.036  65.632  1.00  0.00    -0.678 NA 
HETATM   12  C   UNL     1     -10.754  11.716  64.611  1.00  0.00    -0.315 C  
HETATM   13  C   UNL     1     -11.967  12.054  63.752  1.00  0.00    -0.588 C  
HETATM   14  H2  UNL     1     -13.574  13.040  65.728  1.00  0.00     0.000 HD 
HETATM   15  H1  UNL     1     -13.388  14.515  66.533  1.00  0.00     0.000 HD 
HETATM   16  C   UNL     1     -12.094  13.564  63.581  1.00  0.00    -0.459 C  
HETATM   17  C   UNL     1     -10.888  13.831  65.793  1.00  0.00    -0.277 C  
HETATM   18  C   UNL     1     -12.106  14.285  64.938  1.00  0.00    -0.435 C  
ENDBRANCH   6  10
BRANCH   8  19
HETATM   19  C   UNL     1      -9.603   9.653  66.677  1.00  0.00    -0.187 C  
BRANCH  19  20
HETATM   20  C   UNL     1      -8.137   9.954  66.969  1.00  0.00    -0.110 A  
HETATM   21  C   UNL     1      -6.051   9.238  68.010  1.00  0.00    -0.049 A  
HETATM   22  C   UNL     1      -7.748   7.555  67.519  1.00  0.00    -0.118 C  
HETATM   23  N   UNL     1      -8.117   6.457  67.548  1.00  0.00    -0.116 NA 
HETATM   24  C   UNL     1      -7.309   8.926  67.477  1.00  0.00    -0.081 A  
HETATM   25  C   UNL     1      -5.601  10.558  68.032  1.00  0.00    -0.040 A  
HETATM   26  C   UNL     1      -6.372  11.563  67.454  1.00  0.00    -0.091 A  
HETATM   27  C   UNL     1      -7.615  11.260  66.895  1.00  0.00    -0.148 A  
ENDBRANCH  19  20
ENDBRANCH   8  19
TORSDOF 3
ENDMDL
MODEL       76
REMARK 921   NORMALIZED FREE ENERGY PREDICTED BY IDOCK:   -5.84 KCAL/MOL
REMARK 922        TOTAL FREE ENERGY PREDICTED BY IDOCK:   -7.19 KCAL/MOL
REMARK 923 INTER-LIGAND FREE ENERGY PREDICTED BY IDOCK:   -7.14 KCAL/MOL
REMARK 924 INTRA-LIGAND FREE ENERGY PREDICTED BY IDOCK:   -0.05 KCAL/MOL
REMARK 927      BINDING AFFINITY PREDICTED BY RF-SCORE:    0.00 PKD
ROOT
HETATM    1  C   UNL     1     -13.285  10.968  71.951  1.00  0.00    -0.398 C  
HETATM    2  N   UNL     1     -12.388  11.244  70.846  1.00  0.00    -0.387 N  
HETATM    3  C   UNL     1     -11.648  10.223  70.314  1.00  0.00    -0.316 C  
HETATM    4  C   UNL     1     -10.864  10.554  69.121  1.00  0.00    -0.277 C  
HETATM    5  O   UNL     1     -11.605   9.079  70.757  1.00  0.00    -0.276 OA 
HETATM    6  C   UNL     1     -10.943  11.738  68.482  1.00  0.00    -0.227 C  
HETATM    7  O   UNL     1     -12.949  13.449  70.927  1.00  0.00    -0.230 OA 
HETATM    8  N   UNL     1     -11.758  12.710  69.092  1.00  0.00    -0.309 N  
HETATM    9  C   UNL     1     -12.381  12.526  70.336  1.00  0.00    -0.232 C  
ENDROOT
BRANCH   6  10
HETATM   10  N   UNL     1     -10.214  11.904  67.268  1.00  0.00    -0.199 NA 
HETATM   11  N   UNL     1     -10.135   9.099  66.056  1.00  0.00    -0.361 NA 
HETATM   12  C   UNL     1      -8.810  12.320  67.148  1.00  0.00    -0.194 C  
HETATM   13  C   UNL     1      -7.943  11.179  66.627  1.00  0.00    -0.159 C  
HETATM   14  H2  UNL     1      -9.728   9.145  66.990  1.00  0.00     0.000 HD 
HETATM   15  H1  UNL     1     -11.127   8.860  66.084  1.00  0.00     0.000 HD 
HETATM   16  C   UNL     1      -8.443  10.710  65.266  1.00  0.00    -0.152 C  
HETATM   17  C   UNL     1     -10.749  11.525  65.925  1.00  0.00    -0.272 C  
HETATM   18  C   UNL     1      -9.936  10.350  65.307  1.00  0.00    -0.309 C  
ENDBRANCH   6  10
BRANCH   8  19
HETATM   19  C   UNL     1     -12.275  13.875  68.370  1.00  0.00    -0.159 C  
BRANCH  19  20
HETATM   20  C   UNL     1     -11.271  14.906  67.866  1.00  0.00    -0.324 A  
HETATM   21  C   UNL     1     -10.165  17.052  68.213  1.00  0.00    -0.326 A  
HETATM   22  C   UNL     1     -11.187  15.941  70.131  1.00  0.00    -0.364 C  
HETATM   23  N   UNL     1     -11.461  15.921  71.257  1.00  0.00    -0.417 NA 
HETATM   24  C   UNL     1     -10.860  15.948  68.728  1.00  0.00    -0.284 A  
HETATM   25  C   UNL     1      -9.863  17.124  66.854  1.00  0.00    -0.285 A  
HETATM   26  C   UNL     1     -10.187  16.062  66.014  1.00  0.00    -0.360 A  
HETATM   27  C   UNL     1     -10.855  14.946  66.521  1.00  0.00    -0.322 A  
ENDBRANCH  19  20
ENDBRANCH   8  19
TORSDOF 3
ENDMDL
MODEL       77
REMARK 921   NORMALIZED FREE ENERGY PREDICTED BY IDOCK:   -5.83 KCAL/MOL
REMARK 922        TOTAL FREE ENERGY PREDICTED BY IDOCK:   -7.17 KCAL/MOL
REMARK 923 INTER-LIGAND FREE ENERGY PREDICTED BY IDOCK:   -8.53 KCAL/MOL
REMARK 924 INTRA-LIGAND FREE ENERGY PREDICTED BY IDOCK:    1.36 KCAL/MOL
REMARK 927      BINDING AFFINITY PREDICTED BY RF-SCORE:    0.00 PKD
ROOT
HETATM    1  C   UNL     1     -11.538  15.645  70.754  1.00  0.00    -0.382 C  
HETATM    2  N   UNL     1     -11.096  14.941  69.565  1.00  0.00    -0.271 N  
HETATM    3  C   UNL     1     -11.808  13.859  69.125  1.00  0.00    -0.358 C  
HETATM    4  C   UNL     1     -11.374  13.282  67.850  1.00  0.00    -0.317 C  
HETATM    5  O   UNL     1     -12.765  13.360  69.710  1.00  0.00    -0.028 OA 
HETATM    6  C   UNL     1     -10.424  13.832  67.068  1.00  0.00    -0.274 C  
HETATM    7  O   UNL     1      -9.303  16.335  69.394  1.00  0.00    -0.232 OA 
HETATM    8  N   UNL     1      -9.773  14.962  67.597  1.00  0.00    -0.211 N  
HETATM    9  C   UNL     1     -10.004  15.450  68.892  1.00  0.00    -0.219 C  
ENDROOT
BRANCH   6  10
HETATM   10  N   UNL     1     -10.165  13.240  65.797  1.00  0.00    -0.289 NA 
HETATM   11  N   UNL     1     -12.936  12.511  64.733  1.00  0.00    -0.842 NA 
HETATM   12  C   UNL     1      -9.416  11.999  65.554  1.00  0.00    -0.104 C  
HETATM   13  C   UNL     1     -10.334  10.899  65.034  1.00  0.00    -0.356 C  
HETATM   14  H2  UNL     1     -12.723  12.077  65.631  1.00  0.00     0.000 HD 
HETATM   15  H1  UNL     1     -13.415  13.405  64.845  1.00  0.00     0.000 HD 
HETATM   16  C   UNL     1     -11.008  11.337  63.739  1.00  0.00    -0.381 C  
HETATM   17  C   UNL     1     -10.759  13.734  64.518  1.00  0.00    -0.390 C  
HETATM   18  C   UNL     1     -11.730  12.683  63.907  1.00  0.00    -0.457 C  
ENDBRANCH   6  10
BRANCH   8  19
HETATM   19  C   UNL     1      -9.026  15.908  66.764  1.00  0.00    -0.251 C  
BRANCH  19  20
HETATM   20  C   UNL     1      -9.352  17.391  66.902  1.00  0.00    -0.271 A  
HETATM   21  C   UNL     1     -10.323  19.392  65.900  1.00  0.00    -0.536 A  
HETATM   22  C   UNL     1     -10.985  17.212  65.027  1.00  0.00     0.103 C  
HETATM   23  N   UNL     1     -11.587  16.566  64.277  1.00  0.00    -0.962 NA 
HETATM   24  C   UNL     1     -10.225  17.995  65.967  1.00  0.00    -0.304 A  
HETATM   25  C   UNL     1      -9.574  20.194  66.760  1.00  0.00    -0.559 A  
HETATM   26  C   UNL     1      -8.779  19.606  67.741  1.00  0.00    -0.372 A  
HETATM   27  C   UNL     1      -8.695  18.216  67.835  1.00  0.00    -0.266 A  
ENDBRANCH  19  20
ENDBRANCH   8  19
TORSDOF 3
ENDMDL
MODEL       78
REMARK 921   NORMALIZED FREE ENERGY PREDICTED BY IDOCK:   -5.80 KCAL/MOL
REMARK 922        TOTAL FREE ENERGY PREDICTED BY IDOCK:   -7.14 KCAL/MOL
REMARK 923 INTER-LIGAND FREE ENERGY PREDICTED BY IDOCK:   -6.17 KCAL/MOL
REMARK 924 INTRA-LIGAND FREE ENERGY PREDICTED BY IDOCK:   -0.97 KCAL/MOL
REMARK 927      BINDING AFFINITY PREDICTED BY RF-SCORE:    0.00 PKD
ROOT
HETATM    1  C   UNL     1     -12.260  13.218  66.099  1.00  0.00    -0.405 C  
HETATM    2  N   UNL     1     -11.313  12.150  65.839  1.00  0.00    -0.344 N  
HETATM    3  C   UNL     1     -10.572  12.179  64.690  1.00  0.00    -0.300 C  
HETATM    4  C   UNL     1      -9.549  11.136  64.561  1.00  0.00    -0.288 C  
HETATM    5  O   UNL     1     -10.700  13.003  63.789  1.00  0.00    -0.357 OA 
HETATM    6  C   UNL     1      -9.241  10.270  65.546  1.00  0.00    -0.190 C  
HETATM    7  O   UNL     1     -11.942  11.110  67.765  1.00  0.00    -0.630 OA 
HETATM    8  N   UNL     1     -10.042  10.343  66.701  1.00  0.00    -0.216 N  
HETATM    9  C   UNL     1     -11.159  11.185  66.813  1.00  0.00    -0.214 C  
ENDROOT
BRANCH   6  10
HETATM   10  N   UNL     1      -8.152   9.372  65.342  1.00  0.00    -0.114 NA 
HETATM   11  N   UNL     1      -6.511  10.680  63.120  1.00  0.00    -0.349 NA 
HETATM   12  C   UNL     1      -8.247   7.985  64.866  1.00  0.00    -0.134 C  
HETATM   13  C   UNL     1      -7.639   7.840  63.475  1.00  0.00    -0.126 C  
HETATM   14  H2  UNL     1      -7.476  10.493  62.850  1.00  0.00     0.000 HD 
HETATM   15  H1  UNL     1      -6.396  11.618  63.505  1.00  0.00     0.000 HD 
HETATM   16  C   UNL     1      -6.174   8.264  63.489  1.00  0.00    -0.073 C  
HETATM   17  C   UNL     1      -6.717   9.776  65.448  1.00  0.00    -0.093 C  
HETATM   18  C   UNL     1      -6.002   9.677  64.069  1.00  0.00    -0.100 C  
ENDBRANCH   6  10
BRANCH   8  19
HETATM   19  C   UNL     1      -9.625   9.785  67.989  1.00  0.00    -0.142 C  
BRANCH  19  20
HETATM   20  C   UNL     1     -10.060   8.363  68.325  1.00  0.00    -0.232 A  
HETATM   21  C   UNL     1      -9.759   6.388  69.724  1.00  0.00    -0.172 A  
HETATM   22  C   UNL     1      -8.936   8.535  70.542  1.00  0.00    -0.155 C  
HETATM   23  N   UNL     1      -8.394   9.166  71.349  1.00  0.00    -0.337 NA 
HETATM   24  C   UNL     1      -9.608   7.768  69.525  1.00  0.00    -0.160 A  
HETATM   25  C   UNL     1     -10.364   5.596  68.750  1.00  0.00    -0.288 A  
HETATM   26  C   UNL     1     -10.890   6.188  67.604  1.00  0.00    -0.421 A  
HETATM   27  C   UNL     1     -10.771   7.565  67.407  1.00  0.00    -0.331 A  
ENDBRANCH  19  20
ENDBRANCH   8  19
TORSDOF 3
ENDMDL
MODEL       79
REMARK 921   NORMALIZED FREE ENERGY PREDICTED BY IDOCK:   -5.80 KCAL/MOL
REMARK 922        TOTAL FREE ENERGY PREDICTED BY IDOCK:   -7.13 KCAL/MOL
REMARK 923 INTER-LIGAND FREE ENERGY PREDICTED BY IDOCK:   -6.62 KCAL/MOL
REMARK 924 INTRA-LIGAND FREE ENERGY PREDICTED BY IDOCK:   -0.51 KCAL/MOL
REMARK 927      BINDING AFFINITY PREDICTED BY RF-SCORE:    0.00 PKD
ROOT
HETATM    1  C   UNL     1     -12.267   8.623  72.277  1.00  0.00    -0.378 C  
HETATM    2  N   UNL     1     -12.038   9.451  71.108  1.00  0.00    -0.313 N  
HETATM    3  C   UNL     1     -12.440  10.758  71.125  1.00  0.00    -0.414 C  
HETATM    4  C   UNL     1     -12.060  11.561  69.959  1.00  0.00    -0.408 C  
HETATM    5  O   UNL     1     -13.076  11.288  72.032  1.00  0.00    -0.495 OA 
HETATM    6  C   UNL     1     -11.254  11.112  68.976  1.00  0.00    -0.256 C  
HETATM    7  O   UNL     1     -11.134   7.671  70.012  1.00  0.00    -0.254 OA 
HETATM    8  N   UNL     1     -10.868   9.762  69.069  1.00  0.00    -0.217 N  
HETATM    9  C   UNL     1     -11.353   8.886  70.052  1.00  0.00    -0.040 C  
ENDROOT
BRANCH   6  10
HETATM   10  N   UNL     1     -10.866  12.022  67.949  1.00  0.00    -0.206 NA 
HETATM   11  N   UNL     1     -12.281  14.629  68.686  1.00  0.00    -0.586 NA 
HETATM   12  C   UNL     1     -11.183  11.904  66.520  1.00  0.00    -0.327 C  
HETATM   13  C   UNL     1     -12.146  13.002  66.080  1.00  0.00    -0.473 C  
HETATM   14  H2  UNL     1     -12.922  13.846  68.558  1.00  0.00     0.000 HD 
HETATM   15  H1  UNL     1     -11.988  14.727  69.659  1.00  0.00     0.000 HD 
HETATM   16  C   UNL     1     -11.544  14.377  66.347  1.00  0.00    -0.383 C  
HETATM   17  C   UNL     1     -10.191  13.329  68.215  1.00  0.00    -0.250 C  
HETATM   18  C   UNL     1     -11.103  14.524  67.811  1.00  0.00    -0.285 C  
ENDBRANCH   6  10
BRANCH   8  19
HETATM   19  C   UNL     1      -9.714   9.218  68.349  1.00  0.00    -0.154 C  
BRANCH  19  20
HETATM   20  C   UNL     1      -8.419  10.023  68.367  1.00  0.00    -0.112 A  
HETATM   21  C   UNL     1      -6.709  11.153  69.689  1.00  0.00    -0.134 A  
HETATM   22  C   UNL     1      -8.099   9.467  70.774  1.00  0.00    -0.116 C  
HETATM   23  N   UNL     1      -8.407   8.869  71.718  1.00  0.00    -0.357 NA 
HETATM   24  C   UNL     1      -7.734  10.201  69.591  1.00  0.00    -0.167 A  
HETATM   25  C   UNL     1      -6.350  11.920  68.581  1.00  0.00    -0.058 A  
HETATM   26  C   UNL     1      -6.959  11.689  67.350  1.00  0.00    -0.117 A  
HETATM   27  C   UNL     1      -7.962  10.724  67.234  1.00  0.00    -0.117 A  
ENDBRANCH  19  20
ENDBRANCH   8  19
TORSDOF 3
ENDMDL
MODEL       80
REMARK 921   NORMALIZED FREE ENERGY PREDICTED BY IDOCK:   -5.79 KCAL/MOL
REMARK 922        TOTAL FREE ENERGY PREDICTED BY IDOCK:   -7.13 KCAL/MOL
REMARK 923 INTER-LIGAND FREE ENERGY PREDICTED BY IDOCK:   -6.77 KCAL/MOL
REMARK 924 INTRA-LIGAND FREE ENERGY PREDICTED BY IDOCK:   -0.36 KCAL/MOL
REMARK 927      BINDING AFFINITY PREDICTED BY RF-SCORE:    0.00 PKD
ROOT
HETATM    1  C   UNL     1     -11.954   8.428  72.361  1.00  0.00    -0.384 C  
HETATM    2  N   UNL     1     -11.758   9.237  71.172  1.00  0.00    -0.302 N  
HETATM    3  C   UNL     1     -12.481  10.388  71.020  1.00  0.00    -0.388 C  
HETATM    4  C   UNL     1     -12.135  11.213  69.859  1.00  0.00    -0.418 C  
HETATM    5  O   UNL     1     -13.370  10.767  71.778  1.00  0.00    -0.395 OA 
HETATM    6  C   UNL     1     -11.092  10.955  69.046  1.00  0.00    -0.246 C  
HETATM    7  O   UNL     1     -10.261   7.718  70.373  1.00  0.00    -0.194 OA 
HETATM    8  N   UNL     1     -10.392   9.762  69.307  1.00  0.00    -0.203 N  
HETATM    9  C   UNL     1     -10.789   8.831  70.279  1.00  0.00    -0.231 C  
ENDROOT
BRANCH   6  10
HETATM   10  N   UNL     1     -10.789  11.891  68.014  1.00  0.00    -0.206 NA 
HETATM   11  N   UNL     1     -12.179  14.462  68.906  1.00  0.00    -0.553 NA 
HETATM   12  C   UNL     1     -11.205  11.798  66.608  1.00  0.00    -0.323 C  
HETATM   13  C   UNL     1     -12.211  12.891  66.262  1.00  0.00    -0.340 C  
HETATM   14  H2  UNL     1     -12.818  13.674  68.806  1.00  0.00     0.000 HD 
HETATM   15  H1  UNL     1     -11.819  14.544  69.857  1.00  0.00     0.000 HD 
HETATM   16  C   UNL     1     -11.607  14.268  66.515  1.00  0.00    -0.390 C  
HETATM   17  C   UNL     1     -10.113  13.201  68.259  1.00  0.00    -0.247 C  
HETATM   18  C   UNL     1     -11.065  14.392  67.947  1.00  0.00    -0.274 C  
ENDBRANCH   6  10
BRANCH   8  19
HETATM   19  C   UNL     1      -9.036   9.516  68.811  1.00  0.00    -0.133 C  
BRANCH  19  20
HETATM   20  C   UNL     1      -8.789   9.646  67.312  1.00  0.00    -0.139 A  
HETATM   21  C   UNL     1      -8.921   8.623  65.102  1.00  0.00    -0.111 A  
HETATM   22  C   UNL     1     -10.327   7.732  66.887  1.00  0.00    -0.326 C  
HETATM   23  N   UNL     1     -11.109   6.966  67.267  1.00  0.00    -0.328 NA 
HETATM   24  C   UNL     1      -9.352   8.691  66.434  1.00  0.00    -0.271 A  
HETATM   25  C   UNL     1      -7.948   9.502  64.629  1.00  0.00    -0.128 A  
HETATM   26  C   UNL     1      -7.453  10.502  65.462  1.00  0.00    -0.111 A  
HETATM   27  C   UNL     1      -7.895  10.597  66.784  1.00  0.00    -0.126 A  
ENDBRANCH  19  20
ENDBRANCH   8  19
TORSDOF 3
ENDMDL
MODEL       81
REMARK 921   NORMALIZED FREE ENERGY PREDICTED BY IDOCK:   -5.79 KCAL/MOL
REMARK 922        TOTAL FREE ENERGY PREDICTED BY IDOCK:   -7.12 KCAL/MOL
REMARK 923 INTER-LIGAND FREE ENERGY PREDICTED BY IDOCK:   -5.97 KCAL/MOL
REMARK 924 INTRA-LIGAND FREE ENERGY PREDICTED BY IDOCK:   -1.15 KCAL/MOL
REMARK 927      BINDING AFFINITY PREDICTED BY RF-SCORE:    0.00 PKD
ROOT
HETATM    1  C   UNL     1     -12.226  14.120  68.249  1.00  0.00    -0.161 C  
HETATM    2  N   UNL     1     -11.792  12.892  68.889  1.00  0.00    -0.314 N  
HETATM    3  C   UNL     1     -12.215  12.615  70.160  1.00  0.00    -0.238 C  
HETATM    4  C   UNL     1     -11.840  11.300  70.688  1.00  0.00    -0.368 C  
HETATM    5  O   UNL     1     -12.877  13.373  70.863  1.00  0.00    -0.284 OA 
HETATM    6  C   UNL     1     -11.232  10.348  69.953  1.00  0.00    -0.306 C  
HETATM    7  O   UNL     1     -10.541  12.368  67.060  1.00  0.00    -0.222 OA 
HETATM    8  N   UNL     1     -10.867  10.723  68.646  1.00  0.00    -0.203 N  
HETATM    9  C   UNL     1     -11.021  12.024  68.144  1.00  0.00    -0.230 C  
ENDROOT
BRANCH   6  10
HETATM   10  N   UNL     1     -11.016   9.069  70.545  1.00  0.00    -0.242 NA 
HETATM   11  N   UNL     1     -12.921   9.021  72.934  1.00  0.00    -0.650 NA 
HETATM   12  C   UNL     1      -9.766   8.593  71.151  1.00  0.00    -0.224 C  
HETATM   13  C   UNL     1      -9.917   8.424  72.659  1.00  0.00    -0.329 C  
HETATM   14  H2  UNL     1     -12.258   9.795  72.965  1.00  0.00     0.000 HD 
HETATM   15  H1  UNL     1     -13.795   9.285  72.477  1.00  0.00     0.000 HD 
HETATM   16  C   UNL     1     -11.033   7.435  72.974  1.00  0.00    -0.422 C  
HETATM   17  C   UNL     1     -12.103   8.067  70.767  1.00  0.00    -0.076 C  
HETATM   18  C   UNL     1     -12.348   7.831  72.285  1.00  0.00    -0.221 C  
ENDBRANCH   6  10
BRANCH   8  19
HETATM   19  C   UNL     1     -10.574   9.744  67.596  1.00  0.00    -0.276 C  
BRANCH  19  20
HETATM   20  C   UNL     1      -9.189   9.106  67.582  1.00  0.00    -0.143 A  
HETATM   21  C   UNL     1      -7.852   7.073  67.749  1.00  0.00    -0.113 A  
HETATM   22  C   UNL     1     -10.217   6.871  67.181  1.00  0.00    -0.240 C  
HETATM   23  N   UNL     1     -11.144   6.220  66.936  1.00  0.00    -0.341 NA 
HETATM   24  C   UNL     1      -9.079   7.699  67.487  1.00  0.00    -0.131 A  
HETATM   25  C   UNL     1      -6.732   7.829  68.091  1.00  0.00    -0.067 A  
HETATM   26  C   UNL     1      -6.811   9.219  68.101  1.00  0.00    -0.064 A  
HETATM   27  C   UNL     1      -8.020   9.855  67.815  1.00  0.00    -0.105 A  
ENDBRANCH  19  20
ENDBRANCH   8  19
TORSDOF 3
ENDMDL
MODEL       82
REMARK 921   NORMALIZED FREE ENERGY PREDICTED BY IDOCK:   -5.78 KCAL/MOL
REMARK 922        TOTAL FREE ENERGY PREDICTED BY IDOCK:   -7.12 KCAL/MOL
REMARK 923 INTER-LIGAND FREE ENERGY PREDICTED BY IDOCK:   -5.94 KCAL/MOL
REMARK 924 INTRA-LIGAND FREE ENERGY PREDICTED BY IDOCK:   -1.17 KCAL/MOL
REMARK 927      BINDING AFFINITY PREDICTED BY RF-SCORE:    0.00 PKD
ROOT
HETATM    1  C   UNL     1     -13.419  12.167  72.045  1.00  0.00    -0.286 C  
HETATM    2  N   UNL     1     -12.666  11.427  71.050  1.00  0.00    -0.372 N  
HETATM    3  C   UNL     1     -11.874  12.109  70.167  1.00  0.00    -0.287 C  
HETATM    4  C   UNL     1     -11.049  11.286  69.279  1.00  0.00    -0.314 C  
HETATM    5  O   UNL     1     -11.807  13.332  70.079  1.00  0.00    -0.319 OA 
HETATM    6  C   UNL     1     -10.950   9.946  69.383  1.00  0.00    -0.230 C  
HETATM    7  O   UNL     1     -13.566   9.476  71.804  1.00  0.00    -0.387 OA 
HETATM    8  N   UNL     1     -11.782   9.343  70.345  1.00  0.00    -0.200 N  
HETATM    9  C   UNL     1     -12.735  10.050  71.093  1.00  0.00    -0.387 C  
ENDROOT
BRANCH   6  10
HETATM   10  N   UNL     1     -10.030   9.266  68.532  1.00  0.00    -0.169 NA 
HETATM   11  N   UNL     1      -8.353  11.506  67.302  1.00  0.00    -0.147 NA 
HETATM   12  C   UNL     1     -10.370   8.464  67.350  1.00  0.00    -0.285 C  
HETATM   13  C   UNL     1      -9.884   9.139  66.072  1.00  0.00    -0.342 C  
HETATM   14  H2  UNL     1      -9.352  11.604  67.119  1.00  0.00     0.000 HD 
HETATM   15  H1  UNL     1      -8.069  12.006  68.145  1.00  0.00     0.000 HD 
HETATM   16  C   UNL     1      -8.373   9.342  66.119  1.00  0.00    -0.118 C  
HETATM   17  C   UNL     1      -8.545   9.400  68.646  1.00  0.00    -0.123 C  
HETATM   18  C   UNL     1      -7.946  10.095  67.389  1.00  0.00    -0.110 C  
ENDBRANCH   6  10
BRANCH   8  19
HETATM   19  C   UNL     1     -11.537   7.998  70.872  1.00  0.00    -0.269 C  
BRANCH  19  20
HETATM   20  C   UNL     1     -10.190   7.727  71.534  1.00  0.00    -0.216 A  
HETATM   21  C   UNL     1      -8.367   6.157  71.935  1.00  0.00    -0.118 A  
HETATM   22  C   UNL     1      -9.833   5.779  70.021  1.00  0.00    -0.180 C  
HETATM   23  N   UNL     1     -10.151   5.146  69.103  1.00  0.00    -0.207 NA 
HETATM   24  C   UNL     1      -9.457   6.577  71.159  1.00  0.00    -0.173 A  
HETATM   25  C   UNL     1      -7.991   6.873  73.071  1.00  0.00    -0.113 A  
HETATM   26  C   UNL     1      -8.653   8.053  73.397  1.00  0.00    -0.308 A  
HETATM   27  C   UNL     1      -9.722   8.497  72.616  1.00  0.00    -0.285 A  
ENDBRANCH  19  20
ENDBRANCH   8  19
TORSDOF 3
ENDMDL
MODEL       83
REMARK 921   NORMALIZED FREE ENERGY PREDICTED BY IDOCK:   -5.78 KCAL/MOL
REMARK 922        TOTAL FREE ENERGY PREDICTED BY IDOCK:   -7.12 KCAL/MOL
REMARK 923 INTER-LIGAND FREE ENERGY PREDICTED BY IDOCK:   -6.38 KCAL/MOL
REMARK 924 INTRA-LIGAND FREE ENERGY PREDICTED BY IDOCK:   -0.74 KCAL/MOL
REMARK 927      BINDING AFFINITY PREDICTED BY RF-SCORE:    0.00 PKD
ROOT
HETATM    1  C   UNL     1      -9.288  14.732  66.636  1.00  0.00    -0.268 C  
HETATM    2  N   UNL     1      -9.347  13.384  67.170  1.00  0.00    -0.231 N  
HETATM    3  C   UNL     1      -8.185  12.754  67.524  1.00  0.00    -0.179 C  
HETATM    4  C   UNL     1      -8.337  11.448  68.172  1.00  0.00    -0.149 C  
HETATM    5  O   UNL     1      -7.056  13.203  67.345  1.00  0.00    -0.157 OA 
HETATM    6  C   UNL     1      -9.528  10.928  68.531  1.00  0.00    -0.185 C  
HETATM    7  O   UNL     1     -11.607  13.364  66.897  1.00  0.00    -0.329 OA 
HETATM    8  N   UNL     1     -10.661  11.671  68.149  1.00  0.00    -0.193 N  
HETATM    9  C   UNL     1     -10.595  12.828  67.359  1.00  0.00    -0.229 C  
ENDROOT
BRANCH   6  10
HETATM   10  N   UNL     1      -9.540   9.700  69.254  1.00  0.00    -0.175 NA 
HETATM   11  N   UNL     1      -6.586   8.978  69.554  1.00  0.00    -0.043 NA 
HETATM   12  C   UNL     1     -10.113   8.427  68.794  1.00  0.00    -0.196 C  
HETATM   13  C   UNL     1      -9.021   7.393  68.545  1.00  0.00    -0.128 C  
HETATM   14  H2  UNL     1      -6.877   9.084  68.583  1.00  0.00     0.000 HD 
HETATM   15  H1  UNL     1      -6.223   9.850  69.941  1.00  0.00     0.000 HD 
HETATM   16  C   UNL     1      -8.219   7.149  69.818  1.00  0.00    -0.131 C  
HETATM   17  C   UNL     1      -8.826   9.496  70.551  1.00  0.00    -0.201 C  
HETATM   18  C   UNL     1      -7.673   8.461  70.401  1.00  0.00    -0.078 C  
ENDBRANCH   6  10
BRANCH   8  19
HETATM   19  C   UNL     1     -11.973  11.489  68.774  1.00  0.00    -0.271 C  
BRANCH  19  20
HETATM   20  C   UNL     1     -12.261  12.253  70.062  1.00  0.00    -0.267 A  
HETATM   21  C   UNL     1     -13.312  12.267  72.263  1.00  0.00    -0.375 A  
HETATM   22  C   UNL     1     -12.843  10.118  71.206  1.00  0.00    -0.410 C  
HETATM   23  N   UNL     1     -12.886   8.960  71.214  1.00  0.00    -0.275 NA 
HETATM   24  C   UNL     1     -12.783  11.557  71.176  1.00  0.00    -0.458 A  
HETATM   25  C   UNL     1     -13.316  13.661  72.261  1.00  0.00    -0.622 A  
HETATM   26  C   UNL     1     -12.725  14.354  71.207  1.00  0.00    -0.414 A  
HETATM   27  C   UNL     1     -12.170  13.657  70.132  1.00  0.00    -0.413 A  
ENDBRANCH  19  20
ENDBRANCH   8  19
TORSDOF 3
ENDMDL
MODEL       84
REMARK 921   NORMALIZED FREE ENERGY PREDICTED BY IDOCK:   -5.78 KCAL/MOL
REMARK 922        TOTAL FREE ENERGY PREDICTED BY IDOCK:   -7.11 KCAL/MOL
REMARK 923 INTER-LIGAND FREE ENERGY PREDICTED BY IDOCK:   -6.23 KCAL/MOL
REMARK 924 INTRA-LIGAND FREE ENERGY PREDICTED BY IDOCK:   -0.88 KCAL/MOL
REMARK 927      BINDING AFFINITY PREDICTED BY RF-SCORE:    0.00 PKD
ROOT
HETATM    1  C   UNL     1     -12.259   8.437  72.296  1.00  0.00    -0.387 C  
HETATM    2  N   UNL     1     -12.029   9.270  71.131  1.00  0.00    -0.307 N  
HETATM    3  C   UNL     1     -12.419  10.581  71.158  1.00  0.00    -0.412 C  
HETATM    4  C   UNL     1     -12.037  11.388  69.995  1.00  0.00    -0.417 C  
HETATM    5  O   UNL     1     -13.045  11.112  72.072  1.00  0.00    -0.492 OA 
HETATM    6  C   UNL     1     -11.241  10.938  69.006  1.00  0.00    -0.266 C  
HETATM    7  O   UNL     1     -11.147   7.490  70.019  1.00  0.00    -0.257 OA 
HETATM    8  N   UNL     1     -10.867   9.584  69.088  1.00  0.00    -0.206 N  
HETATM    9  C   UNL     1     -11.354   8.706  70.068  1.00  0.00    -0.017 C  
ENDROOT
BRANCH   6  10
HETATM   10  N   UNL     1     -10.849  11.851  67.983  1.00  0.00    -0.206 NA 
HETATM   11  N   UNL     1     -12.409  14.401  68.620  1.00  0.00    -0.584 NA 
HETATM   12  C   UNL     1     -11.098  11.700  66.543  1.00  0.00    -0.301 C  
HETATM   13  C   UNL     1     -12.089  12.747  66.046  1.00  0.00    -0.458 C  
HETATM   14  H2  UNL     1     -13.009  13.588  68.476  1.00  0.00     0.000 HD 
HETATM   15  H1  UNL     1     -12.164  14.525  69.602  1.00  0.00     0.000 HD 
HETATM   16  C   UNL     1     -11.561  14.151  66.318  1.00  0.00    -0.379 C  
HETATM   17  C   UNL     1     -10.245  13.190  68.257  1.00  0.00    -0.250 C  
HETATM   18  C   UNL     1     -11.191  14.338  67.797  1.00  0.00    -0.291 C  
ENDBRANCH   6  10
BRANCH   8  19
HETATM   19  C   UNL     1      -9.721   9.034  68.359  1.00  0.00    -0.156 C  
BRANCH  19  20
HETATM   20  C   UNL     1      -8.345   9.140  69.008  1.00  0.00    -0.127 A  
HETATM   21  C   UNL     1      -6.525   8.020  70.182  1.00  0.00    -0.036 A  
HETATM   22  C   UNL     1      -8.094   6.664  68.897  1.00  0.00    -0.116 C  
HETATM   23  N   UNL     1      -8.468   5.630  68.529  1.00  0.00    -0.105 NA 
HETATM   24  C   UNL     1      -7.648   7.957  69.345  1.00  0.00    -0.103 A  
HETATM   25  C   UNL     1      -6.080   9.245  70.677  1.00  0.00    -0.056 A  
HETATM   26  C   UNL     1      -6.708  10.422  70.280  1.00  0.00    -0.140 A  
HETATM   27  C   UNL     1      -7.811  10.375  69.424  1.00  0.00    -0.163 A  
ENDBRANCH  19  20
ENDBRANCH   8  19
TORSDOF 3
ENDMDL
MODEL       85
REMARK 921   NORMALIZED FREE ENERGY PREDICTED BY IDOCK:   -5.77 KCAL/MOL
REMARK 922        TOTAL FREE ENERGY PREDICTED BY IDOCK:   -7.10 KCAL/MOL
REMARK 923 INTER-LIGAND FREE ENERGY PREDICTED BY IDOCK:   -6.44 KCAL/MOL
REMARK 924 INTRA-LIGAND FREE ENERGY PREDICTED BY IDOCK:   -0.66 KCAL/MOL
REMARK 927      BINDING AFFINITY PREDICTED BY RF-SCORE:    0.00 PKD
ROOT
HETATM    1  C   UNL     1     -12.527  12.351  64.456  1.00  0.00    -0.435 C  
HETATM    2  N   UNL     1     -11.516  13.250  64.980  1.00  0.00    -0.299 N  
HETATM    3  C   UNL     1     -11.610  14.589  64.717  1.00  0.00    -0.413 C  
HETATM    4  C   UNL     1     -10.625  15.444  65.386  1.00  0.00    -0.430 C  
HETATM    5  O   UNL     1     -12.448  15.106  63.983  1.00  0.00    -0.771 OA 
HETATM    6  C   UNL     1      -9.752  14.994  66.308  1.00  0.00    -0.291 C  
HETATM    7  O   UNL     1     -10.398  11.483  65.882  1.00  0.00    -0.232 OA 
HETATM    8  N   UNL     1      -9.756  13.604  66.530  1.00  0.00    -0.285 N  
HETATM    9  C   UNL     1     -10.537  12.706  65.785  1.00  0.00    -0.272 C  
ENDROOT
BRANCH   6  10
HETATM   10  N   UNL     1      -8.916  15.941  66.969  1.00  0.00    -0.205 NA 
HETATM   11  N   UNL     1     -10.463  18.570  66.769  1.00  0.00    -0.393 NA 
HETATM   12  C   UNL     1      -7.570  16.354  66.550  1.00  0.00    -0.223 C  
HETATM   13  C   UNL     1      -7.562  17.806  66.087  1.00  0.00    -0.302 C  
HETATM   14  H2  UNL     1     -10.262  18.151  65.861  1.00  0.00     0.000 HD 
HETATM   15  H1  UNL     1     -11.370  18.276  67.132  1.00  0.00     0.000 HD 
HETATM   16  C   UNL     1      -8.040  18.724  67.206  1.00  0.00    -0.256 C  
HETATM   17  C   UNL     1      -9.365  16.772  68.128  1.00  0.00    -0.234 C  
HETATM   18  C   UNL     1      -9.406  18.282  67.753  1.00  0.00    -0.271 C  
ENDBRANCH   6  10
BRANCH   8  19
HETATM   19  C   UNL     1      -9.190  12.993  67.734  1.00  0.00    -0.200 C  
BRANCH  19  20
HETATM   20  C   UNL     1      -7.798  12.379  67.635  1.00  0.00    -0.163 A  
HETATM   21  C   UNL     1      -5.401  12.624  68.018  1.00  0.00    -0.087 A  
HETATM   22  C   UNL     1      -6.935  14.055  69.265  1.00  0.00    -0.084 C  
HETATM   23  N   UNL     1      -7.126  14.906  70.028  1.00  0.00    -0.128 NA 
HETATM   24  C   UNL     1      -6.721  12.997  68.311  1.00  0.00    -0.096 A  
HETATM   25  C   UNL     1      -5.141  11.635  67.070  1.00  0.00    -0.103 A  
HETATM   26  C   UNL     1      -6.198  10.961  66.464  1.00  0.00    -0.122 A  
HETATM   27  C   UNL     1      -7.517  11.305  66.769  1.00  0.00    -0.146 A  
ENDBRANCH  19  20
ENDBRANCH   8  19
TORSDOF 3
ENDMDL
MODEL       86
REMARK 921   NORMALIZED FREE ENERGY PREDICTED BY IDOCK:   -5.73 KCAL/MOL
REMARK 922        TOTAL FREE ENERGY PREDICTED BY IDOCK:   -7.05 KCAL/MOL
REMARK 923 INTER-LIGAND FREE ENERGY PREDICTED BY IDOCK:   -6.52 KCAL/MOL
REMARK 924 INTRA-LIGAND FREE ENERGY PREDICTED BY IDOCK:   -0.53 KCAL/MOL
REMARK 927      BINDING AFFINITY PREDICTED BY RF-SCORE:    0.00 PKD
ROOT
HETATM    1  C   UNL     1      -6.065  10.320  67.633  1.00  0.00    -0.056 C  
HETATM    2  N   UNL     1      -7.019  11.411  67.691  1.00  0.00    -0.076 N  
HETATM    3  C   UNL     1      -6.580  12.694  67.512  1.00  0.00    -0.156 C  
HETATM    4  C   UNL     1      -7.619  13.726  67.458  1.00  0.00    -0.185 C  
HETATM    5  O   UNL     1      -5.403  13.025  67.390  1.00  0.00    -0.298 OA 
HETATM    6  C   UNL     1      -8.939  13.454  67.449  1.00  0.00    -0.215 C  
HETATM    7  O   UNL     1      -8.691   9.938  68.159  1.00  0.00    -0.121 OA 
HETATM    8  N   UNL     1      -9.287  12.099  67.606  1.00  0.00    -0.182 N  
HETATM    9  C   UNL     1      -8.350  11.085  67.857  1.00  0.00    -0.124 C  
ENDROOT
BRANCH   6  10
HETATM   10  N   UNL     1      -9.853  14.535  67.282  1.00  0.00    -0.233 NA 
HETATM   11  N   UNL     1      -8.058  16.984  66.939  1.00  0.00    -0.201 NA 
HETATM   12  C   UNL     1     -10.823  15.013  68.276  1.00  0.00    -0.259 C  
HETATM   13  C   UNL     1     -10.449  16.402  68.783  1.00  0.00    -0.300 C  
HETATM   14  H2  UNL     1      -7.897  16.488  67.815  1.00  0.00     0.000 HD 
HETATM   15  H1  UNL     1      -7.440  16.656  66.196  1.00  0.00     0.000 HD 
HETATM   16  C   UNL     1     -10.391  17.392  67.625  1.00  0.00    -0.355 C  
HETATM   17  C   UNL     1      -9.848  15.446  66.097  1.00  0.00    -0.311 C  
HETATM   18  C   UNL     1      -9.462  16.897  66.506  1.00  0.00    -0.276 C  
ENDBRANCH   6  10
BRANCH   8  19
HETATM   19  C   UNL     1     -10.601  11.570  67.231  1.00  0.00    -0.228 C  
BRANCH  19  20
HETATM   20  C   UNL     1     -11.193  12.013  65.897  1.00  0.00    -0.385 A  
HETATM   21  C   UNL     1     -10.882  12.301  63.495  1.00  0.00    -0.508 A  
HETATM   22  C   UNL     1      -9.417  10.754  64.685  1.00  0.00    -0.251 C  
HETATM   23  N   UNL     1      -8.530  10.008  64.691  1.00  0.00    -0.164 NA 
HETATM   24  C   UNL     1     -10.519  11.681  64.699  1.00  0.00    -0.354 A  
HETATM   25  C   UNL     1     -11.914  13.238  63.467  1.00  0.00    -0.537 A  
HETATM   26  C   UNL     1     -12.640  13.505  64.625  1.00  0.00    -0.303 A  
HETATM   27  C   UNL     1     -12.305  12.873  65.824  1.00  0.00    -0.437 A  
ENDBRANCH  19  20
ENDBRANCH   8  19
TORSDOF 3
ENDMDL
MODEL       87
REMARK 921   NORMALIZED FREE ENERGY PREDICTED BY IDOCK:   -5.72 KCAL/MOL
REMARK 922        TOTAL FREE ENERGY PREDICTED BY IDOCK:   -7.05 KCAL/MOL
REMARK 923 INTER-LIGAND FREE ENERGY PREDICTED BY IDOCK:   -6.19 KCAL/MOL
REMARK 924 INTRA-LIGAND FREE ENERGY PREDICTED BY IDOCK:   -0.85 KCAL/MOL
REMARK 927      BINDING AFFINITY PREDICTED BY RF-SCORE:    0.00 PKD
ROOT
HETATM    1  C   UNL     1     -12.752  10.027  71.979  1.00  0.00    -0.347 C  
HETATM    2  N   UNL     1     -11.737  10.246  70.966  1.00  0.00    -0.369 N  
HETATM    3  C   UNL     1     -10.682   9.379  70.879  1.00  0.00    -0.323 C  
HETATM    4  C   UNL     1      -9.769   9.593  69.752  1.00  0.00    -0.247 C  
HETATM    5  O   UNL     1     -10.462   8.456  71.657  1.00  0.00    -0.216 OA 
HETATM    6  C   UNL     1      -9.993  10.490  68.771  1.00  0.00    -0.192 C  
HETATM    7  O   UNL     1     -12.809  12.136  70.284  1.00  0.00     0.104 OA 
HETATM    8  N   UNL     1     -11.123  11.312  68.939  1.00  0.00    -0.218 N  
HETATM    9  C   UNL     1     -11.929  11.292  70.088  1.00  0.00    -0.369 C  
ENDROOT
BRANCH   6  10
HETATM   10  N   UNL     1      -9.089  10.529  67.670  1.00  0.00    -0.141 NA 
HETATM   11  N   UNL     1      -7.118   8.264  68.238  1.00  0.00    -0.080 NA 
HETATM   12  C   UNL     1      -8.183  11.635  67.329  1.00  0.00    -0.159 C  
HETATM   13  C   UNL     1      -6.726  11.232  67.533  1.00  0.00    -0.074 C  
HETATM   14  H2  UNL     1      -7.157   8.959  68.984  1.00  0.00     0.000 HD 
HETATM   15  H1  UNL     1      -7.767   7.493  68.400  1.00  0.00     0.000 HD 
HETATM   16  C   UNL     1      -6.384  10.021  66.672  1.00  0.00    -0.070 C  
HETATM   17  C   UNL     1      -8.827   9.363  66.772  1.00  0.00    -0.127 C  
HETATM   18  C   UNL     1      -7.361   8.861  66.916  1.00  0.00    -0.083 C  
ENDBRANCH   6  10
BRANCH   8  19
HETATM   19  C   UNL     1     -11.741  12.043  67.830  1.00  0.00    -0.309 C  
BRANCH  19  20
HETATM   20  C   UNL     1     -11.329  13.495  67.616  1.00  0.00    -0.326 A  
HETATM   21  C   UNL     1     -10.936  15.319  66.044  1.00  0.00    -0.317 A  
HETATM   22  C   UNL     1     -12.342  13.453  65.339  1.00  0.00    -0.477 C  
HETATM   23  N   UNL     1     -12.982  12.921  64.533  1.00  0.00    -0.737 NA 
HETATM   24  C   UNL     1     -11.547  14.095  66.354  1.00  0.00    -0.380 A  
HETATM   25  C   UNL     1     -10.122  15.958  66.978  1.00  0.00    -0.268 A  
HETATM   26  C   UNL     1      -9.973  15.417  68.253  1.00  0.00    -0.214 A  
HETATM   27  C   UNL     1     -10.599  14.213  68.582  1.00  0.00    -0.253 A  
ENDBRANCH  19  20
ENDBRANCH   8  19
TORSDOF 3
ENDMDL
MODEL       88
REMARK 921   NORMALIZED FREE ENERGY PREDICTED BY IDOCK:   -5.72 KCAL/MOL
REMARK 922        TOTAL FREE ENERGY PREDICTED BY IDOCK:   -7.04 KCAL/MOL
REMARK 923 INTER-LIGAND FREE ENERGY PREDICTED BY IDOCK:   -6.12 KCAL/MOL
REMARK 924 INTRA-LIGAND FREE ENERGY PREDICTED BY IDOCK:   -0.92 KCAL/MOL
REMARK 927      BINDING AFFINITY PREDICTED BY RF-SCORE:    0.00 PKD
ROOT
HETATM    1  C   UNL     1     -12.377  11.500  70.017  1.00  0.00    -0.213 C  
HETATM    2  N   UNL     1     -11.851  12.497  69.104  1.00  0.00    -0.306 N  
HETATM    3  C   UNL     1     -11.695  13.785  69.539  1.00  0.00    -0.323 C  
HETATM    4  C   UNL     1     -11.040  14.702  68.601  1.00  0.00    -0.276 C  
HETATM    5  O   UNL     1     -12.050  14.207  70.636  1.00  0.00    -0.314 OA 
HETATM    6  C   UNL     1     -10.496  14.310  67.432  1.00  0.00    -0.264 C  
HETATM    7  O   UNL     1     -11.755  10.941  67.444  1.00  0.00    -0.510 OA 
HETATM    8  N   UNL     1     -10.684  12.957  67.092  1.00  0.00    -0.251 N  
HETATM    9  C   UNL     1     -11.466  12.072  67.850  1.00  0.00    -0.330 C  
ENDROOT
BRANCH   6  10
HETATM   10  N   UNL     1      -9.789  15.274  66.656  1.00  0.00    -0.240 NA 
HETATM   11  N   UNL     1      -8.396  17.030  68.734  1.00  0.00    -0.253 NA 
HETATM   12  C   UNL     1     -10.387  16.280  65.767  1.00  0.00    -0.374 C  
HETATM   13  C   UNL     1     -10.181  17.687  66.317  1.00  0.00    -0.362 C  
HETATM   14  H2  UNL     1      -9.409  17.003  68.845  1.00  0.00     0.000 HD 
HETATM   15  H1  UNL     1      -7.931  16.315  69.294  1.00  0.00     0.000 HD 
HETATM   16  C   UNL     1      -8.695  17.984  66.479  1.00  0.00    -0.279 C  
HETATM   17  C   UNL     1      -8.314  15.495  66.755  1.00  0.00    -0.265 C  
HETATM   18  C   UNL     1      -7.995  16.908  67.323  1.00  0.00    -0.174 C  
ENDBRANCH   6  10
BRANCH   8  19
HETATM   19  C   UNL     1      -9.856  12.268  66.099  1.00  0.00    -0.243 C  
BRANCH  19  20
HETATM   20  C   UNL     1      -8.590  11.572  66.586  1.00  0.00    -0.176 A  
HETATM   21  C   UNL     1      -7.104   9.644  66.431  1.00  0.00    -0.093 A  
HETATM   22  C   UNL     1      -8.607  10.113  64.567  1.00  0.00    -0.189 C  
HETATM   23  N   UNL     1      -9.038   9.842  63.525  1.00  0.00    -0.252 NA 
HETATM   24  C   UNL     1      -8.089  10.465  65.864  1.00  0.00    -0.149 A  
HETATM   25  C   UNL     1      -6.602   9.920  67.702  1.00  0.00    -0.068 A  
HETATM   26  C   UNL     1      -7.026  11.058  68.384  1.00  0.00    -0.071 A  
HETATM   27  C   UNL     1      -7.987  11.897  67.817  1.00  0.00    -0.144 A  
ENDBRANCH  19  20
ENDBRANCH   8  19
TORSDOF 3
ENDMDL
MODEL       89
REMARK 921   NORMALIZED FREE ENERGY PREDICTED BY IDOCK:   -5.71 KCAL/MOL
REMARK 922        TOTAL FREE ENERGY PREDICTED BY IDOCK:   -7.03 KCAL/MOL
REMARK 923 INTER-LIGAND FREE ENERGY PREDICTED BY IDOCK:   -6.82 KCAL/MOL
REMARK 924 INTRA-LIGAND FREE ENERGY PREDICTED BY IDOCK:   -0.21 KCAL/MOL
REMARK 927      BINDING AFFINITY PREDICTED BY RF-SCORE:    0.00 PKD
ROOT
HETATM    1  C   UNL     1     -12.387  13.619  70.947  1.00  0.00    -0.371 C  
HETATM    2  N   UNL     1     -11.886  14.735  70.167  1.00  0.00    -0.288 N  
HETATM    3  C   UNL     1     -11.602  15.916  70.797  1.00  0.00    -0.410 C  
HETATM    4  C   UNL     1     -10.981  16.952  69.965  1.00  0.00     0.142 C  
HETATM    5  O   UNL     1     -11.820  16.154  71.981  1.00  0.00    -0.479 OA 
HETATM    6  C   UNL     1     -10.582  16.747  68.695  1.00  0.00    -0.353 C  
HETATM    7  O   UNL     1     -12.057  13.496  68.265  1.00  0.00    -0.354 OA 
HETATM    8  N   UNL     1     -10.893  15.487  68.150  1.00  0.00    -0.285 N  
HETATM    9  C   UNL     1     -11.655  14.521  68.824  1.00  0.00    -0.312 C  
ENDROOT
BRANCH   6  10
HETATM   10  N   UNL     1      -9.891  17.798  68.024  1.00  0.00    -0.302 NA 
HETATM   11  N   UNL     1     -10.472  20.275  69.717  1.00  0.00    -0.499 NA 
HETATM   12  C   UNL     1     -10.167  18.291  66.668  1.00  0.00    -0.384 C  
HETATM   13  C   UNL     1     -10.729  19.708  66.705  1.00  0.00    -0.552 C  
HETATM   14  H2  UNL     1     -11.315  19.819  69.370  1.00  0.00     0.000 HD 
HETATM   15  H1  UNL     1     -10.205  19.932  70.640  1.00  0.00     0.000 HD 
HETATM   16  C   UNL     1      -9.747  20.652  67.390  1.00  0.00    -0.552 C  
HETATM   17  C   UNL     1      -8.861  18.660  68.679  1.00  0.00    -0.302 C  
HETATM   18  C   UNL     1      -9.346  20.136  68.780  1.00  0.00     0.107 C  
ENDBRANCH   6  10
BRANCH   8  19
HETATM   19  C   UNL     1     -10.214  14.945  66.970  1.00  0.00    -0.256 C  
BRANCH  19  20
HETATM   20  C   UNL     1      -8.709  14.713  67.058  1.00  0.00    -0.258 A  
HETATM   21  C   UNL     1      -6.879  13.328  67.884  1.00  0.00    -0.140 A  
HETATM   22  C   UNL     1      -9.107  12.345  67.725  1.00  0.00    -0.193 C  
HETATM   23  N   UNL     1      -9.828  11.451  67.877  1.00  0.00    -0.175 NA 
HETATM   24  C   UNL     1      -8.229  13.470  67.533  1.00  0.00    -0.186 A  
HETATM   25  C   UNL     1      -5.999  14.401  67.756  1.00  0.00    -0.111 A  
HETATM   26  C   UNL     1      -6.444  15.601  67.207  1.00  0.00    -0.093 A  
HETATM   27  C   UNL     1      -7.780  15.746  66.829  1.00  0.00    -0.216 A  
ENDBRANCH  19  20
ENDBRANCH   8  19
TORSDOF 3
ENDMDL
MODEL       90
REMARK 921   NORMALIZED FREE ENERGY PREDICTED BY IDOCK:   -5.70 KCAL/MOL
REMARK 922        TOTAL FREE ENERGY PREDICTED BY IDOCK:   -7.01 KCAL/MOL
REMARK 923 INTER-LIGAND FREE ENERGY PREDICTED BY IDOCK:   -6.15 KCAL/MOL
REMARK 924 INTRA-LIGAND FREE ENERGY PREDICTED BY IDOCK:   -0.87 KCAL/MOL
REMARK 927      BINDING AFFINITY PREDICTED BY RF-SCORE:    0.00 PKD
ROOT
HETATM    1  C   UNL     1      -5.549  12.588  67.530  1.00  0.00    -0.131 C  
HETATM    2  N   UNL     1      -6.906  12.840  67.976  1.00  0.00    -0.086 N  
HETATM    3  C   UNL     1      -7.258  14.104  68.365  1.00  0.00    -0.109 C  
HETATM    4  C   UNL     1      -8.676  14.306  68.679  1.00  0.00    -0.150 C  
HETATM    5  O   UNL     1      -6.486  15.054  68.459  1.00  0.00    -0.088 OA 
HETATM    6  C   UNL     1      -9.623  13.368  68.482  1.00  0.00    -0.141 C  
HETATM    7  O   UNL     1      -7.418  10.639  67.699  1.00  0.00    -0.090 OA 
HETATM    8  N   UNL     1      -9.161  12.111  68.049  1.00  0.00    -0.188 N  
HETATM    9  C   UNL     1      -7.801  11.792  67.916  1.00  0.00    -0.135 C  
ENDROOT
BRANCH   6  10
HETATM   10  N   UNL     1     -10.984  13.719  68.721  1.00  0.00    -0.257 NA 
HETATM   11  N   UNL     1     -10.831  16.515  69.947  1.00  0.00    -0.334 NA 
HETATM   12  C   UNL     1     -11.908  13.041  69.641  1.00  0.00    -0.319 C  
HETATM   13  C   UNL     1     -12.259  13.936  70.824  1.00  0.00    -0.441 C  
HETATM   14  H2  UNL     1     -10.309  15.816  70.475  1.00  0.00     0.000 HD 
HETATM   15  H1  UNL     1     -10.246  16.985  69.255  1.00  0.00     0.000 HD 
HETATM   16  C   UNL     1     -12.900  15.232  70.338  1.00  0.00    -0.360 C  
HETATM   17  C   UNL     1     -11.632  14.946  68.164  1.00  0.00    -0.334 C  
HETATM   18  C   UNL     1     -12.020  15.940  69.297  1.00  0.00    -0.242 C  
ENDBRANCH   6  10
BRANCH   8  19
HETATM   19  C   UNL     1     -10.036  11.123  67.414  1.00  0.00    -0.185 C  
BRANCH  19  20
HETATM   20  C   UNL     1     -10.263  11.233  65.910  1.00  0.00    -0.298 A  
HETATM   21  C   UNL     1      -9.778  10.369  63.681  1.00  0.00    -0.338 A  
HETATM   22  C   UNL     1      -9.398   8.916  65.604  1.00  0.00    -0.191 C  
HETATM   23  N   UNL     1      -9.046   7.906  66.052  1.00  0.00    -0.161 NA 
HETATM   24  C   UNL     1      -9.836  10.179  65.069  1.00  0.00    -0.392 A  
HETATM   25  C   UNL     1     -10.150  11.589  63.119  1.00  0.00    -0.395 A  
HETATM   26  C   UNL     1     -10.654  12.602  63.931  1.00  0.00    -0.460 A  
HETATM   27  C   UNL     1     -10.743  12.414  65.312  1.00  0.00    -0.322 A  
ENDBRANCH  19  20
ENDBRANCH   8  19
TORSDOF 3
ENDMDL
MODEL       91
REMARK 921   NORMALIZED FREE ENERGY PREDICTED BY IDOCK:   -5.67 KCAL/MOL
REMARK 922        TOTAL FREE ENERGY PREDICTED BY IDOCK:   -6.99 KCAL/MOL
REMARK 923 INTER-LIGAND FREE ENERGY PREDICTED BY IDOCK:   -7.55 KCAL/MOL
REMARK 924 INTRA-LIGAND FREE ENERGY PREDICTED BY IDOCK:    0.56 KCAL/MOL
REMARK 927      BINDING AFFINITY PREDICTED BY RF-SCORE:    0.00 PKD
ROOT
HETATM    1  C   UNL     1     -11.558  14.852  71.799  1.00  0.00    -0.275 C  
HETATM    2  N   UNL     1     -11.821  14.355  70.461  1.00  0.00    -0.298 N  
HETATM    3  C   UNL     1     -11.455  15.113  69.383  1.00  0.00    -0.306 C  
HETATM    4  C   UNL     1     -11.636  14.488  68.069  1.00  0.00    -0.364 C  
HETATM    5  O   UNL     1     -10.989  16.248  69.444  1.00  0.00    -0.300 OA 
HETATM    6  C   UNL     1     -12.013  13.206  67.900  1.00  0.00    -0.303 C  
HETATM    7  O   UNL     1     -12.820  12.504  71.333  1.00  0.00    -0.366 OA 
HETATM    8  N   UNL     1     -12.337  12.502  69.076  1.00  0.00     0.055 N  
HETATM    9  C   UNL     1     -12.371  13.096  70.346  1.00  0.00    -0.279 C  
ENDROOT
BRANCH   6  10
HETATM   10  N   UNL     1     -12.049  12.679  66.576  1.00  0.00    -0.552 NA 
HETATM   11  N   UNL     1      -9.131  12.734  65.670  1.00  0.00    -0.293 NA 
HETATM   12  C   UNL     1     -12.732  13.278  65.422  1.00  0.00    -0.399 C  
HETATM   13  C   UNL     1     -11.726  13.770  64.386  1.00  0.00    -0.436 C  
HETATM   14  H2  UNL     1      -9.485  13.651  65.941  1.00  0.00     0.000 HD 
HETATM   15  H1  UNL     1      -8.688  12.250  66.451  1.00  0.00     0.000 HD 
HETATM   16  C   UNL     1     -10.850  12.618  63.906  1.00  0.00    -0.468 C  
HETATM   17  C   UNL     1     -11.256  11.490  66.137  1.00  0.00    -0.202 C  
HETATM   18  C   UNL     1     -10.183  11.890  65.082  1.00  0.00    -0.277 C  
ENDBRANCH   6  10
BRANCH   8  19
HETATM   19  C   UNL     1     -12.375  11.039  69.136  1.00  0.00    -0.009 C  
BRANCH  19  20
HETATM   20  C   UNL     1     -11.626  10.352  70.274  1.00  0.00    -0.410 A  
HETATM   21  C   UNL     1      -9.567   9.302  71.052  1.00  0.00    -0.329 A  
HETATM   22  C   UNL     1      -9.461  10.791  69.122  1.00  0.00    -0.134 C  
HETATM   23  N   UNL     1      -8.858  11.303  68.274  1.00  0.00    -0.152 NA 
HETATM   24  C   UNL     1     -10.229  10.163  70.166  1.00  0.00    -0.235 A  
HETATM   25  C   UNL     1     -10.276   8.638  72.052  1.00  0.00    -0.407 A  
HETATM   26  C   UNL     1     -11.635   8.886  72.220  1.00  0.00    -0.332 A  
HETATM   27  C   UNL     1     -12.300   9.763  71.361  1.00  0.00    -0.480 A  
ENDBRANCH  19  20
ENDBRANCH   8  19
TORSDOF 3
ENDMDL
MODEL       92
REMARK 921   NORMALIZED FREE ENERGY PREDICTED BY IDOCK:   -5.66 KCAL/MOL
REMARK 922        TOTAL FREE ENERGY PREDICTED BY IDOCK:   -6.97 KCAL/MOL
REMARK 923 INTER-LIGAND FREE ENERGY PREDICTED BY IDOCK:   -6.88 KCAL/MOL
REMARK 924 INTRA-LIGAND FREE ENERGY PREDICTED BY IDOCK:   -0.09 KCAL/MOL
REMARK 927      BINDING AFFINITY PREDICTED BY RF-SCORE:    0.00 PKD
ROOT
HETATM    1  C   UNL     1      -8.746  19.449  66.124  1.00  0.00    -0.279 C  
HETATM    2  N   UNL     1      -9.107  18.536  67.193  1.00  0.00    -0.273 N  
HETATM    3  C   UNL     1     -10.006  18.940  68.141  1.00  0.00    -0.376 C  
HETATM    4  C   UNL     1     -10.415  17.919  69.111  1.00  0.00    -0.002 C  
HETATM    5  O   UNL     1     -10.484  20.068  68.225  1.00  0.00    -0.406 OA 
HETATM    6  C   UNL     1     -10.052  16.624  69.028  1.00  0.00    -0.293 C  
HETATM    7  O   UNL     1      -7.655  16.986  66.372  1.00  0.00    -0.262 OA 
HETATM    8  N   UNL     1      -9.149  16.306  67.996  1.00  0.00    -0.187 N  
HETATM    9  C   UNL     1      -8.568  17.267  67.154  1.00  0.00    -0.206 C  
ENDROOT
BRANCH   6  10
HETATM   10  N   UNL     1     -10.602  15.705  69.968  1.00  0.00    -0.315 NA 
HETATM   11  N   UNL     1     -12.638  14.104  68.345  1.00  0.00    -0.305 NA 
HETATM   12  C   UNL     1     -11.380  16.048  71.166  1.00  0.00    -0.361 C  
HETATM   13  C   UNL     1     -12.831  15.601  71.024  1.00  0.00    -0.521 C  
HETATM   14  H2  UNL     1     -12.819  15.107  68.339  1.00  0.00     0.000 HD 
HETATM   15  H1  UNL     1     -12.057  13.816  67.556  1.00  0.00     0.000 HD 
HETATM   16  C   UNL     1     -12.903  14.096  70.797  1.00  0.00    -0.378 C  
HETATM   17  C   UNL     1     -10.587  14.222  69.780  1.00  0.00     0.151 C  
HETATM   18  C   UNL     1     -12.029  13.662  69.610  1.00  0.00    -0.343 C  
ENDBRANCH   6  10
BRANCH   8  19
HETATM   19  C   UNL     1      -8.958  14.939  67.506  1.00  0.00    -0.185 C  
BRANCH  19  20
HETATM   20  C   UNL     1      -9.943  14.408  66.470  1.00  0.00    -0.291 A  
HETATM   21  C   UNL     1     -10.617  12.571  65.014  1.00  0.00    -0.329 A  
HETATM   22  C   UNL     1      -9.168  12.082  66.915  1.00  0.00    -0.197 C  
HETATM   23  N   UNL     1      -8.549  11.331  67.545  1.00  0.00    -0.132 NA 
HETATM   24  C   UNL     1      -9.928  13.032  66.144  1.00  0.00    -0.278 A  
HETATM   25  C   UNL     1     -11.331  13.460  64.212  1.00  0.00    -0.420 A  
HETATM   26  C   UNL     1     -11.424  14.801  64.575  1.00  0.00    -0.333 A  
HETATM   27  C   UNL     1     -10.764  15.267  65.714  1.00  0.00    -0.357 A  
ENDBRANCH  19  20
ENDBRANCH   8  19
TORSDOF 3
ENDMDL
MODEL       93
REMARK 921   NORMALIZED FREE ENERGY PREDICTED BY IDOCK:   -5.64 KCAL/MOL
REMARK 922        TOTAL FREE ENERGY PREDICTED BY IDOCK:   -6.95 KCAL/MOL
REMARK 923 INTER-LIGAND FREE ENERGY PREDICTED BY IDOCK:   -7.28 KCAL/MOL
REMARK 924 INTRA-LIGAND FREE ENERGY PREDICTED BY IDOCK:    0.34 KCAL/MOL
REMARK 927      BINDING AFFINITY PREDICTED BY RF-SCORE:    0.00 PKD
ROOT
HETATM    1  C   UNL     1     -12.451  13.502  70.164  1.00  0.00    -0.209 C  
HETATM    2  N   UNL     1     -11.956  14.579  69.327  1.00  0.00    -0.322 N  
HETATM    3  C   UNL     1     -11.525  15.738  69.913  1.00  0.00    -0.346 C  
HETATM    4  C   UNL     1     -10.922  16.725  69.013  1.00  0.00    -0.239 C  
HETATM    5  O   UNL     1     -11.603  15.993  71.112  1.00  0.00    -0.401 OA 
HETATM    6  C   UNL     1     -10.671  16.490  67.710  1.00  0.00    -0.329 C  
HETATM    7  O   UNL     1     -12.408  13.352  67.463  1.00  0.00    -0.246 OA 
HETATM    8  N   UNL     1     -11.124  15.255  67.212  1.00  0.00    -0.332 N  
HETATM    9  C   UNL     1     -11.879  14.346  67.969  1.00  0.00    -0.325 C  
ENDROOT
BRANCH   6  10
HETATM   10  N   UNL     1      -9.981  17.489  66.962  1.00  0.00    -0.299 NA 
HETATM   11  N   UNL     1      -9.213  19.587  69.047  1.00  0.00    -0.322 NA 
HETATM   12  C   UNL     1     -10.549  18.323  65.895  1.00  0.00    -0.254 C  
HETATM   13  C   UNL     1     -10.634  19.783  66.327  1.00  0.00    -0.572 C  
HETATM   14  H2  UNL     1     -10.218  19.416  69.000  1.00  0.00     0.000 HD 
HETATM   15  H1  UNL     1      -8.758  18.996  69.743  1.00  0.00     0.000 HD 
HETATM   16  C   UNL     1      -9.251  20.311  66.690  1.00  0.00    -0.428 C  
HETATM   17  C   UNL     1      -8.588  17.936  67.270  1.00  0.00    -0.237 C  
HETATM   18  C   UNL     1      -8.565  19.420  67.737  1.00  0.00    -0.311 C  
ENDBRANCH   6  10
BRANCH   8  19
HETATM   19  C   UNL     1     -10.610  14.664  65.973  1.00  0.00    -0.309 C  
BRANCH  19  20
HETATM   20  C   UNL     1     -10.176  13.203  66.007  1.00  0.00    -0.287 A  
HETATM   21  C   UNL     1      -8.412  11.584  66.471  1.00  0.00    -0.160 A  
HETATM   22  C   UNL     1      -8.257  13.800  67.480  1.00  0.00    -0.188 C  
HETATM   23  N   UNL     1      -7.694  14.573  68.135  1.00  0.00    -0.117 NA 
HETATM   24  C   UNL     1      -8.971  12.856  66.660  1.00  0.00    -0.141 A  
HETATM   25  C   UNL     1      -9.044  10.650  65.651  1.00  0.00    -0.206 A  
HETATM   26  C   UNL     1     -10.275  10.953  65.075  1.00  0.00    -0.367 A  
HETATM   27  C   UNL     1     -10.855  12.207  65.279  1.00  0.00    -0.336 A  
ENDBRANCH  19  20
ENDBRANCH   8  19
TORSDOF 3
ENDMDL
MODEL       94
REMARK 921   NORMALIZED FREE ENERGY PREDICTED BY IDOCK:   -5.63 KCAL/MOL
REMARK 922        TOTAL FREE ENERGY PREDICTED BY IDOCK:   -6.93 KCAL/MOL
REMARK 923 INTER-LIGAND FREE ENERGY PREDICTED BY IDOCK:   -6.69 KCAL/MOL
REMARK 924 INTRA-LIGAND FREE ENERGY PREDICTED BY IDOCK:   -0.24 KCAL/MOL
REMARK 927      BINDING AFFINITY PREDICTED BY RF-SCORE:    0.00 PKD
ROOT
HETATM    1  C   UNL     1      -7.366   7.372  68.781  1.00  0.00    -0.095 C  
HETATM    2  N   UNL     1      -8.205   8.517  68.486  1.00  0.00    -0.122 N  
HETATM    3  C   UNL     1      -8.499   8.812  67.183  1.00  0.00    -0.110 C  
HETATM    4  C   UNL     1      -9.455   9.904  66.973  1.00  0.00    -0.196 C  
HETATM    5  O   UNL     1      -8.033   8.232  66.206  1.00  0.00    -0.095 OA 
HETATM    6  C   UNL     1     -10.121  10.514  67.973  1.00  0.00    -0.165 C  
HETATM    7  O   UNL     1      -8.327   9.014  70.705  1.00  0.00    -0.148 OA 
HETATM    8  N   UNL     1      -9.769  10.116  69.276  1.00  0.00    -0.213 N  
HETATM    9  C   UNL     1      -8.727   9.217  69.554  1.00  0.00    -0.146 C  
ENDROOT
BRANCH   6  10
HETATM   10  N   UNL     1     -11.106  11.488  67.636  1.00  0.00    -0.247 NA 
HETATM   11  N   UNL     1      -9.563  13.595  66.049  1.00  0.00    -0.466 NA 
HETATM   12  C   UNL     1     -11.862  12.321  68.581  1.00  0.00    -0.305 C  
HETATM   13  C   UNL     1     -11.463  13.787  68.459  1.00  0.00    -0.342 C  
HETATM   14  H2  UNL     1      -9.190  13.445  66.986  1.00  0.00     0.000 HD 
HETATM   15  H1  UNL     1      -9.104  13.002  65.356  1.00  0.00     0.000 HD 
HETATM   16  C   UNL     1     -11.711  14.290  67.041  1.00  0.00    -0.427 C  
HETATM   17  C   UNL     1     -11.407  11.908  66.234  1.00  0.00    -0.334 C  
HETATM   18  C   UNL     1     -11.020  13.397  65.999  1.00  0.00    -0.271 C  
ENDBRANCH   6  10
BRANCH   8  19
HETATM   19  C   UNL     1     -10.629  10.356  70.437  1.00  0.00    -0.041 C  
BRANCH  19  20
HETATM   20  C   UNL     1     -11.755   9.364  70.707  1.00  0.00    -0.349 A  
HETATM   21  C   UNL     1     -13.817   8.859  71.909  1.00  0.00    -0.492 A  
HETATM   22  C   UNL     1     -13.142  11.192  71.678  1.00  0.00    -0.424 C  
HETATM   23  N   UNL     1     -13.317  12.318  71.889  1.00  0.00    -0.423 NA 
HETATM   24  C   UNL     1     -12.904   9.798  71.408  1.00  0.00    -0.489 A  
HETATM   25  C   UNL     1     -13.607   7.495  71.710  1.00  0.00    -0.397 A  
HETATM   26  C   UNL     1     -12.525   7.064  70.947  1.00  0.00    -0.319 A  
HETATM   27  C   UNL     1     -11.624   7.992  70.420  1.00  0.00    -0.075 A  
ENDBRANCH  19  20
ENDBRANCH   8  19
TORSDOF 3
ENDMDL
MODEL       95
REMARK 921   NORMALIZED FREE ENERGY PREDICTED BY IDOCK:   -5.62 KCAL/MOL
REMARK 922        TOTAL FREE ENERGY PREDICTED BY IDOCK:   -6.92 KCAL/MOL
REMARK 923 INTER-LIGAND FREE ENERGY PREDICTED BY IDOCK:   -5.99 KCAL/MOL
REMARK 924 INTRA-LIGAND FREE ENERGY PREDICTED BY IDOCK:   -0.93 KCAL/MOL
REMARK 927      BINDING AFFINITY PREDICTED BY RF-SCORE:    0.00 PKD
ROOT
HETATM    1  C   UNL     1     -11.561  12.257  66.055  1.00  0.00    -0.393 C  
HETATM    2  N   UNL     1     -11.118  11.296  67.048  1.00  0.00    -0.298 N  
HETATM    3  C   UNL     1     -11.446  11.492  68.361  1.00  0.00    -0.298 C  
HETATM    4  C   UNL     1     -11.073  10.415  69.283  1.00  0.00    -0.303 C  
HETATM    5  O   UNL     1     -12.022  12.482  68.804  1.00  0.00    -0.310 OA 
HETATM    6  C   UNL     1     -10.559   9.236  68.881  1.00  0.00    -0.199 C  
HETATM    7  O   UNL     1     -10.038  10.109  65.432  1.00  0.00    -0.303 OA 
HETATM    8  N   UNL     1     -10.289   9.122  67.505  1.00  0.00    -0.245 N  
HETATM    9  C   UNL     1     -10.440  10.182  66.598  1.00  0.00    -0.185 C  
ENDROOT
BRANCH   6  10
HETATM   10  N   UNL     1     -10.339   8.223  69.861  1.00  0.00    -0.213 NA 
HETATM   11  N   UNL     1     -13.043   7.932  71.255  1.00  0.00    -0.518 NA 
HETATM   12  C   UNL     1      -9.421   8.307  71.004  1.00  0.00    -0.161 C  
HETATM   13  C   UNL     1     -10.188   8.351  72.321  1.00  0.00    -0.396 C  
HETATM   14  H2  UNL     1     -12.666   8.879  71.302  1.00  0.00     0.000 HD 
HETATM   15  H1  UNL     1     -13.652   7.804  70.447  1.00  0.00     0.000 HD 
HETATM   16  C   UNL     1     -11.060   7.110  72.470  1.00  0.00    -0.317 C  
HETATM   17  C   UNL     1     -11.140   6.964  69.943  1.00  0.00    -0.288 C  
HETATM   18  C   UNL     1     -11.978   6.916  71.253  1.00  0.00    -0.356 C  
ENDBRANCH   6  10
BRANCH   8  19
HETATM   19  C   UNL     1     -10.116   7.830  66.837  1.00  0.00    -0.286 C  
BRANCH  19  20
HETATM   20  C   UNL     1      -8.731   7.192  66.866  1.00  0.00    -0.126 A  
HETATM   21  C   UNL     1      -7.400   5.148  66.878  1.00  0.00    -0.086 A  
HETATM   22  C   UNL     1      -9.699   5.039  66.067  1.00  0.00    -0.180 C  
HETATM   23  N   UNL     1     -10.593   4.432  65.649  1.00  0.00    -0.222 NA 
HETATM   24  C   UNL     1      -8.601   5.811  66.590  1.00  0.00    -0.118 A  
HETATM   25  C   UNL     1      -6.323   5.844  67.425  1.00  0.00    -0.042 A  
HETATM   26  C   UNL     1      -6.413   7.220  67.619  1.00  0.00    -0.052 A  
HETATM   27  C   UNL     1      -7.595   7.896  67.310  1.00  0.00    -0.101 A  
ENDBRANCH  19  20
ENDBRANCH   8  19
TORSDOF 3
ENDMDL
MODEL       96
REMARK 921   NORMALIZED FREE ENERGY PREDICTED BY IDOCK:   -5.60 KCAL/MOL
REMARK 922        TOTAL FREE ENERGY PREDICTED BY IDOCK:   -6.90 KCAL/MOL
REMARK 923 INTER-LIGAND FREE ENERGY PREDICTED BY IDOCK:   -5.84 KCAL/MOL
REMARK 924 INTRA-LIGAND FREE ENERGY PREDICTED BY IDOCK:   -1.06 KCAL/MOL
REMARK 927      BINDING AFFINITY PREDICTED BY RF-SCORE:    0.00 PKD
ROOT
HETATM    1  C   UNL     1      -7.878   8.093  63.055  1.00  0.00    -0.148 C  
HETATM    2  N   UNL     1      -8.204   9.012  64.129  1.00  0.00    -0.158 N  
HETATM    3  C   UNL     1      -9.069  10.043  63.887  1.00  0.00    -0.259 C  
HETATM    4  C   UNL     1      -9.447  10.849  65.052  1.00  0.00    -0.274 C  
HETATM    5  O   UNL     1      -9.543  10.323  62.789  1.00  0.00    -0.315 OA 
HETATM    6  C   UNL     1      -9.090  10.546  66.315  1.00  0.00    -0.164 C  
HETATM    7  O   UNL     1      -6.783   7.904  65.522  1.00  0.00    -0.045 OA 
HETATM    8  N   UNL     1      -8.223   9.447  66.460  1.00  0.00    -0.114 N  
HETATM    9  C   UNL     1      -7.669   8.751  65.374  1.00  0.00    -0.089 C  
ENDROOT
BRANCH   6  10
HETATM   10  N   UNL     1      -9.609  11.344  67.376  1.00  0.00    -0.173 NA 
HETATM   11  N   UNL     1     -12.203  12.497  66.243  1.00  0.00    -0.584 NA 
HETATM   12  C   UNL     1      -8.979  12.539  67.953  1.00  0.00    -0.188 C  
HETATM   13  C   UNL     1      -9.783  13.793  67.630  1.00  0.00    -0.227 C  
HETATM   14  H2  UNL     1     -11.382  12.733  65.687  1.00  0.00     0.000 HD 
HETATM   15  H1  UNL     1     -12.655  11.642  65.915  1.00  0.00     0.000 HD 
HETATM   16  C   UNL     1     -11.204  13.667  68.170  1.00  0.00    -0.303 C  
HETATM   17  C   UNL     1     -10.971  11.154  67.963  1.00  0.00    -0.252 C  
HETATM   18  C   UNL     1     -11.883  12.381  67.675  1.00  0.00    -0.295 C  
ENDBRANCH   6  10
BRANCH   8  19
HETATM   19  C   UNL     1      -8.051   8.737  67.730  1.00  0.00    -0.107 C  
BRANCH  19  20
HETATM   20  C   UNL     1      -9.256   8.000  68.303  1.00  0.00    -0.134 A  
HETATM   21  C   UNL     1     -10.359   7.061  70.266  1.00  0.00    -0.219 A  
HETATM   22  C   UNL     1      -8.637   8.758  70.595  1.00  0.00    -0.178 C  
HETATM   23  N   UNL     1      -7.987   9.413  71.296  1.00  0.00    -0.301 NA 
HETATM   24  C   UNL     1      -9.433   7.951  69.706  1.00  0.00    -0.163 A  
HETATM   25  C   UNL     1     -11.122   6.228  69.448  1.00  0.00    -0.477 A  
HETATM   26  C   UNL     1     -11.017   6.332  68.063  1.00  0.00    -0.418 A  
HETATM   27  C   UNL     1     -10.117   7.235  67.493  1.00  0.00    -0.250 A  
ENDBRANCH  19  20
ENDBRANCH   8  19
TORSDOF 3
ENDMDL
MODEL       97
REMARK 921   NORMALIZED FREE ENERGY PREDICTED BY IDOCK:   -5.57 KCAL/MOL
REMARK 922        TOTAL FREE ENERGY PREDICTED BY IDOCK:   -6.86 KCAL/MOL
REMARK 923 INTER-LIGAND FREE ENERGY PREDICTED BY IDOCK:   -6.01 KCAL/MOL
REMARK 924 INTRA-LIGAND FREE ENERGY PREDICTED BY IDOCK:   -0.85 KCAL/MOL
REMARK 927      BINDING AFFINITY PREDICTED BY RF-SCORE:    0.00 PKD
ROOT
HETATM    1  C   UNL     1      -5.417  12.817  69.181  1.00  0.00    -0.070 C  
HETATM    2  N   UNL     1      -6.554  11.921  69.091  1.00  0.00    -0.096 N  
HETATM    3  C   UNL     1      -6.619  10.837  69.922  1.00  0.00    -0.149 C  
HETATM    4  C   UNL     1      -7.856  10.054  69.859  1.00  0.00    -0.185 C  
HETATM    5  O   UNL     1      -5.733  10.491  70.700  1.00  0.00    -0.082 OA 
HETATM    6  C   UNL     1      -8.935  10.421  69.139  1.00  0.00    -0.179 C  
HETATM    7  O   UNL     1      -7.403  13.155  67.376  1.00  0.00    -0.151 OA 
HETATM    8  N   UNL     1      -8.777  11.571  68.343  1.00  0.00    -0.158 N  
HETATM    9  C   UNL     1      -7.559  12.255  68.207  1.00  0.00    -0.133 C  
ENDROOT
BRANCH   6  10
HETATM   10  N   UNL     1     -10.119   9.636  69.244  1.00  0.00    -0.183 NA 
HETATM   11  N   UNL     1     -10.146   8.707  72.156  1.00  0.00    -0.320 NA 
HETATM   12  C   UNL     1     -10.396   8.383  68.529  1.00  0.00    -0.200 C  
HETATM   13  C   UNL     1     -10.435   7.200  69.491  1.00  0.00    -0.236 C  
HETATM   14  H2  UNL     1      -9.304   8.427  71.653  1.00  0.00     0.000 HD 
HETATM   15  H1  UNL     1     -10.024   9.601  72.634  1.00  0.00     0.000 HD 
HETATM   16  C   UNL     1     -11.505   7.415  70.555  1.00  0.00    -0.281 C  
HETATM   17  C   UNL     1     -11.208   9.909  70.231  1.00  0.00    -0.301 C  
HETATM   18  C   UNL     1     -11.323   8.760  71.274  1.00  0.00    -0.291 C  
ENDBRANCH   6  10
BRANCH   8  19
HETATM   19  C   UNL     1      -9.913  12.335  67.822  1.00  0.00    -0.200 C  
BRANCH  19  20
HETATM   20  C   UNL     1     -10.162  12.307  66.318  1.00  0.00    -0.251 A  
HETATM   21  C   UNL     1     -11.090  13.425  64.359  1.00  0.00    -0.408 A  
HETATM   22  C   UNL     1     -10.591  14.762  66.338  1.00  0.00    -0.300 C  
HETATM   23  N   UNL     1     -10.586  15.779  66.893  1.00  0.00    -0.317 NA 
HETATM   24  C   UNL     1     -10.593  13.487  65.668  1.00  0.00    -0.284 A  
HETATM   25  C   UNL     1     -11.152  12.206  63.684  1.00  0.00    -0.528 A  
HETATM   26  C   UNL     1     -10.648  11.055  64.285  1.00  0.00    -0.402 A  
HETATM   27  C   UNL     1     -10.125  11.110  65.578  1.00  0.00    -0.309 A  
ENDBRANCH  19  20
ENDBRANCH   8  19
TORSDOF 3
ENDMDL
MODEL       98
REMARK 921   NORMALIZED FREE ENERGY PREDICTED BY IDOCK:   -5.56 KCAL/MOL
REMARK 922        TOTAL FREE ENERGY PREDICTED BY IDOCK:   -6.85 KCAL/MOL
REMARK 923 INTER-LIGAND FREE ENERGY PREDICTED BY IDOCK:   -6.87 KCAL/MOL
REMARK 924 INTRA-LIGAND FREE ENERGY PREDICTED BY IDOCK:    0.02 KCAL/MOL
REMARK 927      BINDING AFFINITY PREDICTED BY RF-SCORE:    0.00 PKD
ROOT
HETATM    1  C   UNL     1     -12.422  12.974  63.490  1.00  0.00    -0.300 C  
HETATM    2  N   UNL     1     -11.451  12.446  64.429  1.00  0.00    -0.329 N  
HETATM    3  C   UNL     1     -10.545  11.515  64.000  1.00  0.00    -0.379 C  
HETATM    4  C   UNL     1      -9.518  11.126  64.971  1.00  0.00    -0.259 C  
HETATM    5  O   UNL     1     -10.532  11.005  62.883  1.00  0.00    -0.154 OA 
HETATM    6  C   UNL     1      -9.364  11.719  66.171  1.00  0.00    -0.225 C  
HETATM    7  O   UNL     1     -12.367  13.696  66.097  1.00  0.00    -0.431 OA 
HETATM    8  N   UNL     1     -10.330  12.688  66.504  1.00  0.00    -0.239 N  
HETATM    9  C   UNL     1     -11.449  12.969  65.705  1.00  0.00    -0.332 C  
ENDROOT
BRANCH   6  10
HETATM   10  N   UNL     1      -8.260  11.329  66.984  1.00  0.00    -0.145 NA 
HETATM   11  N   UNL     1      -9.526  10.626  69.676  1.00  0.00    -0.419 NA 
HETATM   12  C   UNL     1      -7.139  12.184  67.396  1.00  0.00    -0.146 C  
HETATM   13  C   UNL     1      -7.176  12.450  68.897  1.00  0.00    -0.061 C  
HETATM   14  H2  UNL     1      -9.720  11.582  69.378  1.00  0.00     0.000 HD 
HETATM   15  H1  UNL     1     -10.253   9.977  69.372  1.00  0.00     0.000 HD 
HETATM   16  C   UNL     1      -7.114  11.139  69.671  1.00  0.00    -0.050 C  
HETATM   17  C   UNL     1      -8.165  10.002  67.667  1.00  0.00    -0.114 C  
HETATM   18  C   UNL     1      -8.208  10.162  69.214  1.00  0.00    -0.156 C  
ENDBRANCH   6  10
BRANCH   8  19
HETATM   19  C   UNL     1     -10.114  13.694  67.546  1.00  0.00    -0.237 C  
BRANCH  19  20
HETATM   20  C   UNL     1     -11.161  13.814  68.649  1.00  0.00    -0.293 A  
HETATM   21  C   UNL     1     -12.317  15.245  70.251  1.00  0.00    -0.407 A  
HETATM   22  C   UNL     1     -11.212  16.286  68.340  1.00  0.00    -0.349 C  
HETATM   23  N   UNL     1     -10.908  17.232  67.743  1.00  0.00    -0.321 NA 
HETATM   24  C   UNL     1     -11.577  15.099  69.068  1.00  0.00    -0.350 A  
HETATM   25  C   UNL     1     -12.657  14.129  71.013  1.00  0.00    -0.439 A  
HETATM   26  C   UNL     1     -12.326  12.854  70.562  1.00  0.00    -0.362 A  
HETATM   27  C   UNL     1     -11.614  12.694  69.372  1.00  0.00    -0.369 A  
ENDBRANCH  19  20
ENDBRANCH   8  19
TORSDOF 3
ENDMDL
MODEL       99
REMARK 921   NORMALIZED FREE ENERGY PREDICTED BY IDOCK:   -5.55 KCAL/MOL
REMARK 922        TOTAL FREE ENERGY PREDICTED BY IDOCK:   -6.84 KCAL/MOL
REMARK 923 INTER-LIGAND FREE ENERGY PREDICTED BY IDOCK:   -6.76 KCAL/MOL
REMARK 924 INTRA-LIGAND FREE ENERGY PREDICTED BY IDOCK:   -0.08 KCAL/MOL
REMARK 927      BINDING AFFINITY PREDICTED BY RF-SCORE:    0.00 PKD
ROOT
HETATM    1  C   UNL     1     -10.356  11.219  64.855  1.00  0.00    -0.304 C  
HETATM    2  N   UNL     1     -10.500  11.108  66.295  1.00  0.00    -0.253 N  
HETATM    3  C   UNL     1     -11.574  11.696  66.906  1.00  0.00    -0.167 C  
HETATM    4  C   UNL     1     -11.718  11.432  68.341  1.00  0.00    -0.373 C  
HETATM    5  O   UNL     1     -12.405  12.404  66.344  1.00  0.00    -0.539 OA 
HETATM    6  C   UNL     1     -10.939  10.567  69.021  1.00  0.00    -0.243 C  
HETATM    7  O   UNL     1      -8.541   9.954  66.413  1.00  0.00    -0.127 OA 
HETATM    8  N   UNL     1      -9.882   9.990  68.292  1.00  0.00    -0.144 N  
HETATM    9  C   UNL     1      -9.571  10.346  66.971  1.00  0.00    -0.166 C  
ENDROOT
BRANCH   6  10
HETATM   10  N   UNL     1     -11.246  10.311  70.390  1.00  0.00    -0.315 NA 
HETATM   11  N   UNL     1     -12.314   7.447  70.394  1.00  0.00    -0.512 NA 
HETATM   12  C   UNL     1     -12.255  11.008  71.198  1.00  0.00    -0.310 C  
HETATM   13  C   UNL     1     -13.411  10.077  71.552  1.00  0.00    -0.451 C  
HETATM   14  H2  UNL     1     -12.843   8.073  69.787  1.00  0.00     0.000 HD 
HETATM   15  H1  UNL     1     -11.564   6.972  69.892  1.00  0.00     0.000 HD 
HETATM   16  C   UNL     1     -12.901   8.866  72.324  1.00  0.00    -0.475 C  
HETATM   17  C   UNL     1     -10.669   9.172  71.167  1.00  0.00    -0.310 C  
HETATM   18  C   UNL     1     -11.772   8.150  71.568  1.00  0.00    -0.286 C  
ENDBRANCH   6  10
BRANCH   8  19
HETATM   19  C   UNL     1      -9.200   8.767  68.722  1.00  0.00    -0.141 C  
BRANCH  19  20
HETATM   20  C   UNL     1      -9.790   7.430  68.286  1.00  0.00    -0.173 A  
HETATM   21  C   UNL     1      -9.672   4.996  68.372  1.00  0.00    -0.209 A  
HETATM   22  C   UNL     1      -8.560   6.281  70.123  1.00  0.00    -0.134 C  
HETATM   23  N   UNL     1      -7.911   6.328  71.082  1.00  0.00    -0.114 NA 
HETATM   24  C   UNL     1      -9.363   6.245  68.928  1.00  0.00    -0.128 A  
HETATM   25  C   UNL     1     -10.411   4.911  67.193  1.00  0.00    -0.181 A  
HETATM   26  C   UNL     1     -10.909   6.069  66.602  1.00  0.00    -0.289 A  
HETATM   27  C   UNL     1     -10.631   7.318  67.162  1.00  0.00    -0.416 A  
ENDBRANCH  19  20
ENDBRANCH   8  19
TORSDOF 3
ENDMDL
MODEL      100
REMARK 921   NORMALIZED FREE ENERGY PREDICTED BY IDOCK:   -5.54 KCAL/MOL
REMARK 922        TOTAL FREE ENERGY PREDICTED BY IDOCK:   -6.83 KCAL/MOL
REMARK 923 INTER-LIGAND FREE ENERGY PREDICTED BY IDOCK:   -6.11 KCAL/MOL
REMARK 924 INTRA-LIGAND FREE ENERGY PREDICTED BY IDOCK:   -0.72 KCAL/MOL
REMARK 927      BINDING AFFINITY PREDICTED BY RF-SCORE:    0.00 PKD
ROOT
HETATM    1  C   UNL     1     -11.800  14.708  70.987  1.00  0.00    -0.322 C  
HETATM    2  N   UNL     1     -11.738  14.453  69.560  1.00  0.00    -0.293 N  
HETATM    3  C   UNL     1     -11.481  15.490  68.706  1.00  0.00    -0.355 C  
HETATM    4  C   UNL     1     -11.307  15.131  67.296  1.00  0.00    -0.305 C  
HETATM    5  O   UNL     1     -11.382  16.669  69.038  1.00  0.00    -0.238 OA 
HETATM    6  C   UNL     1     -11.266  13.860  66.850  1.00  0.00    -0.312 C  
HETATM    7  O   UNL     1     -12.248  12.263  69.919  1.00  0.00    -0.250 OA 
HETATM    8  N   UNL     1     -11.511  12.864  67.815  1.00  0.00    -0.301 N  
HETATM    9  C   UNL     1     -11.875  13.146  69.140  1.00  0.00    -0.314 C  
ENDROOT
BRANCH   6  10
HETATM   10  N   UNL     1     -10.982  13.633  65.472  1.00  0.00    -0.289 NA 
HETATM   11  N   UNL     1     -13.314  11.913  64.500  1.00  0.00    -0.160 NA 
HETATM   12  C   UNL     1      -9.827  12.903  64.932  1.00  0.00    -0.026 C  
HETATM   13  C   UNL     1     -10.263  11.597  64.276  1.00  0.00    -0.357 C  
HETATM   14  H2  UNL     1     -12.802  11.494  65.276  1.00  0.00     0.000 HD 
HETATM   15  H1  UNL     1     -14.102  12.475  64.823  1.00  0.00     0.000 HD 
HETATM   16  C   UNL     1     -11.252  11.872  63.148  1.00  0.00    -0.248 C  
HETATM   17  C   UNL     1     -11.920  13.991  64.365  1.00  0.00    -0.454 C  
HETATM   18  C   UNL     1     -12.439  12.719  63.634  1.00  0.00    -0.389 C  
ENDBRANCH   6  10
BRANCH   8  19
HETATM   19  C   UNL     1     -11.124  11.464  67.623  1.00  0.00    -0.268 C  
BRANCH  19  20
HETATM   20  C   UNL     1      -9.667  11.087  67.869  1.00  0.00    -0.183 A  
HETATM   21  C   UNL     1      -8.033   9.323  68.281  1.00  0.00    -0.102 A  
HETATM   22  C   UNL     1     -10.174   8.720  67.278  1.00  0.00    -0.263 C  
HETATM   23  N   UNL     1     -10.904   7.921  66.862  1.00  0.00    -0.173 NA 
HETATM   24  C   UNL     1      -9.284   9.728  67.794  1.00  0.00    -0.141 A  
HETATM   25  C   UNL     1      -7.154  10.256  68.829  1.00  0.00    -0.072 A  
HETATM   26  C   UNL     1      -7.488  11.608  68.827  1.00  0.00    -0.114 A  
HETATM   27  C   UNL     1      -8.720  12.026  68.319  1.00  0.00    -0.178 A  
ENDBRANCH  19  20
ENDBRANCH   8  19
TORSDOF 3
ENDMDL
MODEL      101
REMARK 921   NORMALIZED FREE ENERGY PREDICTED BY IDOCK:   -5.53 KCAL/MOL
REMARK 922        TOTAL FREE ENERGY PREDICTED BY IDOCK:   -6.82 KCAL/MOL
REMARK 923 INTER-LIGAND FREE ENERGY PREDICTED BY IDOCK:   -5.98 KCAL/MOL
REMARK 924 INTRA-LIGAND FREE ENERGY PREDICTED BY IDOCK:   -0.84 KCAL/MOL
REMARK 927      BINDING AFFINITY PREDICTED BY RF-SCORE:    0.00 PKD
ROOT
HETATM    1  C   UNL     1     -12.281  13.803  68.723  1.00  0.00    -0.186 C  
HETATM    2  N   UNL     1     -11.708  12.541  69.152  1.00  0.00    -0.309 N  
HETATM    3  C   UNL     1     -12.061  12.026  70.369  1.00  0.00    -0.321 C  
HETATM    4  C   UNL     1     -11.541  10.690  70.675  1.00  0.00    -0.432 C  
HETATM    5  O   UNL     1     -12.771  12.593  71.195  1.00  0.00    -0.358 OA 
HETATM    6  C   UNL     1     -10.865   9.933  69.788  1.00  0.00    -0.269 C  
HETATM    7  O   UNL     1     -10.470  12.443  67.243  1.00  0.00    -0.220 OA 
HETATM    8  N   UNL     1     -10.581  10.543  68.552  1.00  0.00    -0.192 N  
HETATM    9  C   UNL     1     -10.879  11.884  68.266  1.00  0.00    -0.224 C  
ENDROOT
BRANCH   6  10
HETATM   10  N   UNL     1     -10.505   8.606  70.165  1.00  0.00    -0.211 NA 
HETATM   11  N   UNL     1     -13.122   7.374  71.152  1.00  0.00    -0.574 NA 
HETATM   12  C   UNL     1      -9.575   8.231  71.238  1.00  0.00    -0.171 C  
HETATM   13  C   UNL     1     -10.310   7.547  72.386  1.00  0.00    -0.277 C  
HETATM   14  H2  UNL     1     -12.857   8.216  71.663  1.00  0.00     0.000 HD 
HETATM   15  H1  UNL     1     -13.732   7.584  70.362  1.00  0.00     0.000 HD 
HETATM   16  C   UNL     1     -11.029   6.298  71.888  1.00  0.00    -0.302 C  
HETATM   17  C   UNL     1     -11.153   7.382  69.603  1.00  0.00    -0.111 C  
HETATM   18  C   UNL     1     -11.947   6.613  70.698  1.00  0.00    -0.343 C  
ENDBRANCH   6  10
BRANCH   8  19
HETATM   19  C   UNL     1     -10.226   9.778  67.354  1.00  0.00    -0.230 C  
BRANCH  19  20
HETATM   20  C   UNL     1      -8.769   9.788  66.907  1.00  0.00    -0.143 A  
HETATM   21  C   UNL     1      -7.178   9.793  65.058  1.00  0.00    -0.127 A  
HETATM   22  C   UNL     1      -9.468  10.519  64.629  1.00  0.00    -0.263 C  
HETATM   23  N   UNL     1     -10.287  10.895  63.900  1.00  0.00    -0.356 NA 
HETATM   24  C   UNL     1      -8.465  10.048  65.550  1.00  0.00    -0.155 A  
HETATM   25  C   UNL     1      -6.185   9.296  65.902  1.00  0.00    -0.056 A  
HETATM   26  C   UNL     1      -6.451   9.121  67.257  1.00  0.00    -0.060 A  
HETATM   27  C   UNL     1      -7.722   9.397  67.764  1.00  0.00    -0.088 A  
ENDBRANCH  19  20
ENDBRANCH   8  19
TORSDOF 3
ENDMDL
MODEL      102
REMARK 921   NORMALIZED FREE ENERGY PREDICTED BY IDOCK:   -5.52 KCAL/MOL
REMARK 922        TOTAL FREE ENERGY PREDICTED BY IDOCK:   -6.81 KCAL/MOL
REMARK 923 INTER-LIGAND FREE ENERGY PREDICTED BY IDOCK:   -5.65 KCAL/MOL
REMARK 924 INTRA-LIGAND FREE ENERGY PREDICTED BY IDOCK:   -1.15 KCAL/MOL
REMARK 927      BINDING AFFINITY PREDICTED BY RF-SCORE:    0.00 PKD
ROOT
HETATM    1  C   UNL     1     -10.935  11.628  69.060  1.00  0.00    -0.233 C  
HETATM    2  N   UNL     1     -10.840  10.567  70.045  1.00  0.00    -0.279 N  
HETATM    3  C   UNL     1     -11.858  10.393  70.942  1.00  0.00    -0.377 C  
HETATM    4  C   UNL     1     -11.748   9.224  71.818  1.00  0.00    -0.456 C  
HETATM    5  O   UNL     1     -12.835  11.130  71.051  1.00  0.00    -0.359 OA 
HETATM    6  C   UNL     1     -10.789   8.286  71.691  1.00  0.00    -0.256 C  
HETATM    7  O   UNL     1      -8.780  10.005  69.254  1.00  0.00    -0.151 OA 
HETATM    8  N   UNL     1      -9.806   8.542  70.716  1.00  0.00    -0.175 N  
HETATM    9  C   UNL     1      -9.743   9.733  69.978  1.00  0.00    -0.250 C  
ENDROOT
BRANCH   6  10
HETATM   10  N   UNL     1     -10.849   7.136  72.532  1.00  0.00    -0.248 NA 
HETATM   11  N   UNL     1      -7.929   6.294  72.859  1.00  0.00    -0.104 NA 
HETATM   12  C   UNL     1     -11.495   5.857  72.209  1.00  0.00    -0.297 C  
HETATM   13  C   UNL     1     -10.461   4.747  72.047  1.00  0.00    -0.225 C  
HETATM   14  H2  UNL     1      -8.234   6.319  71.886  1.00  0.00     0.000 HD 
HETATM   15  H1  UNL     1      -7.516   7.180  73.152  1.00  0.00     0.000 HD 
HETATM   16  C   UNL     1      -9.647   4.588  73.327  1.00  0.00    -0.144 C  
HETATM   17  C   UNL     1     -10.120   7.024  73.832  1.00  0.00    -0.348 C  
HETATM   18  C   UNL     1      -9.024   5.921  73.768  1.00  0.00    -0.127 C  
ENDBRANCH   6  10
BRANCH   8  19
HETATM   19  C   UNL     1      -8.944   7.492  70.167  1.00  0.00    -0.147 C  
BRANCH  19  20
HETATM   20  C   UNL     1      -9.516   6.602  69.069  1.00  0.00    -0.131 A  
HETATM   21  C   UNL     1      -9.196   4.696  67.581  1.00  0.00    -0.148 A  
HETATM   22  C   UNL     1      -7.807   4.863  69.580  1.00  0.00    -0.067 C  
HETATM   23  N   UNL     1      -6.958   4.454  70.255  1.00  0.00    -0.037 NA 
HETATM   24  C   UNL     1      -8.862   5.389  68.753  1.00  0.00    -0.107 A  
HETATM   25  C   UNL     1     -10.181   5.189  66.726  1.00  0.00    -0.289 A  
HETATM   26  C   UNL     1     -10.890   6.336  67.074  1.00  0.00    -0.458 A  
HETATM   27  C   UNL     1     -10.585   7.019  68.253  1.00  0.00    -0.238 A  
ENDBRANCH  19  20
ENDBRANCH   8  19
TORSDOF 3
ENDMDL
MODEL      103
REMARK 921   NORMALIZED FREE ENERGY PREDICTED BY IDOCK:   -5.51 KCAL/MOL
REMARK 922        TOTAL FREE ENERGY PREDICTED BY IDOCK:   -6.80 KCAL/MOL
REMARK 923 INTER-LIGAND FREE ENERGY PREDICTED BY IDOCK:   -5.85 KCAL/MOL
REMARK 924 INTRA-LIGAND FREE ENERGY PREDICTED BY IDOCK:   -0.95 KCAL/MOL
REMARK 927      BINDING AFFINITY PREDICTED BY RF-SCORE:    0.00 PKD
ROOT
HETATM    1  C   UNL     1     -12.140  11.063  69.708  1.00  0.00    -0.353 C  
HETATM    2  N   UNL     1     -10.888  11.009  68.977  1.00  0.00    -0.214 N  
HETATM    3  C   UNL     1     -10.256   9.806  68.822  1.00  0.00    -0.194 C  
HETATM    4  C   UNL     1      -9.067   9.812  67.964  1.00  0.00    -0.127 C  
HETATM    5  O   UNL     1     -10.615   8.749  69.334  1.00  0.00    -0.225 OA 
HETATM    6  C   UNL     1      -8.668  10.885  67.253  1.00  0.00    -0.131 C  
HETATM    7  O   UNL     1     -10.946  13.267  68.688  1.00  0.00    -0.248 OA 
HETATM    8  N   UNL     1      -9.405  12.066  67.458  1.00  0.00    -0.175 N  
HETATM    9  C   UNL     1     -10.431  12.180  68.408  1.00  0.00    -0.231 C  
ENDROOT
BRANCH   6  10
HETATM   10  N   UNL     1      -7.559  10.737  66.369  1.00  0.00    -0.137 NA 
HETATM   11  N   UNL     1      -7.263   7.713  66.040  1.00  0.00    -0.069 NA 
HETATM   12  C   UNL     1      -6.173  11.145  66.638  1.00  0.00    -0.136 C  
HETATM   13  C   UNL     1      -5.260   9.931  66.769  1.00  0.00    -0.041 C  
HETATM   14  H2  UNL     1      -7.196   8.020  67.011  1.00  0.00     0.000 HD 
HETATM   15  H1  UNL     1      -8.218   7.463  65.784  1.00  0.00     0.000 HD 
HETATM   16  C   UNL     1      -5.297   9.098  65.493  1.00  0.00    -0.037 C  
HETATM   17  C   UNL     1      -7.628   9.996  65.073  1.00  0.00    -0.139 C  
HETATM   18  C   UNL     1      -6.735   8.721  65.107  1.00  0.00    -0.064 C  
ENDBRANCH   6  10
BRANCH   8  19
HETATM   19  C   UNL     1      -9.384  13.186  66.514  1.00  0.00    -0.216 C  
BRANCH  19  20
HETATM   20  C   UNL     1     -10.348  13.141  65.333  1.00  0.00    -0.313 A  
HETATM   21  C   UNL     1     -12.160  14.217  64.107  1.00  0.00    -0.437 A  
HETATM   22  C   UNL     1     -10.781  15.582  65.586  1.00  0.00    -0.366 C  
HETATM   23  N   UNL     1     -10.529  16.603  66.073  1.00  0.00    -0.321 NA 
HETATM   24  C   UNL     1     -11.079  14.303  64.995  1.00  0.00    -0.377 A  
HETATM   25  C   UNL     1     -12.515  12.993  63.542  1.00  0.00    -0.388 A  
HETATM   26  C   UNL     1     -11.746  11.861  63.802  1.00  0.00    -0.554 A  
HETATM   27  C   UNL     1     -10.650  11.940  64.664  1.00  0.00    -0.353 A  
ENDBRANCH  19  20
ENDBRANCH   8  19
TORSDOF 3
ENDMDL
MODEL      104
REMARK 921   NORMALIZED FREE ENERGY PREDICTED BY IDOCK:   -5.50 KCAL/MOL
REMARK 922        TOTAL FREE ENERGY PREDICTED BY IDOCK:   -6.78 KCAL/MOL
REMARK 923 INTER-LIGAND FREE ENERGY PREDICTED BY IDOCK:   -6.08 KCAL/MOL
REMARK 924 INTRA-LIGAND FREE ENERGY PREDICTED BY IDOCK:   -0.70 KCAL/MOL
REMARK 927      BINDING AFFINITY PREDICTED BY RF-SCORE:    0.00 PKD
ROOT
HETATM    1  C   UNL     1      -7.810   8.144  64.788  1.00  0.00    -0.137 C  
HETATM    2  N   UNL     1      -8.676   8.036  65.947  1.00  0.00    -0.154 N  
HETATM    3  C   UNL     1      -8.344   7.168  66.951  1.00  0.00    -0.118 C  
HETATM    4  C   UNL     1      -9.198   7.210  68.142  1.00  0.00    -0.131 C  
HETATM    5  O   UNL     1      -7.399   6.384  66.921  1.00  0.00    -0.076 OA 
HETATM    6  C   UNL     1     -10.174   8.120  68.327  1.00  0.00    -0.206 C  
HETATM    7  O   UNL     1     -10.115   9.541  65.025  1.00  0.00    -0.024 OA 
HETATM    8  N   UNL     1     -10.415   8.989  67.247  1.00  0.00    -0.276 N  
HETATM    9  C   UNL     1      -9.767   8.878  66.007  1.00  0.00    -0.238 C  
ENDROOT
BRANCH   6  10
HETATM   10  N   UNL     1     -10.864   8.129  69.575  1.00  0.00    -0.175 NA 
HETATM   11  N   UNL     1      -8.711   8.864  71.615  1.00  0.00    -0.336 NA 
HETATM   12  C   UNL     1     -11.506   6.975  70.220  1.00  0.00    -0.287 C  
HETATM   13  C   UNL     1     -10.767   6.580  71.494  1.00  0.00    -0.275 C  
HETATM   14  H2  UNL     1      -8.488   8.025  71.080  1.00  0.00     0.000 HD 
HETATM   15  H1  UNL     1      -8.329   9.705  71.182  1.00  0.00     0.000 HD 
HETATM   16  C   UNL     1     -10.735   7.747  72.474  1.00  0.00    -0.372 C  
HETATM   17  C   UNL     1     -10.904   9.310  70.489  1.00  0.00    -0.263 C  
HETATM   18  C   UNL     1     -10.160   9.014  71.823  1.00  0.00    -0.303 C  
ENDBRANCH   6  10
BRANCH   8  19
HETATM   19  C   UNL     1     -11.129  10.259  67.397  1.00  0.00    -0.189 C  
BRANCH  19  20
HETATM   20  C   UNL     1     -10.301  11.538  67.472  1.00  0.00    -0.220 A  
HETATM   21  C   UNL     1      -9.711  13.676  66.458  1.00  0.00    -0.298 A  
HETATM   22  C   UNL     1     -11.816  12.622  65.817  1.00  0.00    -0.444 C  
HETATM   23  N   UNL     1     -12.789  12.613  65.187  1.00  0.00    -0.743 NA 
HETATM   24  C   UNL     1     -10.612  12.613  66.607  1.00  0.00    -0.267 A  
HETATM   25  C   UNL     1      -8.512  13.690  67.169  1.00  0.00    -0.186 A  
HETATM   26  C   UNL     1      -8.238  12.680  68.087  1.00  0.00    -0.170 A  
HETATM   27  C   UNL     1      -9.141  11.630  68.264  1.00  0.00    -0.187 A  
ENDBRANCH  19  20
ENDBRANCH   8  19
TORSDOF 3
ENDMDL
MODEL      105
REMARK 921   NORMALIZED FREE ENERGY PREDICTED BY IDOCK:   -5.44 KCAL/MOL
REMARK 922        TOTAL FREE ENERGY PREDICTED BY IDOCK:   -6.71 KCAL/MOL
REMARK 923 INTER-LIGAND FREE ENERGY PREDICTED BY IDOCK:   -5.53 KCAL/MOL
REMARK 924 INTRA-LIGAND FREE ENERGY PREDICTED BY IDOCK:   -1.18 KCAL/MOL
REMARK 927      BINDING AFFINITY PREDICTED BY RF-SCORE:    0.00 PKD
ROOT
HETATM    1  C   UNL     1     -13.016  12.559  64.180  1.00  0.00    -0.132 C  
HETATM    2  N   UNL     1     -12.092  13.551  64.696  1.00  0.00    -0.392 N  
HETATM    3  C   UNL     1     -12.156  14.834  64.225  1.00  0.00    -0.394 C  
HETATM    4  C   UNL     1     -11.278  15.804  64.886  1.00  0.00    -0.358 C  
HETATM    5  O   UNL     1     -12.887  15.215  63.314  1.00  0.00     0.219 OA 
HETATM    6  C   UNL     1     -10.540  15.518  65.976  1.00  0.00    -0.325 C  
HETATM    7  O   UNL     1     -11.102  11.967  65.998  1.00  0.00    -0.303 OA 
HETATM    8  N   UNL     1     -10.568  14.177  66.401  1.00  0.00    -0.277 N  
HETATM    9  C   UNL     1     -11.232  13.158  65.700  1.00  0.00    -0.283 C  
ENDROOT
BRANCH   6  10
HETATM   10  N   UNL     1      -9.809  16.574  66.596  1.00  0.00    -0.254 NA 
HETATM   11  N   UNL     1     -10.903  19.109  65.285  1.00  0.00    -0.424 NA 
HETATM   12  C   UNL     1      -8.360  16.795  66.509  1.00  0.00    -0.285 C  
HETATM   13  C   UNL     1      -8.045  18.060  65.718  1.00  0.00     0.161 C  
HETATM   14  H2  UNL     1     -10.512  18.447  64.615  1.00  0.00     0.000 HD 
HETATM   15  H1  UNL     1     -11.905  18.968  65.421  1.00  0.00     0.000 HD 
HETATM   16  C   UNL     1      -8.696  19.273  66.373  1.00  0.00    -0.362 C  
HETATM   17  C   UNL     1     -10.455  17.713  67.317  1.00  0.00    -0.338 C  
HETATM   18  C   UNL     1     -10.204  19.060  66.579  1.00  0.00    -0.421 C  
ENDBRANCH   6  10
BRANCH   8  19
HETATM   19  C   UNL     1     -10.171  13.766  67.750  1.00  0.00    -0.241 C  
BRANCH  19  20
HETATM   20  C   UNL     1     -10.993  14.286  68.924  1.00  0.00    -0.275 A  
HETATM   21  C   UNL     1     -11.013  15.208  71.183  1.00  0.00    -0.187 A  
HETATM   22  C   UNL     1      -8.963  15.378  69.870  1.00  0.00     0.121 C  
HETATM   23  N   UNL     1      -7.854  15.700  69.768  1.00  0.00    -0.089 NA 
HETATM   24  C   UNL     1     -10.339  14.967  69.977  1.00  0.00    -0.100 A  
HETATM   25  C   UNL     1     -12.332  14.790  71.349  1.00  0.00    -0.398 A  
HETATM   26  C   UNL     1     -13.012  14.197  70.288  1.00  0.00    -0.057 A  
HETATM   27  C   UNL     1     -12.359  13.977  69.073  1.00  0.00    -0.139 A  
ENDBRANCH  19  20
ENDBRANCH   8  19
TORSDOF 3
ENDMDL
MODEL      106
REMARK 921   NORMALIZED FREE ENERGY PREDICTED BY IDOCK:   -5.43 KCAL/MOL
REMARK 922        TOTAL FREE ENERGY PREDICTED BY IDOCK:   -6.70 KCAL/MOL
REMARK 923 INTER-LIGAND FREE ENERGY PREDICTED BY IDOCK:   -6.36 KCAL/MOL
REMARK 924 INTRA-LIGAND FREE ENERGY PREDICTED BY IDOCK:   -0.34 KCAL/MOL
REMARK 927      BINDING AFFINITY PREDICTED BY RF-SCORE:    0.00 PKD
ROOT
HETATM    1  C   UNL     1      -9.628   3.693  68.424  1.00  0.00    -0.096 C  
HETATM    2  N   UNL     1     -10.142   4.844  69.141  1.00  0.00    -0.188 N  
HETATM    3  C   UNL     1     -10.042   4.882  70.505  1.00  0.00    -0.242 C  
HETATM    4  C   UNL     1     -10.466   6.131  71.145  1.00  0.00    -0.281 C  
HETATM    5  O   UNL     1      -9.626   3.964  71.207  1.00  0.00    -0.148 OA 
HETATM    6  C   UNL     1     -10.812   7.238  70.459  1.00  0.00    -0.243 C  
HETATM    7  O   UNL     1     -10.853   5.760  67.182  1.00  0.00    -0.280 OA 
HETATM    8  N   UNL     1     -10.852   7.105  69.059  1.00  0.00    -0.185 N  
HETATM    9  C   UNL     1     -10.647   5.887  68.393  1.00  0.00    -0.250 C  
ENDROOT
BRANCH   6  10
HETATM   10  N   UNL     1     -11.100   8.427  71.192  1.00  0.00    -0.247 NA 
HETATM   11  N   UNL     1     -14.152   8.493  71.340  1.00  0.00    -0.589 NA 
HETATM   12  C   UNL     1     -10.792   9.801  70.775  1.00  0.00    -0.333 C  
HETATM   13  C   UNL     1     -12.067  10.582  70.476  1.00  0.00    -0.437 C  
HETATM   14  H2  UNL     1     -13.797   8.471  70.384  1.00  0.00     0.000 HD 
HETATM   15  H1  UNL     1     -14.338   7.556  71.700  1.00  0.00     0.000 HD 
HETATM   16  C   UNL     1     -12.966  10.624  71.706  1.00  0.00    -0.577 C  
HETATM   17  C   UNL     1     -11.907   8.446  72.451  1.00  0.00    -0.384 C  
HETATM   18  C   UNL     1     -13.246   9.213  72.248  1.00  0.00    -0.461 C  
ENDBRANCH   6  10
BRANCH   8  19
HETATM   19  C   UNL     1     -10.812   8.256  68.153  1.00  0.00     0.078 C  
BRANCH  19  20
HETATM   20  C   UNL     1      -9.446   8.832  67.793  1.00  0.00    -0.164 A  
HETATM   21  C   UNL     1      -8.175  10.527  66.584  1.00  0.00    -0.129 A  
HETATM   22  C   UNL     1     -10.528  10.957  67.068  1.00  0.00    -0.244 C  
HETATM   23  N   UNL     1     -11.466  11.633  66.991  1.00  0.00    -0.490 NA 
HETATM   24  C   UNL     1      -9.375  10.100  67.171  1.00  0.00    -0.176 A  
HETATM   25  C   UNL     1      -7.044   9.714  66.620  1.00  0.00    -0.086 A  
HETATM   26  C   UNL     1      -7.081   8.503  67.307  1.00  0.00    -0.076 A  
HETATM   27  C   UNL     1      -8.263   8.080  67.918  1.00  0.00    -0.129 A  
ENDBRANCH  19  20
ENDBRANCH   8  19
TORSDOF 3
ENDMDL
MODEL      107
REMARK 921   NORMALIZED FREE ENERGY PREDICTED BY IDOCK:   -5.41 KCAL/MOL
REMARK 922        TOTAL FREE ENERGY PREDICTED BY IDOCK:   -6.68 KCAL/MOL
REMARK 923 INTER-LIGAND FREE ENERGY PREDICTED BY IDOCK:   -5.61 KCAL/MOL
REMARK 924 INTRA-LIGAND FREE ENERGY PREDICTED BY IDOCK:   -1.06 KCAL/MOL
REMARK 927      BINDING AFFINITY PREDICTED BY RF-SCORE:    0.00 PKD
ROOT
HETATM    1  C   UNL     1     -11.830  14.015  69.262  1.00  0.00    -0.344 C  
HETATM    2  N   UNL     1     -10.856  13.197  68.564  1.00  0.00    -0.255 N  
HETATM    3  C   UNL     1      -9.567  13.640  68.453  1.00  0.00    -0.203 C  
HETATM    4  C   UNL     1      -8.616  12.702  67.849  1.00  0.00    -0.181 C  
HETATM    5  O   UNL     1      -9.165  14.740  68.824  1.00  0.00    -0.192 OA 
HETATM    6  C   UNL     1      -8.925  11.430  67.531  1.00  0.00    -0.150 C  
HETATM    7  O   UNL     1     -12.469  11.660  68.093  1.00  0.00    -0.215 OA 
HETATM    8  N   UNL     1     -10.271  11.062  67.713  1.00  0.00    -0.179 N  
HETATM    9  C   UNL     1     -11.272  11.964  68.104  1.00  0.00    -0.258 C  
ENDROOT
BRANCH   6  10
HETATM   10  N   UNL     1      -7.886  10.580  67.051  1.00  0.00    -0.112 NA 
HETATM   11  N   UNL     1      -9.345   8.506  65.345  1.00  0.00    -0.427 NA 
HETATM   12  C   UNL     1      -7.011   9.730  67.870  1.00  0.00    -0.078 C  
HETATM   13  C   UNL     1      -7.297   8.252  67.625  1.00  0.00    -0.093 C  
HETATM   14  H2  UNL     1      -9.673   8.535  66.310  1.00  0.00     0.000 HD 
HETATM   15  H1  UNL     1      -9.890   9.120  64.738  1.00  0.00     0.000 HD 
HETATM   16  C   UNL     1      -7.094   7.908  66.154  1.00  0.00    -0.062 C  
HETATM   17  C   UNL     1      -7.635  10.320  65.600  1.00  0.00    -0.148 C  
HETATM   18  C   UNL     1      -7.914   8.832  65.240  1.00  0.00    -0.118 C  
ENDBRANCH   6  10
BRANCH   8  19
HETATM   19  C   UNL     1     -10.704   9.666  67.807  1.00  0.00    -0.257 C  
BRANCH  19  20
HETATM   20  C   UNL     1     -10.560   8.963  69.153  1.00  0.00    -0.211 A  
HETATM   21  C   UNL     1     -10.912   6.945  70.476  1.00  0.00    -0.313 A  
HETATM   22  C   UNL     1     -10.887   6.756  68.043  1.00  0.00    -0.235 C  
HETATM   23  N   UNL     1     -10.985   6.120  67.080  1.00  0.00    -0.351 NA 
HETATM   24  C   UNL     1     -10.765   7.566  69.228  1.00  0.00    -0.185 A  
HETATM   25  C   UNL     1     -10.845   7.694  71.650  1.00  0.00    -0.260 A  
HETATM   26  C   UNL     1     -10.557   9.055  71.589  1.00  0.00    -0.434 A  
HETATM   27  C   UNL     1     -10.381   9.679  70.352  1.00  0.00    -0.350 A  
ENDBRANCH  19  20
ENDBRANCH   8  19
TORSDOF 3
ENDMDL
MODEL      108
REMARK 921   NORMALIZED FREE ENERGY PREDICTED BY IDOCK:   -5.39 KCAL/MOL
REMARK 922        TOTAL FREE ENERGY PREDICTED BY IDOCK:   -6.65 KCAL/MOL
REMARK 923 INTER-LIGAND FREE ENERGY PREDICTED BY IDOCK:   -6.47 KCAL/MOL
REMARK 924 INTRA-LIGAND FREE ENERGY PREDICTED BY IDOCK:   -0.17 KCAL/MOL
REMARK 927      BINDING AFFINITY PREDICTED BY RF-SCORE:    0.00 PKD
ROOT
HETATM    1  C   UNL     1     -11.226  15.217  69.634  1.00  0.00    -0.278 C  
HETATM    2  N   UNL     1     -11.331  14.295  68.519  1.00  0.00    -0.266 N  
HETATM    3  C   UNL     1     -11.003  14.725  67.262  1.00  0.00    -0.318 C  
HETATM    4  C   UNL     1     -11.012  13.702  66.213  1.00  0.00    -0.300 C  
HETATM    5  O   UNL     1     -10.704  15.879  66.968  1.00  0.00    -0.316 OA 
HETATM    6  C   UNL     1     -11.196  12.389  66.454  1.00  0.00    -0.319 C  
HETATM    7  O   UNL     1     -12.119  12.679  69.916  1.00  0.00    -0.304 OA 
HETATM    8  N   UNL     1     -11.495  12.046  67.786  1.00  0.00    -0.305 N  
HETATM    9  C   UNL     1     -11.693  12.994  68.801  1.00  0.00    -0.324 C  
ENDROOT
BRANCH   6  10
HETATM   10  N   UNL     1     -11.074  11.476  65.365  1.00  0.00    -0.233 NA 
HETATM   11  N   UNL     1      -8.081  10.871  65.230  1.00  0.00    -0.353 NA 
HETATM   12  C   UNL     1     -11.386  11.757  63.957  1.00  0.00    -0.381 C  
HETATM   13  C   UNL     1     -10.120  11.763  63.107  1.00  0.00    -0.386 C  
HETATM   14  H2  UNL     1      -8.295  11.864  65.135  1.00  0.00     0.000 HD 
HETATM   15  H1  UNL     1      -7.903  10.610  66.200  1.00  0.00     0.000 HD 
HETATM   16  C   UNL     1      -9.409  10.417  63.202  1.00  0.00    -0.340 C  
HETATM   17  C   UNL     1     -10.457  10.120  65.489  1.00  0.00    -0.006 C  
HETATM   18  C   UNL     1      -9.142  10.024  64.663  1.00  0.00    -0.237 C  
ENDBRANCH   6  10
BRANCH   8  19
HETATM   19  C   UNL     1     -11.335  10.687  68.308  1.00  0.00    -0.289 C  
BRANCH  19  20
HETATM   20  C   UNL     1      -9.983  10.305  68.900  1.00  0.00    -0.209 A  
HETATM   21  C   UNL     1      -8.744   9.358  70.775  1.00  0.00    -0.216 A  
HETATM   22  C   UNL     1     -11.119   8.837  70.563  1.00  0.00    -0.246 C  
HETATM   23  N   UNL     1     -12.077   8.318  70.958  1.00  0.00    -0.257 NA 
HETATM   24  C   UNL     1      -9.941   9.493  70.057  1.00  0.00    -0.274 A  
HETATM   25  C   UNL     1      -7.588  10.009  70.349  1.00  0.00    -0.037 A  
HETATM   26  C   UNL     1      -7.599  10.739  69.163  1.00  0.00    -0.133 A  
HETATM   27  C   UNL     1      -8.778  10.858  68.425  1.00  0.00    -0.147 A  
ENDBRANCH  19  20
ENDBRANCH   8  19
TORSDOF 3
ENDMDL
MODEL      109
REMARK 921   NORMALIZED FREE ENERGY PREDICTED BY IDOCK:   -5.38 KCAL/MOL
REMARK 922        TOTAL FREE ENERGY PREDICTED BY IDOCK:   -6.64 KCAL/MOL
REMARK 923 INTER-LIGAND FREE ENERGY PREDICTED BY IDOCK:   -5.72 KCAL/MOL
REMARK 924 INTRA-LIGAND FREE ENERGY PREDICTED BY IDOCK:   -0.92 KCAL/MOL
REMARK 927      BINDING AFFINITY PREDICTED BY RF-SCORE:    0.00 PKD
ROOT
HETATM    1  C   UNL     1     -12.252  13.199  70.565  1.00  0.00    -0.328 C  
HETATM    2  N   UNL     1     -11.626  12.434  69.503  1.00  0.00    -0.293 N  
HETATM    3  C   UNL     1     -10.717  13.046  68.684  1.00  0.00    -0.248 C  
HETATM    4  C   UNL     1     -10.035  12.178  67.720  1.00  0.00    -0.198 C  
HETATM    5  O   UNL     1     -10.438  14.242  68.710  1.00  0.00    -0.241 OA 
HETATM    6  C   UNL     1     -10.171  10.837  67.700  1.00  0.00    -0.189 C  
HETATM    7  O   UNL     1     -12.861  10.608  70.075  1.00  0.00    -0.235 OA 
HETATM    8  N   UNL     1     -11.108  10.302  68.604  1.00  0.00    -0.249 N  
HETATM    9  C   UNL     1     -11.934  11.092  69.418  1.00  0.00    -0.337 C  
ENDROOT
BRANCH   6  10
HETATM   10  N   UNL     1      -9.372  10.089  66.786  1.00  0.00    -0.157 NA 
HETATM   11  N   UNL     1      -6.856  11.787  66.430  1.00  0.00    -0.366 NA 
HETATM   12  C   UNL     1      -9.715   9.767  65.395  1.00  0.00    -0.313 C  
HETATM   13  C   UNL     1      -8.796  10.498  64.422  1.00  0.00    -0.210 C  
HETATM   14  H2  UNL     1      -7.713  12.281  66.183  1.00  0.00     0.000 HD 
HETATM   15  H1  UNL     1      -6.597  11.936  67.406  1.00  0.00     0.000 HD 
HETATM   16  C   UNL     1      -7.341  10.121  64.678  1.00  0.00    -0.129 C  
HETATM   17  C   UNL     1      -7.977   9.643  67.083  1.00  0.00    -0.106 C  
HETATM   18  C   UNL     1      -6.951  10.346  66.147  1.00  0.00    -0.126 C  
ENDBRANCH   6  10
BRANCH   8  19
HETATM   19  C   UNL     1     -11.106   8.892  69.003  1.00  0.00     0.174 C  
BRANCH  19  20
HETATM   20  C   UNL     1     -10.273   8.496  70.217  1.00  0.00    -0.206 A  
HETATM   21  C   UNL     1     -10.229   7.874  72.575  1.00  0.00    -0.342 A  
HETATM   22  C   UNL     1     -12.317   7.618  71.340  1.00  0.00    -0.333 C  
HETATM   23  N   UNL     1     -13.439   7.330  71.304  1.00  0.00    -0.327 NA 
HETATM   24  C   UNL     1     -10.924   7.983  71.363  1.00  0.00    -0.273 A  
HETATM   25  C   UNL     1      -8.891   8.257  72.658  1.00  0.00    -0.304 A  
HETATM   26  C   UNL     1      -8.218   8.680  71.515  1.00  0.00    -0.209 A  
HETATM   27  C   UNL     1      -8.893   8.766  70.296  1.00  0.00    -0.171 A  
ENDBRANCH  19  20
ENDBRANCH   8  19
TORSDOF 3
ENDMDL
MODEL      110
REMARK 921   NORMALIZED FREE ENERGY PREDICTED BY IDOCK:   -5.36 KCAL/MOL
REMARK 922        TOTAL FREE ENERGY PREDICTED BY IDOCK:   -6.61 KCAL/MOL
REMARK 923 INTER-LIGAND FREE ENERGY PREDICTED BY IDOCK:   -6.37 KCAL/MOL
REMARK 924 INTRA-LIGAND FREE ENERGY PREDICTED BY IDOCK:   -0.25 KCAL/MOL
REMARK 927      BINDING AFFINITY PREDICTED BY RF-SCORE:    0.00 PKD
ROOT
HETATM    1  C   UNL     1      -7.288  15.048  67.171  1.00  0.00    -0.069 C  
HETATM    2  N   UNL     1      -8.465  14.780  67.975  1.00  0.00    -0.145 N  
HETATM    3  C   UNL     1      -9.037  15.802  68.683  1.00  0.00    -0.204 C  
HETATM    4  C   UNL     1     -10.294  15.482  69.367  1.00  0.00    -0.258 C  
HETATM    5  O   UNL     1      -8.582  16.939  68.774  1.00  0.00    -0.252 OA 
HETATM    6  C   UNL     1     -10.942  14.310  69.224  1.00  0.00    -0.241 C  
HETATM    7  O   UNL     1      -8.374  12.580  67.397  1.00  0.00    -0.164 OA 
HETATM    8  N   UNL     1     -10.285  13.336  68.449  1.00  0.00    -0.249 N  
HETATM    9  C   UNL     1      -8.994  13.507  67.927  1.00  0.00    -0.200 C  
ENDROOT
BRANCH   6  10
HETATM   10  N   UNL     1     -12.213  14.157  69.853  1.00  0.00    -0.346 NA 
HETATM   11  N   UNL     1     -12.066  15.996  72.290  1.00  0.00    -0.487 NA 
HETATM   12  C   UNL     1     -12.746  12.922  70.443  1.00  0.00     0.049 C  
HETATM   13  C   UNL     1     -12.857  13.042  71.959  1.00  0.00    -0.297 C  
HETATM   14  H2  UNL     1     -11.334  15.286  72.278  1.00  0.00     0.000 HD 
HETATM   15  H1  UNL     1     -11.764  16.864  71.846  1.00  0.00     0.000 HD 
HETATM   16  C   UNL     1     -13.765  14.208  72.335  1.00  0.00    -0.645 C  
HETATM   17  C   UNL     1     -13.138  15.296  70.135  1.00  0.00     0.005 C  
HETATM   18  C   UNL     1     -13.309  15.514  71.667  1.00  0.00    -0.498 C  
ENDBRANCH   6  10
BRANCH   8  19
HETATM   19  C   UNL     1     -10.982  12.189  67.862  1.00  0.00    -0.229 C  
BRANCH  19  20
HETATM   20  C   UNL     1     -10.578  10.794  68.328  1.00  0.00    -0.233 A  
HETATM   21  C   UNL     1     -10.166   8.462  67.746  1.00  0.00    -0.283 A  
HETATM   22  C   UNL     1     -10.108  10.136  65.971  1.00  0.00    -0.248 C  
HETATM   23  N   UNL     1      -9.985  10.418  64.854  1.00  0.00    -0.327 NA 
HETATM   24  C   UNL     1     -10.268   9.807  67.364  1.00  0.00    -0.284 A  
HETATM   25  C   UNL     1     -10.356   8.089  69.075  1.00  0.00    -0.228 A  
HETATM   26  C   UNL     1     -10.575   9.064  70.045  1.00  0.00    -0.246 A  
HETATM   27  C   UNL     1     -10.651  10.410  69.681  1.00  0.00    -0.289 A  
ENDBRANCH  19  20
ENDBRANCH   8  19
TORSDOF 3
ENDMDL
MODEL      111
REMARK 921   NORMALIZED FREE ENERGY PREDICTED BY IDOCK:   -5.36 KCAL/MOL
REMARK 922        TOTAL FREE ENERGY PREDICTED BY IDOCK:   -6.61 KCAL/MOL
REMARK 923 INTER-LIGAND FREE ENERGY PREDICTED BY IDOCK:   -6.17 KCAL/MOL
REMARK 924 INTRA-LIGAND FREE ENERGY PREDICTED BY IDOCK:   -0.45 KCAL/MOL
REMARK 927      BINDING AFFINITY PREDICTED BY RF-SCORE:    0.00 PKD
ROOT
HETATM    1  C   UNL     1     -10.103   6.324  74.389  1.00  0.00    -0.340 C  
HETATM    2  N   UNL     1     -10.186   7.150  73.200  1.00  0.00    -0.243 N  
HETATM    3  C   UNL     1      -9.248   8.125  72.995  1.00  0.00    -0.273 C  
HETATM    4  C   UNL     1      -9.326   8.830  71.712  1.00  0.00    -0.350 C  
HETATM    5  O   UNL     1      -8.366   8.432  73.792  1.00  0.00    -0.319 OA 
HETATM    6  C   UNL     1     -10.168   8.481  70.720  1.00  0.00    -0.198 C  
HETATM    7  O   UNL     1     -12.093   6.074  72.573  1.00  0.00    -0.230 OA 
HETATM    8  N   UNL     1     -11.072   7.444  71.020  1.00  0.00    -0.252 N  
HETATM    9  C   UNL     1     -11.182   6.859  72.290  1.00  0.00    -0.263 C  
ENDROOT
BRANCH   6  10
HETATM   10  N   UNL     1     -10.075   9.173  69.477  1.00  0.00    -0.190 NA 
HETATM   11  N   UNL     1      -7.605  10.945  69.792  1.00  0.00    -0.362 NA 
HETATM   12  C   UNL     1     -11.057  10.122  68.936  1.00  0.00    -0.207 C  
HETATM   13  C   UNL     1     -10.489  11.536  68.900  1.00  0.00    -0.212 C  
HETATM   14  H2  UNL     1      -8.317  11.118  70.501  1.00  0.00     0.000 HD 
HETATM   15  H1  UNL     1      -6.921  10.253  70.098  1.00  0.00     0.000 HD 
HETATM   16  C   UNL     1      -9.227  11.582  68.046  1.00  0.00    -0.175 C  
HETATM   17  C   UNL     1      -8.865   9.137  68.600  1.00  0.00    -0.133 C  
HETATM   18  C   UNL     1      -8.197  10.539  68.507  1.00  0.00    -0.123 C  
ENDBRANCH   6  10
BRANCH   8  19
HETATM   19  C   UNL     1     -11.766   6.676  69.984  1.00  0.00    -0.317 C  
BRANCH  19  20
HETATM   20  C   UNL     1     -10.935   6.113  68.836  1.00  0.00    -0.424 A  
HETATM   21  C   UNL     1      -9.004   4.795  68.138  1.00  0.00    -0.129 A  
HETATM   22  C   UNL     1      -9.881   4.477  70.393  1.00  0.00    -0.232 C  
HETATM   23  N   UNL     1      -9.830   3.968  71.433  1.00  0.00    -0.188 NA 
HETATM   24  C   UNL     1      -9.960   5.125  69.109  1.00  0.00    -0.273 A  
HETATM   25  C   UNL     1      -9.013   5.427  66.896  1.00  0.00    -0.110 A  
HETATM   26  C   UNL     1     -10.022   6.337  66.587  1.00  0.00    -0.207 A  
HETATM   27  C   UNL     1     -10.996   6.652  67.537  1.00  0.00    -0.416 A  
ENDBRANCH  19  20
ENDBRANCH   8  19
TORSDOF 3
ENDMDL
MODEL      112
REMARK 921   NORMALIZED FREE ENERGY PREDICTED BY IDOCK:   -5.34 KCAL/MOL
REMARK 922        TOTAL FREE ENERGY PREDICTED BY IDOCK:   -6.59 KCAL/MOL
REMARK 923 INTER-LIGAND FREE ENERGY PREDICTED BY IDOCK:   -5.64 KCAL/MOL
REMARK 924 INTRA-LIGAND FREE ENERGY PREDICTED BY IDOCK:   -0.95 KCAL/MOL
REMARK 927      BINDING AFFINITY PREDICTED BY RF-SCORE:    0.00 PKD
ROOT
HETATM    1  C   UNL     1      -9.699   7.190  70.137  1.00  0.00    -0.171 C  
HETATM    2  N   UNL     1      -9.356   8.467  69.541  1.00  0.00    -0.160 N  
HETATM    3  C   UNL     1      -8.526   9.320  70.216  1.00  0.00    -0.203 C  
HETATM    4  C   UNL     1      -8.126  10.531  69.494  1.00  0.00    -0.105 C  
HETATM    5  O   UNL     1      -8.101   9.136  71.354  1.00  0.00    -0.318 OA 
HETATM    6  C   UNL     1      -8.428  10.761  68.201  1.00  0.00    -0.125 C  
HETATM    7  O   UNL     1     -10.695   8.006  67.758  1.00  0.00    -0.198 OA 
HETATM    8  N   UNL     1      -9.261   9.807  67.587  1.00  0.00    -0.131 N  
HETATM    9  C   UNL     1      -9.837   8.728  68.274  1.00  0.00    -0.165 C  
ENDROOT
BRANCH   6  10
HETATM   10  N   UNL     1      -7.890  11.924  67.576  1.00  0.00    -0.142 NA 
HETATM   11  N   UNL     1      -5.350  12.520  69.168  1.00  0.00    -0.067 NA 
HETATM   12  C   UNL     1      -8.522  13.249  67.516  1.00  0.00    -0.202 C  
HETATM   13  C   UNL     1      -7.747  14.264  68.350  1.00  0.00    -0.134 C  
HETATM   14  H2  UNL     1      -6.191  12.506  69.744  1.00  0.00     0.000 HD 
HETATM   15  H1  UNL     1      -4.895  11.607  69.134  1.00  0.00     0.000 HD 
HETATM   16  C   UNL     1      -6.310  14.373  67.854  1.00  0.00    -0.173 C  
HETATM   17  C   UNL     1      -6.509  11.993  67.009  1.00  0.00    -0.114 C  
HETATM   18  C   UNL     1      -5.625  12.998  67.804  1.00  0.00    -0.126 C  
ENDBRANCH   6  10
BRANCH   8  19
HETATM   19  C   UNL     1      -9.368   9.670  66.132  1.00  0.00    -0.194 C  
BRANCH  19  20
HETATM   20  C   UNL     1     -10.256  10.660  65.386  1.00  0.00    -0.341 A  
HETATM   21  C   UNL     1     -10.666  11.935  63.347  1.00  0.00    -0.476 A  
HETATM   22  C   UNL     1      -9.214   9.977  63.228  1.00  0.00    -0.284 C  
HETATM   23  N   UNL     1      -8.524   9.268  62.624  1.00  0.00    -0.195 NA 
HETATM   24  C   UNL     1     -10.065  10.847  63.998  1.00  0.00    -0.419 A  
HETATM   25  C   UNL     1     -11.463  12.830  64.059  1.00  0.00    -0.476 A  
HETATM   26  C   UNL     1     -11.727  12.603  65.407  1.00  0.00    -0.428 A  
HETATM   27  C   UNL     1     -11.157  11.508  66.059  1.00  0.00    -0.289 A  
ENDBRANCH  19  20
ENDBRANCH   8  19
TORSDOF 3
ENDMDL
MODEL      113
REMARK 921   NORMALIZED FREE ENERGY PREDICTED BY IDOCK:   -5.33 KCAL/MOL
REMARK 922        TOTAL FREE ENERGY PREDICTED BY IDOCK:   -6.58 KCAL/MOL
REMARK 923 INTER-LIGAND FREE ENERGY PREDICTED BY IDOCK:   -5.35 KCAL/MOL
REMARK 924 INTRA-LIGAND FREE ENERGY PREDICTED BY IDOCK:   -1.23 KCAL/MOL
REMARK 927      BINDING AFFINITY PREDICTED BY RF-SCORE:    0.00 PKD
ROOT
HETATM    1  C   UNL     1     -12.780  13.876  70.253  1.00  0.00    -0.182 C  
HETATM    2  N   UNL     1     -11.898  12.777  69.909  1.00  0.00    -0.326 N  
HETATM    3  C   UNL     1     -12.079  11.561  70.509  1.00  0.00    -0.378 C  
HETATM    4  C   UNL     1     -11.234  10.470  70.015  1.00  0.00    -0.386 C  
HETATM    5  O   UNL     1     -12.888  11.330  71.404  1.00  0.00    -0.406 OA 
HETATM    6  C   UNL     1     -10.413  10.586  68.953  1.00  0.00    -0.206 C  
HETATM    7  O   UNL     1     -10.724  14.141  68.514  1.00  0.00    -0.240 OA 
HETATM    8  N   UNL     1     -10.322  11.871  68.386  1.00  0.00    -0.204 N  
HETATM    9  C   UNL     1     -10.954  13.001  68.928  1.00  0.00    -0.230 C  
ENDROOT
BRANCH   6  10
HETATM   10  N   UNL     1      -9.723   9.424  68.499  1.00  0.00    -0.147 NA 
HETATM   11  N   UNL     1     -11.375   7.098  69.595  1.00  0.00    -0.492 NA 
HETATM   12  C   UNL     1      -8.359   9.023  68.872  1.00  0.00    -0.125 C  
HETATM   13  C   UNL     1      -8.374   7.757  69.722  1.00  0.00    -0.131 C  
HETATM   14  H2  UNL     1     -11.037   7.729  70.322  1.00  0.00     0.000 HD 
HETATM   15  H1  UNL     1     -12.303   7.361  69.263  1.00  0.00     0.000 HD 
HETATM   16  C   UNL     1      -9.040   6.615  68.964  1.00  0.00    -0.133 C  
HETATM   17  C   UNL     1     -10.361   8.352  67.677  1.00  0.00    -0.252 C  
HETATM   18  C   UNL     1     -10.438   7.011  68.464  1.00  0.00    -0.200 C  
ENDBRANCH   6  10
BRANCH   8  19
HETATM   19  C   UNL     1      -9.818  12.104  67.030  1.00  0.00    -0.203 C  
BRANCH  19  20
HETATM   20  C   UNL     1      -8.313  12.006  66.802  1.00  0.00    -0.135 A  
HETATM   21  C   UNL     1      -6.446  10.747  65.867  1.00  0.00    -0.097 A  
HETATM   22  C   UNL     1      -8.689  10.316  65.010  1.00  0.00    -0.182 C  
HETATM   23  N   UNL     1      -9.407   9.735  64.310  1.00  0.00    -0.244 NA 
HETATM   24  C   UNL     1      -7.815  11.047  65.890  1.00  0.00    -0.034 A  
HETATM   25  C   UNL     1      -5.566  11.397  66.731  1.00  0.00    -0.129 A  
HETATM   26  C   UNL     1      -6.035  12.404  67.571  1.00  0.00    -0.144 A  
HETATM   27  C   UNL     1      -7.392  12.731  67.582  1.00  0.00    -0.144 A  
ENDBRANCH  19  20
ENDBRANCH   8  19
TORSDOF 3
ENDMDL
MODEL      114
REMARK 921   NORMALIZED FREE ENERGY PREDICTED BY IDOCK:   -5.33 KCAL/MOL
REMARK 922        TOTAL FREE ENERGY PREDICTED BY IDOCK:   -6.58 KCAL/MOL
REMARK 923 INTER-LIGAND FREE ENERGY PREDICTED BY IDOCK:   -5.82 KCAL/MOL
REMARK 924 INTRA-LIGAND FREE ENERGY PREDICTED BY IDOCK:   -0.76 KCAL/MOL
REMARK 927      BINDING AFFINITY PREDICTED BY RF-SCORE:    0.00 PKD
ROOT
HETATM    1  C   UNL     1     -10.988  13.323  64.928  1.00  0.00    -0.330 C  
HETATM    2  N   UNL     1     -10.810  11.944  65.344  1.00  0.00    -0.287 N  
HETATM    3  C   UNL     1     -10.176  11.070  64.505  1.00  0.00    -0.344 C  
HETATM    4  C   UNL     1      -9.921   9.732  65.047  1.00  0.00    -0.132 C  
HETATM    5  O   UNL     1      -9.810  11.329  63.361  1.00  0.00    -0.308 OA 
HETATM    6  C   UNL     1     -10.162   9.389  66.328  1.00  0.00    -0.214 C  
HETATM    7  O   UNL     1     -11.927  12.373  67.281  1.00  0.00    -0.516 OA 
HETATM    8  N   UNL     1     -10.788  10.372  67.118  1.00  0.00    -0.264 N  
HETATM    9  C   UNL     1     -11.234  11.602  66.611  1.00  0.00    -0.299 C  
ENDROOT
BRANCH   6  10
HETATM   10  N   UNL     1      -9.771   8.090  66.767  1.00  0.00    -0.217 NA 
HETATM   11  N   UNL     1      -8.464   6.832  64.307  1.00  0.00    -0.332 NA 
HETATM   12  C   UNL     1     -10.670   7.016  67.210  1.00  0.00    -0.342 C  
HETATM   13  C   UNL     1     -10.664   5.855  66.222  1.00  0.00    -0.041 C  
HETATM   14  H2  UNL     1      -9.427   7.125  64.145  1.00  0.00     0.000 HD 
HETATM   15  H1  UNL     1      -7.796   7.563  64.061  1.00  0.00     0.000 HD 
HETATM   16  C   UNL     1      -9.255   5.295  66.067  1.00  0.00    -0.163 C  
HETATM   17  C   UNL     1      -8.367   7.582  66.696  1.00  0.00    -0.127 C  
HETATM   18  C   UNL     1      -8.249   6.396  65.696  1.00  0.00    -0.140 C  
ENDBRANCH   6  10
BRANCH   8  19
HETATM   19  C   UNL     1     -10.766  10.341  68.582  1.00  0.00    -0.224 C  
BRANCH  19  20
HETATM   20  C   UNL     1      -9.472   9.916  69.268  1.00  0.00    -0.218 A  
HETATM   21  C   UNL     1      -8.408   8.772  71.140  1.00  0.00    -0.219 A  
HETATM   22  C   UNL     1     -10.728   8.234  70.610  1.00  0.00    -0.220 C  
HETATM   23  N   UNL     1     -11.704   7.651  70.833  1.00  0.00    -0.287 NA 
HETATM   24  C   UNL     1      -9.525   8.970  70.317  1.00  0.00    -0.230 A  
HETATM   25  C   UNL     1      -7.235   9.493  70.924  1.00  0.00    -0.063 A  
HETATM   26  C   UNL     1      -7.145  10.362  69.839  1.00  0.00    -0.160 A  
HETATM   27  C   UNL     1      -8.243  10.547  68.996  1.00  0.00    -0.145 A  
ENDBRANCH  19  20
ENDBRANCH   8  19
TORSDOF 3
ENDMDL
MODEL      115
REMARK 921   NORMALIZED FREE ENERGY PREDICTED BY IDOCK:   -5.32 KCAL/MOL
REMARK 922        TOTAL FREE ENERGY PREDICTED BY IDOCK:   -6.58 KCAL/MOL
REMARK 923 INTER-LIGAND FREE ENERGY PREDICTED BY IDOCK:   -5.74 KCAL/MOL
REMARK 924 INTRA-LIGAND FREE ENERGY PREDICTED BY IDOCK:   -0.84 KCAL/MOL
REMARK 927      BINDING AFFINITY PREDICTED BY RF-SCORE:    0.00 PKD
ROOT
HETATM    1  C   UNL     1      -6.167  12.534  69.617  1.00  0.00    -0.126 C  
HETATM    2  N   UNL     1      -7.046  13.604  69.185  1.00  0.00    -0.078 N  
HETATM    3  C   UNL     1      -6.943  14.833  69.775  1.00  0.00    -0.158 C  
HETATM    4  C   UNL     1      -7.775  15.893  69.198  1.00  0.00    -0.220 C  
HETATM    5  O   UNL     1      -6.213  15.100  70.726  1.00  0.00    -0.015 OA 
HETATM    6  C   UNL     1      -8.507  15.738  68.077  1.00  0.00    -0.161 C  
HETATM    7  O   UNL     1      -8.073  12.186  67.728  1.00  0.00    -0.132 OA 
HETATM    8  N   UNL     1      -8.521  14.442  67.528  1.00  0.00    -0.179 N  
HETATM    9  C   UNL     1      -7.905  13.339  68.138  1.00  0.00    -0.145 C  
ENDROOT
BRANCH   6  10
HETATM   10  N   UNL     1      -9.189  16.874  67.551  1.00  0.00    -0.222 NA 
HETATM   11  N   UNL     1      -7.158  19.145  67.797  1.00  0.00    -0.229 NA 
HETATM   12  C   UNL     1     -10.399  17.495  68.106  1.00  0.00    -0.375 C  
HETATM   13  C   UNL     1     -10.098  18.881  68.663  1.00  0.00    -0.447 C  
HETATM   14  H2  UNL     1      -7.373  18.700  68.689  1.00  0.00     0.000 HD 
HETATM   15  H1  UNL     1      -6.351  18.718  67.342  1.00  0.00     0.000 HD 
HETATM   16  C   UNL     1      -9.530  19.782  67.572  1.00  0.00    -0.456 C  
HETATM   17  C   UNL     1      -8.669  17.698  66.417  1.00  0.00    -0.234 C  
HETATM   18  C   UNL     1      -8.315  19.139  66.887  1.00  0.00    -0.285 C  
ENDBRANCH   6  10
BRANCH   8  19
HETATM   19  C   UNL     1      -8.911  14.175  66.142  1.00  0.00     0.183 C  
BRANCH  19  20
HETATM   20  C   UNL     1     -10.339  13.708  65.881  1.00  0.00    -0.304 A  
HETATM   21  C   UNL     1     -11.826  12.169  64.711  1.00  0.00    -0.385 A  
HETATM   22  C   UNL     1      -9.475  11.563  64.953  1.00  0.00    -0.129 C  
HETATM   23  N   UNL     1      -8.596  10.833  64.756  1.00  0.00    -0.127 NA 
HETATM   24  C   UNL     1     -10.553  12.484  65.205  1.00  0.00    -0.319 A  
HETATM   25  C   UNL     1     -12.892  13.049  64.892  1.00  0.00    -0.368 A  
HETATM   26  C   UNL     1     -12.710  14.215  65.632  1.00  0.00    -0.469 A  
HETATM   27  C   UNL     1     -11.453  14.526  66.153  1.00  0.00    -0.357 A  
ENDBRANCH  19  20
ENDBRANCH   8  19
TORSDOF 3
ENDMDL
MODEL      116
REMARK 921   NORMALIZED FREE ENERGY PREDICTED BY IDOCK:   -5.32 KCAL/MOL
REMARK 922        TOTAL FREE ENERGY PREDICTED BY IDOCK:   -6.57 KCAL/MOL
REMARK 923 INTER-LIGAND FREE ENERGY PREDICTED BY IDOCK:   -6.78 KCAL/MOL
REMARK 924 INTRA-LIGAND FREE ENERGY PREDICTED BY IDOCK:    0.21 KCAL/MOL
REMARK 927      BINDING AFFINITY PREDICTED BY RF-SCORE:    0.00 PKD
ROOT
HETATM    1  C   UNL     1     -10.392   8.340  69.392  1.00  0.00    -0.222 C  
HETATM    2  N   UNL     1     -11.054   9.626  69.503  1.00  0.00    -0.207 N  
HETATM    3  C   UNL     1     -11.576  10.007  70.709  1.00  0.00    -0.360 C  
HETATM    4  C   UNL     1     -12.114  11.369  70.772  1.00  0.00    -0.433 C  
HETATM    5  O   UNL     1     -11.614   9.304  71.714  1.00  0.00    -0.366 OA 
HETATM    6  C   UNL     1     -12.001  12.262  69.769  1.00  0.00    -0.295 C  
HETATM    7  O   UNL     1     -10.712  10.007  67.284  1.00  0.00    -0.262 OA 
HETATM    8  N   UNL     1     -11.420  11.780  68.582  1.00  0.00    -0.261 N  
HETATM    9  C   UNL     1     -11.061  10.438  68.387  1.00  0.00    -0.268 C  
ENDROOT
BRANCH   6  10
HETATM   10  N   UNL     1     -12.467  13.592  69.990  1.00  0.00    -0.226 NA 
HETATM   11  N   UNL     1      -9.911  15.245  70.260  1.00  0.00    -0.469 NA 
HETATM   12  C   UNL     1     -13.248  14.058  71.144  1.00  0.00    -0.267 C  
HETATM   13  C   UNL     1     -12.430  15.010  72.009  1.00  0.00    -0.409 C  
HETATM   14  H2  UNL     1      -9.973  14.487  70.940  1.00  0.00     0.000 HD 
HETATM   15  H1  UNL     1      -9.419  14.959  69.414  1.00  0.00     0.000 HD 
HETATM   16  C   UNL     1     -11.978  16.215  71.193  1.00  0.00    -0.357 C  
HETATM   17  C   UNL     1     -12.092  14.753  69.128  1.00  0.00    -0.243 C  
HETATM   18  C   UNL     1     -11.236  15.786  69.918  1.00  0.00    -0.334 C  
ENDBRANCH   6  10
BRANCH   8  19
HETATM   19  C   UNL     1     -10.861  12.667  67.558  1.00  0.00    -0.239 C  
BRANCH  19  20
HETATM   20  C   UNL     1      -9.449  13.203  67.773  1.00  0.00    -0.209 A  
HETATM   21  C   UNL     1      -7.722  14.791  67.109  1.00  0.00    -0.149 A  
HETATM   22  C   UNL     1     -10.041  15.277  66.525  1.00  0.00    -0.270 C  
HETATM   23  N   UNL     1     -10.832  15.954  66.016  1.00  0.00    -0.273 NA 
HETATM   24  C   UNL     1      -9.073  14.420  67.160  1.00  0.00    -0.238 A  
HETATM   25  C   UNL     1      -6.743  13.973  67.672  1.00  0.00    -0.188 A  
HETATM   26  C   UNL     1      -7.114  12.817  68.353  1.00  0.00    -0.102 A  
HETATM   27  C   UNL     1      -8.459  12.451  68.434  1.00  0.00    -0.131 A  
ENDBRANCH  19  20
ENDBRANCH   8  19
TORSDOF 3
ENDMDL
MODEL      117
REMARK 921   NORMALIZED FREE ENERGY PREDICTED BY IDOCK:   -5.32 KCAL/MOL
REMARK 922        TOTAL FREE ENERGY PREDICTED BY IDOCK:   -6.57 KCAL/MOL
REMARK 923 INTER-LIGAND FREE ENERGY PREDICTED BY IDOCK:   -5.54 KCAL/MOL
REMARK 924 INTRA-LIGAND FREE ENERGY PREDICTED BY IDOCK:   -1.03 KCAL/MOL
REMARK 927      BINDING AFFINITY PREDICTED BY RF-SCORE:    0.00 PKD
ROOT
HETATM    1  C   UNL     1     -12.250  10.939  70.117  1.00  0.00    -0.343 C  
HETATM    2  N   UNL     1     -11.798   9.873  70.991  1.00  0.00    -0.345 N  
HETATM    3  C   UNL     1     -12.675   9.322  71.884  1.00  0.00    -0.394 C  
HETATM    4  C   UNL     1     -12.181   8.167  72.639  1.00  0.00    -0.270 C  
HETATM    5  O   UNL     1     -13.821   9.717  72.081  1.00  0.00    -0.335 OA 
HETATM    6  C   UNL     1     -10.993   7.576  72.403  1.00  0.00    -0.286 C  
HETATM    7  O   UNL     1      -9.702  10.029  70.114  1.00  0.00    -0.233 OA 
HETATM    8  N   UNL     1     -10.177   8.201  71.442  1.00  0.00    -0.192 N  
HETATM    9  C   UNL     1     -10.506   9.417  70.823  1.00  0.00    -0.304 C  
ENDROOT
BRANCH   6  10
HETATM   10  N   UNL     1     -10.670   6.392  73.128  1.00  0.00    -0.257 NA 
HETATM   11  N   UNL     1      -7.732   6.759  73.888  1.00  0.00    -0.094 NA 
HETATM   12  C   UNL     1     -10.672   5.021  72.599  1.00  0.00    -0.222 C  
HETATM   13  C   UNL     1      -9.257   4.458  72.531  1.00  0.00    -0.148 C  
HETATM   14  H2  UNL     1      -7.895   6.799  72.882  1.00  0.00     0.000 HD 
HETATM   15  H1  UNL     1      -7.769   7.684  74.317  1.00  0.00     0.000 HD 
HETATM   16  C   UNL     1      -8.618   4.457  73.915  1.00  0.00    -0.101 C  
HETATM   17  C   UNL     1     -10.129   6.397  74.522  1.00  0.00    -0.339 C  
HETATM   18  C   UNL     1      -8.673   5.850  74.562  1.00  0.00    -0.120 C  
ENDBRANCH   6  10
BRANCH   8  19
HETATM   19  C   UNL     1      -9.068   7.513  70.777  1.00  0.00    -0.154 C  
BRANCH  19  20
HETATM   20  C   UNL     1      -9.325   6.912  69.399  1.00  0.00    -0.146 A  
HETATM   21  C   UNL     1      -8.756   6.869  67.028  1.00  0.00    -0.119 A  
HETATM   22  C   UNL     1      -7.135   7.793  68.600  1.00  0.00    -0.076 C  
HETATM   23  N   UNL     1      -6.114   8.297  68.817  1.00  0.00    -0.043 NA 
HETATM   24  C   UNL     1      -8.410   7.169  68.353  1.00  0.00    -0.125 A  
HETATM   25  C   UNL     1      -9.997   6.304  66.734  1.00  0.00    -0.220 A  
HETATM   26  C   UNL     1     -10.868   5.968  67.766  1.00  0.00    -0.380 A  
HETATM   27  C   UNL     1     -10.522   6.237  69.092  1.00  0.00    -0.291 A  
ENDBRANCH  19  20
ENDBRANCH   8  19
TORSDOF 3
ENDMDL
MODEL      118
REMARK 921   NORMALIZED FREE ENERGY PREDICTED BY IDOCK:   -5.30 KCAL/MOL
REMARK 922        TOTAL FREE ENERGY PREDICTED BY IDOCK:   -6.55 KCAL/MOL
REMARK 923 INTER-LIGAND FREE ENERGY PREDICTED BY IDOCK:   -6.03 KCAL/MOL
REMARK 924 INTRA-LIGAND FREE ENERGY PREDICTED BY IDOCK:   -0.52 KCAL/MOL
REMARK 927      BINDING AFFINITY PREDICTED BY RF-SCORE:    0.00 PKD
ROOT
HETATM    1  C   UNL     1      -9.086  17.667  66.480  1.00  0.00    -0.265 C  
HETATM    2  N   UNL     1      -8.906  16.229  66.551  1.00  0.00    -0.253 N  
HETATM    3  C   UNL     1      -7.759  15.726  67.102  1.00  0.00    -0.219 C  
HETATM    4  C   UNL     1      -7.708  14.269  67.255  1.00  0.00    -0.145 C  
HETATM    5  O   UNL     1      -6.801  16.398  67.473  1.00  0.00    -0.125 OA 
HETATM    6  C   UNL     1      -8.753  13.456  67.004  1.00  0.00    -0.187 C  
HETATM    7  O   UNL     1     -10.900  15.916  65.497  1.00  0.00    -0.345 OA 
HETATM    8  N   UNL     1      -9.898  14.077  66.470  1.00  0.00    -0.281 N  
HETATM    9  C   UNL     1      -9.947  15.435  66.118  1.00  0.00    -0.307 C  
ENDROOT
BRANCH   6  10
HETATM   10  N   UNL     1      -8.617  12.067  67.295  1.00  0.00    -0.169 NA 
HETATM   11  N   UNL     1      -5.763  11.802  68.354  1.00  0.00    -0.049 NA 
HETATM   12  C   UNL     1      -8.679  10.967  66.324  1.00  0.00    -0.171 C  
HETATM   13  C   UNL     1      -7.319  10.293  66.172  1.00  0.00    -0.122 C  
HETATM   14  H2  UNL     1      -5.808  12.198  67.415  1.00  0.00     0.000 HD 
HETATM   15  H1  UNL     1      -5.767  12.525  69.074  1.00  0.00     0.000 HD 
HETATM   16  C   UNL     1      -6.842   9.749  67.514  1.00  0.00    -0.082 C  
HETATM   17  C   UNL     1      -8.238  11.538  68.640  1.00  0.00    -0.124 C  
HETATM   18  C   UNL     1      -6.848  10.839  68.598  1.00  0.00    -0.060 C  
ENDBRANCH   6  10
BRANCH   8  19
HETATM   19  C   UNL     1     -11.225  13.457  66.507  1.00  0.00    -0.307 C  
BRANCH  19  20
HETATM   20  C   UNL     1     -11.665  12.794  67.808  1.00  0.00    -0.412 A  
HETATM   21  C   UNL     1     -11.971  12.984  70.220  1.00  0.00    -0.360 A  
HETATM   22  C   UNL     1     -11.832  15.029  68.898  1.00  0.00    -0.307 C  
HETATM   23  N   UNL     1     -11.820  16.186  68.827  1.00  0.00    -0.260 NA 
HETATM   24  C   UNL     1     -11.841  13.591  68.963  1.00  0.00    -0.385 A  
HETATM   25  C   UNL     1     -11.942  11.595  70.340  1.00  0.00    -0.448 A  
HETATM   26  C   UNL     1     -11.857  10.802  69.199  1.00  0.00    -0.347 A  
HETATM   27  C   UNL     1     -11.755  11.395  67.939  1.00  0.00    -0.300 A  
ENDBRANCH  19  20
ENDBRANCH   8  19
TORSDOF 3
ENDMDL
MODEL      119
REMARK 921   NORMALIZED FREE ENERGY PREDICTED BY IDOCK:   -5.30 KCAL/MOL
REMARK 922        TOTAL FREE ENERGY PREDICTED BY IDOCK:   -6.54 KCAL/MOL
REMARK 923 INTER-LIGAND FREE ENERGY PREDICTED BY IDOCK:   -5.72 KCAL/MOL
REMARK 924 INTRA-LIGAND FREE ENERGY PREDICTED BY IDOCK:   -0.83 KCAL/MOL
REMARK 927      BINDING AFFINITY PREDICTED BY RF-SCORE:    0.00 PKD
ROOT
HETATM    1  C   UNL     1      -6.388  11.261  69.508  1.00  0.00    -0.109 C  
HETATM    2  N   UNL     1      -7.674  11.671  68.977  1.00  0.00    -0.058 N  
HETATM    3  C   UNL     1      -7.807  12.922  68.439  1.00  0.00    -0.133 C  
HETATM    4  C   UNL     1      -9.098  13.215  67.809  1.00  0.00    -0.200 C  
HETATM    5  O   UNL     1      -6.936  13.788  68.444  1.00  0.00    -0.085 OA 
HETATM    6  C   UNL     1     -10.067  12.295  67.634  1.00  0.00    -0.200 C  
HETATM    7  O   UNL     1      -8.580   9.677  69.599  1.00  0.00    -0.153 OA 
HETATM    8  N   UNL     1      -9.819  11.029  68.196  1.00  0.00    -0.170 N  
HETATM    9  C   UNL     1      -8.691  10.739  68.979  1.00  0.00    -0.130 C  
ENDROOT
BRANCH   6  10
HETATM   10  N   UNL     1     -11.236  12.671  66.909  1.00  0.00    -0.285 NA 
HETATM   11  N   UNL     1     -10.158  13.731  64.253  1.00  0.00    -0.734 NA 
HETATM   12  C   UNL     1     -12.190  13.723  67.285  1.00  0.00    -0.278 C  
HETATM   13  C   UNL     1     -12.128  14.893  66.309  1.00  0.00     0.015 C  
HETATM   14  H2  UNL     1      -9.791  14.230  65.063  1.00  0.00     0.000 HD 
HETATM   15  H1  UNL     1      -9.556  12.955  63.977  1.00  0.00     0.000 HD 
HETATM   16  C   UNL     1     -12.438  14.421  64.893  1.00  0.00    -0.368 C  
HETATM   17  C   UNL     1     -11.580  12.133  65.558  1.00  0.00    -0.343 C  
HETATM   18  C   UNL     1     -11.531  13.252  64.478  1.00  0.00    -0.365 C  
ENDBRANCH   6  10
BRANCH   8  19
HETATM   19  C   UNL     1     -10.542   9.824  67.782  1.00  0.00    -0.266 C  
BRANCH  19  20
HETATM   20  C   UNL     1      -9.902   8.940  66.717  1.00  0.00    -0.308 A  
HETATM   21  C   UNL     1      -8.966   6.765  66.130  1.00  0.00    -0.157 A  
HETATM   22  C   UNL     1     -10.450   6.914  68.061  1.00  0.00    -0.211 C  
HETATM   23  N   UNL     1     -10.989   6.419  68.960  1.00  0.00    -0.323 NA 
HETATM   24  C   UNL     1      -9.787   7.550  66.952  1.00  0.00    -0.295 A  
HETATM   25  C   UNL     1      -8.269   7.343  65.070  1.00  0.00    -0.101 A  
HETATM   26  C   UNL     1      -8.445   8.693  64.779  1.00  0.00    -0.168 A  
HETATM   27  C   UNL     1      -9.282   9.479  65.574  1.00  0.00    -0.292 A  
ENDBRANCH  19  20
ENDBRANCH   8  19
TORSDOF 3
ENDMDL
MODEL      120
REMARK 921   NORMALIZED FREE ENERGY PREDICTED BY IDOCK:   -5.29 KCAL/MOL
REMARK 922        TOTAL FREE ENERGY PREDICTED BY IDOCK:   -6.54 KCAL/MOL
REMARK 923 INTER-LIGAND FREE ENERGY PREDICTED BY IDOCK:   -5.56 KCAL/MOL
REMARK 924 INTRA-LIGAND FREE ENERGY PREDICTED BY IDOCK:   -0.97 KCAL/MOL
REMARK 927      BINDING AFFINITY PREDICTED BY RF-SCORE:    0.00 PKD
ROOT
HETATM    1  C   UNL     1      -8.239   5.092  68.208  1.00  0.00    -0.089 C  
HETATM    2  N   UNL     1      -8.598   6.471  67.940  1.00  0.00    -0.118 N  
HETATM    3  C   UNL     1      -9.285   6.773  66.796  1.00  0.00    -0.150 C  
HETATM    4  C   UNL     1      -9.722   8.166  66.660  1.00  0.00    -0.318 C  
HETATM    5  O   UNL     1      -9.557   5.973  65.905  1.00  0.00    -0.061 OA 
HETATM    6  C   UNL     1      -9.591   9.087  67.635  1.00  0.00    -0.150 C  
HETATM    7  O   UNL     1      -7.543   7.128  69.848  1.00  0.00    -0.093 OA 
HETATM    8  N   UNL     1      -8.898   8.666  68.786  1.00  0.00    -0.138 N  
HETATM    9  C   UNL     1      -8.285   7.409  68.902  1.00  0.00    -0.129 C  
ENDROOT
BRANCH   6  10
HETATM   10  N   UNL     1     -10.153  10.380  67.426  1.00  0.00    -0.187 NA 
HETATM   11  N   UNL     1      -8.243  12.270  68.881  1.00  0.00    -0.349 NA 
HETATM   12  C   UNL     1     -11.460  10.846  67.909  1.00  0.00    -0.266 C  
HETATM   13  C   UNL     1     -11.297  11.922  68.977  1.00  0.00    -0.337 C  
HETATM   14  H2  UNL     1      -8.640  11.554  69.489  1.00  0.00     0.000 HD 
HETATM   15  H1  UNL     1      -7.353  11.977  68.477  1.00  0.00     0.000 HD 
HETATM   16  C   UNL     1     -10.517  13.108  68.423  1.00  0.00    -0.261 C  
HETATM   17  C   UNL     1      -9.410  11.513  66.796  1.00  0.00    -0.181 C  
HETATM   18  C   UNL     1      -9.177  12.667  67.815  1.00  0.00    -0.195 C  
ENDBRANCH   6  10
BRANCH   8  19
HETATM   19  C   UNL     1      -9.000   9.364  70.070  1.00  0.00    -0.212 C  
BRANCH  19  20
HETATM   20  C   UNL     1     -10.049   8.878  71.064  1.00  0.00    -0.324 A  
HETATM   21  C   UNL     1     -10.531   7.707  73.149  1.00  0.00    -0.433 A  
HETATM   22  C   UNL     1      -8.281   8.584  72.795  1.00  0.00    -0.050 C  
HETATM   23  N   UNL     1      -7.188   8.730  73.151  1.00  0.00    -0.353 NA 
HETATM   24  C   UNL     1      -9.634   8.410  72.332  1.00  0.00    -0.373 A  
HETATM   25  C   UNL     1     -11.839   7.476  72.725  1.00  0.00    -0.156 A  
HETATM   26  C   UNL     1     -12.281   8.009  71.517  1.00  0.00    -0.328 A  
HETATM   27  C   UNL     1     -11.404   8.734  70.707  1.00  0.00    -0.313 A  
ENDBRANCH  19  20
ENDBRANCH   8  19
TORSDOF 3
ENDMDL
MODEL      121
REMARK 921   NORMALIZED FREE ENERGY PREDICTED BY IDOCK:   -5.28 KCAL/MOL
REMARK 922        TOTAL FREE ENERGY PREDICTED BY IDOCK:   -6.52 KCAL/MOL
REMARK 923 INTER-LIGAND FREE ENERGY PREDICTED BY IDOCK:   -5.66 KCAL/MOL
REMARK 924 INTRA-LIGAND FREE ENERGY PREDICTED BY IDOCK:   -0.86 KCAL/MOL
REMARK 927      BINDING AFFINITY PREDICTED BY RF-SCORE:    0.00 PKD
ROOT
HETATM    1  C   UNL     1     -11.315   7.216  69.731  1.00  0.00    -0.123 C  
HETATM    2  N   UNL     1     -10.511   7.905  68.740  1.00  0.00    -0.201 N  
HETATM    3  C   UNL     1     -10.502   7.448  67.451  1.00  0.00    -0.296 C  
HETATM    4  C   UNL     1      -9.769   8.272  66.484  1.00  0.00    -0.323 C  
HETATM    5  O   UNL     1     -11.059   6.425  67.061  1.00  0.00    -0.384 OA 
HETATM    6  C   UNL     1      -9.238   9.474  66.781  1.00  0.00    -0.149 C  
HETATM    7  O   UNL     1      -9.757   9.343  70.337  1.00  0.00    -0.225 OA 
HETATM    8  N   UNL     1      -9.328   9.868  68.129  1.00  0.00    -0.131 N  
HETATM    9  C   UNL     1      -9.843   9.044  69.142  1.00  0.00    -0.175 C  
ENDROOT
BRANCH   6  10
HETATM   10  N   UNL     1      -8.644  10.231  65.729  1.00  0.00    -0.148 NA 
HETATM   11  N   UNL     1      -8.881   8.419  63.279  1.00  0.00    -0.323 NA 
HETATM   12  C   UNL     1      -7.240  10.656  65.651  1.00  0.00    -0.084 C  
HETATM   13  C   UNL     1      -6.511   9.936  64.521  1.00  0.00    -0.120 C  
HETATM   14  H2  UNL     1      -8.367   7.990  64.048  1.00  0.00     0.000 HD 
HETATM   15  H1  UNL     1      -9.876   8.195  63.313  1.00  0.00     0.000 HD 
HETATM   16  C   UNL     1      -7.193  10.215  63.186  1.00  0.00    -0.132 C  
HETATM   17  C   UNL     1      -9.352  10.579  64.459  1.00  0.00    -0.253 C  
HETATM   18  C   UNL     1      -8.691   9.878  63.237  1.00  0.00    -0.223 C  
ENDBRANCH   6  10
BRANCH   8  19
HETATM   19  C   UNL     1      -9.179  11.260  68.558  1.00  0.00    -0.181 C  
BRANCH  19  20
HETATM   20  C   UNL     1      -9.923  12.333  67.770  1.00  0.00    -0.200 A  
HETATM   21  C   UNL     1      -9.964  14.623  66.930  1.00  0.00    -0.254 A  
HETATM   22  C   UNL     1      -7.817  13.646  67.556  1.00  0.00    -0.177 C  
HETATM   23  N   UNL     1      -6.668  13.735  67.688  1.00  0.00    -0.177 NA 
HETATM   24  C   UNL     1      -9.243  13.517  67.403  1.00  0.00    -0.223 A  
HETATM   25  C   UNL     1     -11.351  14.560  66.806  1.00  0.00    -0.358 A  
HETATM   26  C   UNL     1     -12.019  13.370  67.082  1.00  0.00    -0.415 A  
HETATM   27  C   UNL     1     -11.308  12.253  67.527  1.00  0.00    -0.388 A  
ENDBRANCH  19  20
ENDBRANCH   8  19
TORSDOF 3
ENDMDL
MODEL      122
REMARK 921   NORMALIZED FREE ENERGY PREDICTED BY IDOCK:   -5.28 KCAL/MOL
REMARK 922        TOTAL FREE ENERGY PREDICTED BY IDOCK:   -6.52 KCAL/MOL
REMARK 923 INTER-LIGAND FREE ENERGY PREDICTED BY IDOCK:   -5.53 KCAL/MOL
REMARK 924 INTRA-LIGAND FREE ENERGY PREDICTED BY IDOCK:   -0.99 KCAL/MOL
REMARK 927      BINDING AFFINITY PREDICTED BY RF-SCORE:    0.00 PKD
ROOT
HETATM    1  C   UNL     1     -10.290  17.469  66.241  1.00  0.00    -0.335 C  
HETATM    2  N   UNL     1      -9.479  16.286  66.456  1.00  0.00    -0.246 N  
HETATM    3  C   UNL     1      -8.181  16.431  66.864  1.00  0.00    -0.218 C  
HETATM    4  C   UNL     1      -7.468  15.191  67.183  1.00  0.00    -0.176 C  
HETATM    5  O   UNL     1      -7.595  17.503  66.985  1.00  0.00    -0.190 OA 
HETATM    6  C   UNL     1      -8.056  13.979  67.210  1.00  0.00    -0.156 C  
HETATM    7  O   UNL     1     -11.211  14.965  65.795  1.00  0.00    -0.335 OA 
HETATM    8  N   UNL     1      -9.403  13.942  66.803  1.00  0.00    -0.269 N  
HETATM    9  C   UNL     1     -10.089  15.059  66.301  1.00  0.00    -0.282 C  
ENDROOT
BRANCH   6  10
HETATM   10  N   UNL     1      -7.284  12.860  67.641  1.00  0.00    -0.133 NA 
HETATM   11  N   UNL     1      -8.420  10.511  66.049  1.00  0.00    -0.150 NA 
HETATM   12  C   UNL     1      -7.242  12.306  69.001  1.00  0.00    -0.023 C  
HETATM   13  C   UNL     1      -7.881  10.923  69.049  1.00  0.00    -0.138 C  
HETATM   14  H2  UNL     1      -9.120  10.987  66.617  1.00  0.00     0.000 HD 
HETATM   15  H1  UNL     1      -8.372  10.891  65.103  1.00  0.00     0.000 HD 
HETATM   16  C   UNL     1      -7.161   9.971  68.100  1.00  0.00    -0.080 C  
HETATM   17  C   UNL     1      -6.505  11.986  66.712  1.00  0.00     0.034 C  
HETATM   18  C   UNL     1      -7.089  10.544  66.676  1.00  0.00    -0.118 C  
ENDBRANCH   6  10
BRANCH   8  19
HETATM   19  C   UNL     1     -10.300  12.833  67.136  1.00  0.00    -0.233 C  
BRANCH  19  20
HETATM   20  C   UNL     1     -10.926  12.815  68.527  1.00  0.00    -0.288 A  
HETATM   21  C   UNL     1     -12.204  11.584  70.199  1.00  0.00    -0.387 A  
HETATM   22  C   UNL     1     -11.084  10.330  68.431  1.00  0.00    -0.247 C  
HETATM   23  N   UNL     1     -10.834   9.326  67.909  1.00  0.00    -0.178 NA 
HETATM   24  C   UNL     1     -11.386  11.590  69.061  1.00  0.00    -0.339 A  
HETATM   25  C   UNL     1     -12.560  12.781  70.819  1.00  0.00    -0.308 A  
HETATM   26  C   UNL     1     -12.040  13.985  70.352  1.00  0.00    -0.426 A  
HETATM   27  C   UNL     1     -11.201  14.001  69.236  1.00  0.00    -0.304 A  
ENDBRANCH  19  20
ENDBRANCH   8  19
TORSDOF 3
ENDMDL
MODEL      123
REMARK 921   NORMALIZED FREE ENERGY PREDICTED BY IDOCK:   -5.25 KCAL/MOL
REMARK 922        TOTAL FREE ENERGY PREDICTED BY IDOCK:   -6.49 KCAL/MOL
REMARK 923 INTER-LIGAND FREE ENERGY PREDICTED BY IDOCK:   -5.36 KCAL/MOL
REMARK 924 INTRA-LIGAND FREE ENERGY PREDICTED BY IDOCK:   -1.13 KCAL/MOL
REMARK 927      BINDING AFFINITY PREDICTED BY RF-SCORE:    0.00 PKD
ROOT
HETATM    1  C   UNL     1     -12.201  12.773  70.146  1.00  0.00    -0.249 C  
HETATM    2  N   UNL     1     -11.274  11.756  69.688  1.00  0.00    -0.200 N  
HETATM    3  C   UNL     1     -11.460  10.458  70.077  1.00  0.00    -0.308 C  
HETATM    4  C   UNL     1     -10.560   9.472  69.471  1.00  0.00    -0.238 C  
HETATM    5  O   UNL     1     -12.313  10.075  70.873  1.00  0.00    -0.307 OA 
HETATM    6  C   UNL     1      -9.682   9.767  68.493  1.00  0.00    -0.154 C  
HETATM    7  O   UNL     1     -10.055  13.342  68.601  1.00  0.00    -0.221 OA 
HETATM    8  N   UNL     1      -9.590  11.127  68.142  1.00  0.00    -0.173 N  
HETATM    9  C   UNL     1     -10.280  12.147  68.815  1.00  0.00    -0.116 C  
ENDROOT
BRANCH   6  10
HETATM   10  N   UNL     1      -8.937   8.702  67.906  1.00  0.00    -0.140 NA 
HETATM   11  N   UNL     1     -10.562   6.200  68.570  1.00  0.00    -0.240 NA 
HETATM   12  C   UNL     1      -7.579   8.284  68.278  1.00  0.00    -0.101 C  
HETATM   13  C   UNL     1      -7.591   6.906  68.931  1.00  0.00    -0.105 C  
HETATM   14  H2  UNL     1     -10.275   6.724  69.396  1.00  0.00     0.000 HD 
HETATM   15  H1  UNL     1     -11.483   6.487  68.237  1.00  0.00     0.000 HD 
HETATM   16  C   UNL     1      -8.189   5.873  67.983  1.00  0.00    -0.105 C  
HETATM   17  C   UNL     1      -9.507   7.749  66.906  1.00  0.00    -0.187 C  
HETATM   18  C   UNL     1      -9.576   6.305  67.482  1.00  0.00    -0.116 C  
ENDBRANCH   6  10
BRANCH   8  19
HETATM   19  C   UNL     1      -9.013  11.580  66.873  1.00  0.00    -0.179 C  
BRANCH  19  20
HETATM   20  C   UNL     1      -9.862  11.440  65.614  1.00  0.00    -0.274 A  
HETATM   21  C   UNL     1      -9.949  10.944  63.228  1.00  0.00    -0.399 A  
HETATM   22  C   UNL     1      -8.032  10.155  64.515  1.00  0.00    -0.147 C  
HETATM   23  N   UNL     1      -7.010   9.612  64.572  1.00  0.00    -0.111 NA 
HETATM   24  C   UNL     1      -9.300  10.837  64.466  1.00  0.00    -0.273 A  
HETATM   25  C   UNL     1     -11.157  11.632  63.121  1.00  0.00    -0.209 A  
HETATM   26  C   UNL     1     -11.761  12.153  64.263  1.00  0.00    -0.451 A  
HETATM   27  C   UNL     1     -11.137  12.028  65.506  1.00  0.00    -0.361 A  
ENDBRANCH  19  20
ENDBRANCH   8  19
TORSDOF 3
ENDMDL
MODEL      124
REMARK 921   NORMALIZED FREE ENERGY PREDICTED BY IDOCK:   -5.24 KCAL/MOL
REMARK 922        TOTAL FREE ENERGY PREDICTED BY IDOCK:   -6.48 KCAL/MOL
REMARK 923 INTER-LIGAND FREE ENERGY PREDICTED BY IDOCK:   -5.97 KCAL/MOL
REMARK 924 INTRA-LIGAND FREE ENERGY PREDICTED BY IDOCK:   -0.51 KCAL/MOL
REMARK 927      BINDING AFFINITY PREDICTED BY RF-SCORE:    0.00 PKD
ROOT
HETATM    1  C   UNL     1     -13.631  11.438  71.978  1.00  0.00    -0.024 C  
HETATM    2  N   UNL     1     -12.708  10.432  71.487  1.00  0.00    -0.422 N  
HETATM    3  C   UNL     1     -12.714   9.187  72.053  1.00  0.00    -0.398 C  
HETATM    4  C   UNL     1     -11.845   8.191  71.419  1.00  0.00    -0.329 C  
HETATM    5  O   UNL     1     -13.387   8.857  73.026  1.00  0.00    -0.308 OA 
HETATM    6  C   UNL     1     -11.170   8.412  70.274  1.00  0.00    -0.173 C  
HETATM    7  O   UNL     1     -11.827  11.938  70.024  1.00  0.00    -0.323 OA 
HETATM    8  N   UNL     1     -11.256   9.718  69.754  1.00  0.00    -0.228 N  
HETATM    9  C   UNL     1     -11.910  10.769  70.413  1.00  0.00    -0.358 C  
ENDROOT
BRANCH   6  10
HETATM   10  N   UNL     1     -10.445   7.330  69.694  1.00  0.00    -0.225 NA 
HETATM   11  N   UNL     1     -10.445   5.182  71.868  1.00  0.00    -0.215 NA 
HETATM   12  C   UNL     1      -9.032   7.349  69.293  1.00  0.00    -0.136 C  
HETATM   13  C   UNL     1      -8.197   6.436  70.185  1.00  0.00    -0.129 C  
HETATM   14  H2  UNL     1     -10.031   6.062  72.174  1.00  0.00     0.000 HD 
HETATM   15  H1  UNL     1     -11.442   5.136  72.079  1.00  0.00     0.000 HD 
HETATM   16  C   UNL     1      -8.717   5.005  70.117  1.00  0.00    -0.130 C  
HETATM   17  C   UNL     1     -10.997   5.949  69.548  1.00  0.00    -0.368 C  
HETATM   18  C   UNL     1     -10.218   4.935  70.435  1.00  0.00    -0.222 C  
ENDBRANCH   6  10
BRANCH   8  19
HETATM   19  C   UNL     1     -10.939  10.037  68.360  1.00  0.00    -0.217 C  
BRANCH  19  20
HETATM   20  C   UNL     1      -9.779  10.991  68.093  1.00  0.00    -0.180 A  
HETATM   21  C   UNL     1      -8.825  12.734  66.679  1.00  0.00    -0.113 A  
HETATM   22  C   UNL     1     -11.232  12.344  66.587  1.00  0.00    -0.315 C  
HETATM   23  N   UNL     1     -12.277  12.585  66.147  1.00  0.00    -0.608 NA 
HETATM   24  C   UNL     1      -9.942  12.026  67.144  1.00  0.00    -0.208 A  
HETATM   25  C   UNL     1      -7.550  12.433  67.157  1.00  0.00    -0.104 A  
HETATM   26  C   UNL     1      -7.392  11.476  68.155  1.00  0.00    -0.094 A  
HETATM   27  C   UNL     1      -8.501  10.783  68.645  1.00  0.00    -0.143 A  
ENDBRANCH  19  20
ENDBRANCH   8  19
TORSDOF 3
ENDMDL
MODEL      125
REMARK 921   NORMALIZED FREE ENERGY PREDICTED BY IDOCK:   -5.21 KCAL/MOL
REMARK 922        TOTAL FREE ENERGY PREDICTED BY IDOCK:   -6.44 KCAL/MOL
REMARK 923 INTER-LIGAND FREE ENERGY PREDICTED BY IDOCK:   -5.46 KCAL/MOL
REMARK 924 INTRA-LIGAND FREE ENERGY PREDICTED BY IDOCK:   -0.98 KCAL/MOL
REMARK 927      BINDING AFFINITY PREDICTED BY RF-SCORE:    0.00 PKD
ROOT
HETATM    1  C   UNL     1      -8.625   8.611  62.639  1.00  0.00    -0.114 C  
HETATM    2  N   UNL     1      -8.913   9.492  63.755  1.00  0.00    -0.215 N  
HETATM    3  C   UNL     1      -9.264  10.791  63.509  1.00  0.00    -0.257 C  
HETATM    4  C   UNL     1      -9.664  11.580  64.678  1.00  0.00    -0.242 C  
HETATM    5  O   UNL     1      -9.272  11.321  62.401  1.00  0.00    -0.304 OA 
HETATM    6  C   UNL     1      -9.815  11.058  65.911  1.00  0.00    -0.232 C  
HETATM    7  O   UNL     1      -8.429   7.815  65.217  1.00  0.00    -0.138 OA 
HETATM    8  N   UNL     1      -9.459   9.704  66.053  1.00  0.00    -0.205 N  
HETATM    9  C   UNL     1      -8.887   8.944  65.021  1.00  0.00    -0.140 C  
ENDROOT
BRANCH   6  10
HETATM   10  N   UNL     1     -10.315  11.902  66.947  1.00  0.00    -0.208 NA 
HETATM   11  N   UNL     1     -12.368  13.676  65.540  1.00  0.00    -0.450 NA 
HETATM   12  C   UNL     1      -9.541  12.889  67.711  1.00  0.00    -0.212 C  
HETATM   13  C   UNL     1      -9.986  14.309  67.379  1.00  0.00    -0.242 C  
HETATM   14  H2  UNL     1     -11.435  13.743  65.135  1.00  0.00     0.000 HD 
HETATM   15  H1  UNL     1     -12.935  12.966  65.076  1.00  0.00     0.000 HD 
HETATM   16  C   UNL     1     -11.468  14.489  67.688  1.00  0.00    -0.374 C  
HETATM   17  C   UNL     1     -11.763  12.002  67.304  1.00  0.00    -0.269 C  
HETATM   18  C   UNL     1     -12.322  13.420  66.989  1.00  0.00    -0.177 C  
ENDBRANCH   6  10
BRANCH   8  19
HETATM   19  C   UNL     1      -9.918   8.878  67.172  1.00  0.00    -0.226 C  
BRANCH  19  20
HETATM   20  C   UNL     1      -9.063   8.852  68.435  1.00  0.00    -0.137 A  
HETATM   21  C   UNL     1      -8.858   8.194  70.775  1.00  0.00    -0.149 A  
HETATM   22  C   UNL     1     -10.510   7.058  69.384  1.00  0.00    -0.214 C  
HETATM   23  N   UNL     1     -11.361   6.281  69.259  1.00  0.00    -0.407 NA 
HETATM   24  C   UNL     1      -9.457   8.032  69.518  1.00  0.00    -0.160 A  
HETATM   25  C   UNL     1      -7.865   9.154  70.965  1.00  0.00    -0.152 A  
HETATM   26  C   UNL     1      -7.410   9.905  69.884  1.00  0.00    -0.147 A  
HETATM   27  C   UNL     1      -7.980   9.732  68.621  1.00  0.00    -0.089 A  
ENDBRANCH  19  20
ENDBRANCH   8  19
TORSDOF 3
ENDMDL
MODEL      126
REMARK 921   NORMALIZED FREE ENERGY PREDICTED BY IDOCK:   -5.20 KCAL/MOL
REMARK 922        TOTAL FREE ENERGY PREDICTED BY IDOCK:   -6.43 KCAL/MOL
REMARK 923 INTER-LIGAND FREE ENERGY PREDICTED BY IDOCK:   -6.21 KCAL/MOL
REMARK 924 INTRA-LIGAND FREE ENERGY PREDICTED BY IDOCK:   -0.22 KCAL/MOL
REMARK 927      BINDING AFFINITY PREDICTED BY RF-SCORE:    0.00 PKD
ROOT
HETATM    1  C   UNL     1      -6.513  13.189  69.386  1.00  0.00    -0.095 C  
HETATM    2  N   UNL     1      -7.279  14.334  68.931  1.00  0.00    -0.122 N  
HETATM    3  C   UNL     1      -6.638  15.520  68.703  1.00  0.00    -0.103 C  
HETATM    4  C   UNL     1      -7.456  16.590  68.124  1.00  0.00    -0.161 C  
HETATM    5  O   UNL     1      -5.452  15.738  68.939  1.00  0.00    -0.102 OA 
HETATM    6  C   UNL     1      -8.726  16.414  67.708  1.00  0.00    -0.180 C  
HETATM    7  O   UNL     1      -9.194  13.106  69.035  1.00  0.00     0.214 OA 
HETATM    8  N   UNL     1      -9.284  15.147  67.960  1.00  0.00    -0.183 N  
HETATM    9  C   UNL     1      -8.623  14.142  68.682  1.00  0.00    -0.126 C  
ENDROOT
BRANCH   6  10
HETATM   10  N   UNL     1      -9.383  17.501  67.060  1.00  0.00    -0.252 NA 
HETATM   11  N   UNL     1      -7.494  19.869  67.470  1.00  0.00    -0.269 NA 
HETATM   12  C   UNL     1     -10.678  18.083  67.439  1.00  0.00    -0.318 C  
HETATM   13  C   UNL     1     -10.505  19.499  67.978  1.00  0.00    -0.528 C  
HETATM   14  H2  UNL     1      -7.800  19.442  68.345  1.00  0.00     0.000 HD 
HETATM   15  H1  UNL     1      -6.620  19.465  67.134  1.00  0.00     0.000 HD 
HETATM   16  C   UNL     1      -9.844  20.389  66.932  1.00  0.00    -0.572 C  
HETATM   17  C   UNL     1      -8.761  18.312  65.970  1.00  0.00     0.033 C  
HETATM   18  C   UNL     1      -8.527  19.781  66.426  1.00  0.00    -0.359 C  
ENDBRANCH   6  10
BRANCH   8  19
HETATM   19  C   UNL     1     -10.463  14.647  67.250  1.00  0.00    -0.266 C  
BRANCH  19  20
HETATM   20  C   UNL     1     -10.239  13.742  66.043  1.00  0.00    -0.315 A  
HETATM   21  C   UNL     1     -10.714  13.277  63.696  1.00  0.00     0.226 A  
HETATM   22  C   UNL     1     -11.073  15.541  64.533  1.00  0.00    -0.274 C  
HETATM   23  N   UNL     1     -11.411  16.636  64.364  1.00  0.00    -1.044 NA 
HETATM   24  C   UNL     1     -10.652  14.183  64.764  1.00  0.00    -0.439 A  
HETATM   25  C   UNL     1     -10.358  11.942  63.882  1.00  0.00    -0.426 A  
HETATM   26  C   UNL     1      -9.867  11.520  65.115  1.00  0.00    -0.294 A  
HETATM   27  C   UNL     1      -9.775  12.420  66.178  1.00  0.00    -0.254 A  
ENDBRANCH  19  20
ENDBRANCH   8  19
TORSDOF 3
ENDMDL
MODEL      127
REMARK 921   NORMALIZED FREE ENERGY PREDICTED BY IDOCK:   -5.20 KCAL/MOL
REMARK 922        TOTAL FREE ENERGY PREDICTED BY IDOCK:   -6.43 KCAL/MOL
REMARK 923 INTER-LIGAND FREE ENERGY PREDICTED BY IDOCK:   -5.56 KCAL/MOL
REMARK 924 INTRA-LIGAND FREE ENERGY PREDICTED BY IDOCK:   -0.86 KCAL/MOL
REMARK 927      BINDING AFFINITY PREDICTED BY RF-SCORE:    0.00 PKD
ROOT
HETATM    1  C   UNL     1     -12.930  13.667  65.121  1.00  0.00    -0.221 C  
HETATM    2  N   UNL     1     -11.846  12.849  65.631  1.00  0.00    -0.393 N  
HETATM    3  C   UNL     1     -11.303  11.882  64.829  1.00  0.00    -0.283 C  
HETATM    4  C   UNL     1     -10.131  11.187  65.367  1.00  0.00    -0.317 C  
HETATM    5  O   UNL     1     -11.720  11.574  63.716  1.00  0.00    -0.357 OA 
HETATM    6  C   UNL     1      -9.518  11.538  66.515  1.00  0.00    -0.204 C  
HETATM    7  O   UNL     1     -11.969  13.918  67.638  1.00  0.00    -0.366 OA 
HETATM    8  N   UNL     1     -10.137  12.566  67.250  1.00  0.00    -0.212 N  
HETATM    9  C   UNL     1     -11.365  13.141  66.891  1.00  0.00    -0.318 C  
ENDROOT
BRANCH   6  10
HETATM   10  N   UNL     1      -8.320  10.856  66.880  1.00  0.00    -0.129 NA 
HETATM   11  N   UNL     1      -6.840  10.478  64.233  1.00  0.00    -0.347 NA 
HETATM   12  C   UNL     1      -8.230   9.513  67.468  1.00  0.00    -0.121 C  
HETATM   13  C   UNL     1      -7.593   8.530  66.491  1.00  0.00    -0.088 C  
HETATM   14  H2  UNL     1      -7.770  10.060  64.237  1.00  0.00     0.000 HD 
HETATM   15  H1  UNL     1      -6.852  11.434  63.879  1.00  0.00     0.000 HD 
HETATM   16  C   UNL     1      -6.197   8.998  66.099  1.00  0.00    -0.063 C  
HETATM   17  C   UNL     1      -6.950  11.370  66.572  1.00  0.00    -0.062 C  
HETATM   18  C   UNL     1      -6.215  10.439  65.565  1.00  0.00    -0.125 C  
ENDBRANCH   6  10
BRANCH   8  19
HETATM   19  C   UNL     1      -9.433  13.338  68.278  1.00  0.00    -0.209 C  
BRANCH  19  20
HETATM   20  C   UNL     1      -8.940  14.733  67.908  1.00  0.00    -0.172 A  
HETATM   21  C   UNL     1      -9.218  17.146  68.130  1.00  0.00    -0.261 A  
HETATM   22  C   UNL     1     -10.213  15.696  69.822  1.00  0.00    -0.300 C  
HETATM   23  N   UNL     1     -10.841  15.554  70.786  1.00  0.00    -0.320 NA 
HETATM   24  C   UNL     1      -9.434  15.850  68.620  1.00  0.00    -0.214 A  
HETATM   25  C   UNL     1      -8.506  17.344  66.948  1.00  0.00    -0.264 A  
HETATM   26  C   UNL     1      -7.942  16.255  66.287  1.00  0.00    -0.208 A  
HETATM   27  C   UNL     1      -8.127  14.962  66.781  1.00  0.00    -0.008 A  
ENDBRANCH  19  20
ENDBRANCH   8  19
TORSDOF 3
ENDMDL
MODEL      128
REMARK 921   NORMALIZED FREE ENERGY PREDICTED BY IDOCK:   -5.19 KCAL/MOL
REMARK 922        TOTAL FREE ENERGY PREDICTED BY IDOCK:   -6.42 KCAL/MOL
REMARK 923 INTER-LIGAND FREE ENERGY PREDICTED BY IDOCK:   -5.66 KCAL/MOL
REMARK 924 INTRA-LIGAND FREE ENERGY PREDICTED BY IDOCK:   -0.77 KCAL/MOL
REMARK 927      BINDING AFFINITY PREDICTED BY RF-SCORE:    0.00 PKD
ROOT
HETATM    1  C   UNL     1     -12.520   8.322  72.564  1.00  0.00    -0.243 C  
HETATM    2  N   UNL     1     -12.001   8.886  71.332  1.00  0.00    -0.295 N  
HETATM    3  C   UNL     1     -12.334  10.169  70.992  1.00  0.00    -0.373 C  
HETATM    4  C   UNL     1     -11.670  10.709  69.802  1.00  0.00    -0.385 C  
HETATM    5  O   UNL     1     -13.125  10.879  71.607  1.00  0.00    -0.430 OA 
HETATM    6  C   UNL     1     -10.693  10.063  69.136  1.00  0.00    -0.220 C  
HETATM    7  O   UNL     1     -10.969   6.914  70.851  1.00  0.00    -0.237 OA 
HETATM    8  N   UNL     1     -10.403   8.761  69.585  1.00  0.00    -0.208 N  
HETATM    9  C   UNL     1     -11.132   8.111  70.593  1.00  0.00    -0.254 C  
ENDROOT
BRANCH   6  10
HETATM   10  N   UNL     1     -10.046  10.737  68.059  1.00  0.00    -0.171 NA 
HETATM   11  N   UNL     1     -10.278  13.697  68.782  1.00  0.00    -0.370 NA 
HETATM   12  C   UNL     1     -10.475  10.738  66.654  1.00  0.00    -0.246 C  
HETATM   13  C   UNL     1     -10.958  12.121  66.230  1.00  0.00    -0.332 C  
HETATM   14  H2  UNL     1     -11.181  13.228  68.716  1.00  0.00     0.000 HD 
HETATM   15  H1  UNL     1      -9.909  13.682  69.733  1.00  0.00     0.000 HD 
HETATM   16  C   UNL     1      -9.850  13.152  66.415  1.00  0.00    -0.279 C  
HETATM   17  C   UNL     1      -8.898  11.677  68.241  1.00  0.00    -0.167 C  
HETATM   18  C   UNL     1      -9.294  13.129  67.847  1.00  0.00    -0.215 C  
ENDBRANCH   6  10
BRANCH   8  19
HETATM   19  C   UNL     1      -9.148   8.075  69.267  1.00  0.00    -0.148 C  
BRANCH  19  20
HETATM   20  C   UNL     1      -9.153   7.077  68.115  1.00  0.00    -0.128 A  
HETATM   21  C   UNL     1      -8.597   6.610  65.786  1.00  0.00    -0.147 A  
HETATM   22  C   UNL     1      -7.450   8.444  66.914  1.00  0.00    -0.087 C  
HETATM   23  N   UNL     1      -6.695   9.323  66.899  1.00  0.00    -0.075 NA 
HETATM   24  C   UNL     1      -8.396   7.359  66.954  1.00  0.00    -0.122 A  
HETATM   25  C   UNL     1      -9.533   5.577  65.762  1.00  0.00    -0.071 A  
HETATM   26  C   UNL     1     -10.219   5.236  66.925  1.00  0.00    -0.279 A  
HETATM   27  C   UNL     1     -10.007   5.957  68.102  1.00  0.00    -0.173 A  
ENDBRANCH  19  20
ENDBRANCH   8  19
TORSDOF 3
ENDMDL
MODEL      129
REMARK 921   NORMALIZED FREE ENERGY PREDICTED BY IDOCK:   -5.18 KCAL/MOL
REMARK 922        TOTAL FREE ENERGY PREDICTED BY IDOCK:   -6.41 KCAL/MOL
REMARK 923 INTER-LIGAND FREE ENERGY PREDICTED BY IDOCK:   -5.81 KCAL/MOL
REMARK 924 INTRA-LIGAND FREE ENERGY PREDICTED BY IDOCK:   -0.60 KCAL/MOL
REMARK 927      BINDING AFFINITY PREDICTED BY RF-SCORE:    0.00 PKD
ROOT
HETATM    1  C   UNL     1     -10.981  16.561  68.550  1.00  0.00    -0.350 C  
HETATM    2  N   UNL     1     -11.107  15.168  68.933  1.00  0.00    -0.256 N  
HETATM    3  C   UNL     1     -11.928  14.833  69.974  1.00  0.00    -0.316 C  
HETATM    4  C   UNL     1     -12.101  13.397  70.218  1.00  0.00    -0.419 C  
HETATM    5  O   UNL     1     -12.519  15.634  70.693  1.00  0.00    -0.416 OA 
HETATM    6  C   UNL     1     -11.606  12.440  69.409  1.00  0.00    -0.307 C  
HETATM    7  O   UNL     1      -9.595  14.581  67.335  1.00  0.00    -0.206 OA 
HETATM    8  N   UNL     1     -10.800  12.891  68.347  1.00  0.00    -0.245 N  
HETATM    9  C   UNL     1     -10.436  14.235  68.171  1.00  0.00    -0.246 C  
ENDROOT
BRANCH   6  10
HETATM   10  N   UNL     1     -11.933  11.081  69.689  1.00  0.00    -0.328 NA 
HETATM   11  N   UNL     1     -13.318  11.190  72.411  1.00  0.00    -0.455 NA 
HETATM   12  C   UNL     1     -10.979   9.980  69.883  1.00  0.00    -0.293 C  
HETATM   13  C   UNL     1     -10.996   9.490  71.327  1.00  0.00    -0.440 C  
HETATM   14  H2  UNL     1     -12.374  11.576  72.425  1.00  0.00     0.000 HD 
HETATM   15  H1  UNL     1     -14.021  11.908  72.230  1.00  0.00     0.000 HD 
HETATM   16  C   UNL     1     -12.393   9.014  71.711  1.00  0.00    -0.438 C  
HETATM   17  C   UNL     1     -13.322  10.607  69.974  1.00  0.00     0.636 C  
HETATM   18  C   UNL     1     -13.451  10.094  71.438  1.00  0.00    -0.243 C  
ENDBRANCH   6  10
BRANCH   8  19
HETATM   19  C   UNL     1     -10.514  12.070  67.168  1.00  0.00    -0.220 C  
BRANCH  19  20
HETATM   20  C   UNL     1      -9.112  11.486  67.029  1.00  0.00    -0.175 A  
HETATM   21  C   UNL     1      -7.614   9.975  65.837  1.00  0.00    -0.114 A  
HETATM   22  C   UNL     1      -9.653  10.719  64.721  1.00  0.00    -0.262 C  
HETATM   23  N   UNL     1     -10.365  10.704  63.807  1.00  0.00    -0.224 NA 
HETATM   24  C   UNL     1      -8.783  10.748  65.869  1.00  0.00    -0.189 A  
HETATM   25  C   UNL     1      -6.763   9.937  66.940  1.00  0.00    -0.078 A  
HETATM   26  C   UNL     1      -7.034  10.729  68.053  1.00  0.00    -0.073 A  
HETATM   27  C   UNL     1      -8.181  11.524  68.085  1.00  0.00    -0.149 A  
ENDBRANCH  19  20
ENDBRANCH   8  19
TORSDOF 3
ENDMDL
MODEL      130
REMARK 921   NORMALIZED FREE ENERGY PREDICTED BY IDOCK:   -5.18 KCAL/MOL
REMARK 922        TOTAL FREE ENERGY PREDICTED BY IDOCK:   -6.41 KCAL/MOL
REMARK 923 INTER-LIGAND FREE ENERGY PREDICTED BY IDOCK:   -6.80 KCAL/MOL
REMARK 924 INTRA-LIGAND FREE ENERGY PREDICTED BY IDOCK:    0.40 KCAL/MOL
REMARK 927      BINDING AFFINITY PREDICTED BY RF-SCORE:    0.00 PKD
ROOT
HETATM    1  C   UNL     1      -6.777  14.901  67.512  1.00  0.00    -0.139 C  
HETATM    2  N   UNL     1      -8.004  14.623  68.233  1.00  0.00    -0.126 N  
HETATM    3  C   UNL     1      -8.668  15.651  68.844  1.00  0.00    -0.215 C  
HETATM    4  C   UNL     1      -9.963  15.312  69.442  1.00  0.00    -0.257 C  
HETATM    5  O   UNL     1      -8.263  16.808  68.916  1.00  0.00    -0.244 OA 
HETATM    6  C   UNL     1     -10.555  14.110  69.304  1.00  0.00    -0.104 C  
HETATM    7  O   UNL     1      -7.787  12.404  67.770  1.00  0.00    -0.130 OA 
HETATM    8  N   UNL     1      -9.803  13.130  68.631  1.00  0.00    -0.144 N  
HETATM    9  C   UNL     1      -8.481  13.329  68.204  1.00  0.00    -0.173 C  
ENDROOT
BRANCH   6  10
HETATM   10  N   UNL     1     -11.865  13.934  69.838  1.00  0.00    -0.312 NA 
HETATM   11  N   UNL     1     -11.782  15.396  72.521  1.00  0.00    -0.454 NA 
HETATM   12  C   UNL     1     -12.486  12.657  70.214  1.00  0.00    -0.090 C  
HETATM   13  C   UNL     1     -12.680  12.565  71.724  1.00  0.00    -0.244 C  
HETATM   14  H2  UNL     1     -11.082  14.659  72.443  1.00  0.00     0.000 HD 
HETATM   15  H1  UNL     1     -11.416  16.302  72.224  1.00  0.00     0.000 HD 
HETATM   16  C   UNL     1     -13.556  13.711  72.218  1.00  0.00    -0.669 C  
HETATM   17  C   UNL     1     -12.755  15.068  70.235  1.00  0.00    -0.275 C  
HETATM   18  C   UNL     1     -13.006  15.074  71.771  1.00  0.00    -0.347 C  
ENDBRANCH   6  10
BRANCH   8  19
HETATM   19  C   UNL     1     -10.408  11.930  68.046  1.00  0.00    -0.196 C  
BRANCH  19  20
HETATM   20  C   UNL     1     -10.244  11.707  66.547  1.00  0.00    -0.249 A  
HETATM   21  C   UNL     1     -11.125  12.057  64.300  1.00  0.00    -0.411 A  
HETATM   22  C   UNL     1     -11.873  13.536  66.090  1.00  0.00    -0.389 C  
HETATM   23  N   UNL     1     -12.526  14.418  66.463  1.00  0.00    -0.272 NA 
HETATM   24  C   UNL     1     -11.056  12.436  65.648  1.00  0.00    -0.343 A  
HETATM   25  C   UNL     1     -10.386  10.971  63.833  1.00  0.00    -0.436 A  
HETATM   26  C   UNL     1      -9.517  10.303  64.692  1.00  0.00    -0.351 A  
HETATM   27  C   UNL     1      -9.420  10.689  66.031  1.00  0.00    -0.233 A  
ENDBRANCH  19  20
ENDBRANCH   8  19
TORSDOF 3
ENDMDL
MODEL      131
REMARK 921   NORMALIZED FREE ENERGY PREDICTED BY IDOCK:   -5.17 KCAL/MOL
REMARK 922        TOTAL FREE ENERGY PREDICTED BY IDOCK:   -6.39 KCAL/MOL
REMARK 923 INTER-LIGAND FREE ENERGY PREDICTED BY IDOCK:   -5.66 KCAL/MOL
REMARK 924 INTRA-LIGAND FREE ENERGY PREDICTED BY IDOCK:   -0.74 KCAL/MOL
REMARK 927      BINDING AFFINITY PREDICTED BY RF-SCORE:    0.00 PKD
ROOT
HETATM    1  C   UNL     1     -10.293   7.861  69.626  1.00  0.00    -0.216 C  
HETATM    2  N   UNL     1     -10.599   9.149  69.031  1.00  0.00    -0.220 N  
HETATM    3  C   UNL     1     -10.873  10.213  69.846  1.00  0.00    -0.299 C  
HETATM    4  C   UNL     1     -11.045  11.506  69.175  1.00  0.00    -0.316 C  
HETATM    5  O   UNL     1     -10.974  10.158  71.068  1.00  0.00    -0.291 OA 
HETATM    6  C   UNL     1     -10.825  11.697  67.860  1.00  0.00    -0.210 C  
HETATM    7  O   UNL     1     -10.420   8.242  66.950  1.00  0.00    -0.319 OA 
HETATM    8  N   UNL     1     -10.516  10.543  67.115  1.00  0.00    -0.235 N  
HETATM    9  C   UNL     1     -10.526   9.249  67.657  1.00  0.00    -0.264 C  
ENDROOT
BRANCH   6  10
HETATM   10  N   UNL     1     -10.918  13.023  67.343  1.00  0.00    -0.254 NA 
HETATM   11  N   UNL     1      -8.930  14.623  69.025  1.00  0.00    -0.338 NA 
HETATM   12  C   UNL     1     -12.105  13.888  67.380  1.00  0.00    -0.345 C  
HETATM   13  C   UNL     1     -11.887  15.077  68.309  1.00  0.00    -0.295 C  
HETATM   14  H2  UNL     1      -9.651  14.164  69.582  1.00  0.00     0.000 HD 
HETATM   15  H1  UNL     1      -8.097  14.042  68.925  1.00  0.00     0.000 HD 
HETATM   16  C   UNL     1     -10.686  15.897  67.851  1.00  0.00    -0.312 C  
HETATM   17  C   UNL     1      -9.749  13.786  66.809  1.00  0.00    -0.275 C  
HETATM   18  C   UNL     1      -9.432  15.022  67.700  1.00  0.00    -0.195 C  
ENDBRANCH   6  10
BRANCH   8  19
HETATM   19  C   UNL     1      -9.871  10.598  65.801  1.00  0.00    -0.241 C  
BRANCH  19  20
HETATM   20  C   UNL     1      -8.348  10.541  65.752  1.00  0.00    -0.166 A  
HETATM   21  C   UNL     1      -6.350   9.606  64.711  1.00  0.00    -0.089 A  
HETATM   22  C   UNL     1      -8.453   9.533  63.476  1.00  0.00    -0.197 C  
HETATM   23  N   UNL     1      -9.062   9.228  62.538  1.00  0.00    -0.187 NA 
HETATM   24  C   UNL     1      -7.716   9.918  64.652  1.00  0.00    -0.142 A  
HETATM   25  C   UNL     1      -5.604   9.920  65.846  1.00  0.00    -0.051 A  
HETATM   26  C   UNL     1      -6.198  10.612  66.898  1.00  0.00    -0.070 A  
HETATM   27  C   UNL     1      -7.551  10.952  66.838  1.00  0.00    -0.128 A  
ENDBRANCH  19  20
ENDBRANCH   8  19
TORSDOF 3
ENDMDL
MODEL      132
REMARK 921   NORMALIZED FREE ENERGY PREDICTED BY IDOCK:   -5.14 KCAL/MOL
REMARK 922        TOTAL FREE ENERGY PREDICTED BY IDOCK:   -6.36 KCAL/MOL
REMARK 923 INTER-LIGAND FREE ENERGY PREDICTED BY IDOCK:   -5.25 KCAL/MOL
REMARK 924 INTRA-LIGAND FREE ENERGY PREDICTED BY IDOCK:   -1.11 KCAL/MOL
REMARK 927      BINDING AFFINITY PREDICTED BY RF-SCORE:    0.00 PKD
ROOT
HETATM    1  C   UNL     1      -8.111   8.377  69.570  1.00  0.00    -0.113 C  
HETATM    2  N   UNL     1      -8.463   9.773  69.390  1.00  0.00    -0.144 N  
HETATM    3  C   UNL     1      -7.597  10.741  69.821  1.00  0.00     0.033 C  
HETATM    4  C   UNL     1      -7.963  12.122  69.489  1.00  0.00     0.939 C  
HETATM    5  O   UNL     1      -6.560  10.533  70.443  1.00  0.00    -0.192 OA 
HETATM    6  C   UNL     1      -9.006  12.446  68.700  1.00  0.00     0.036 C  
HETATM    7  O   UNL     1     -10.458   9.164  68.477  1.00  0.00    -0.210 OA 
HETATM    8  N   UNL     1      -9.816  11.374  68.282  1.00  0.00    -0.194 N  
HETATM    9  C   UNL     1      -9.636  10.053  68.721  1.00  0.00    -0.168 C  
ENDROOT
BRANCH   6  10
HETATM   10  N   UNL     1      -9.197  13.818  68.359  1.00  0.00    -0.198 NA 
HETATM   11  N   UNL     1     -12.228  14.109  68.100  1.00  0.00    -0.560 NA 
HETATM   12  C   UNL     1      -8.727  14.482  67.135  1.00  0.00    -0.219 C  
HETATM   13  C   UNL     1      -9.899  14.882  66.246  1.00  0.00    -0.315 C  
HETATM   14  H2  UNL     1     -11.838  13.404  67.476  1.00  0.00     0.000 HD 
HETATM   15  H1  UNL     1     -12.527  13.708  68.990  1.00  0.00     0.000 HD 
HETATM   16  C   UNL     1     -10.839  15.821  66.994  1.00  0.00    -0.273 C  
HETATM   17  C   UNL     1     -10.048  14.756  69.152  1.00  0.00    -0.197 C  
HETATM   18  C   UNL     1     -11.288  15.217  68.334  1.00  0.00    -0.329 C  
ENDBRANCH   6  10
BRANCH   8  19
HETATM   19  C   UNL     1     -10.724  11.467  67.136  1.00  0.00    -0.254 C  
BRANCH  19  20
HETATM   20  C   UNL     1     -10.112  11.447  65.739  1.00  0.00    -0.289 A  
HETATM   21  C   UNL     1     -10.459  11.621  63.331  1.00  0.00    -0.482 A  
HETATM   22  C   UNL     1     -12.147  12.555  64.824  1.00  0.00    -0.434 C  
HETATM   23  N   UNL     1     -13.161  13.091  64.990  1.00  0.00    -0.685 NA 
HETATM   24  C   UNL     1     -10.886  11.885  64.640  1.00  0.00    -0.363 A  
HETATM   25  C   UNL     1      -9.266  10.937  63.102  1.00  0.00    -0.314 A  
HETATM   26  C   UNL     1      -8.455  10.579  64.176  1.00  0.00    -0.122 A  
HETATM   27  C   UNL     1      -8.857  10.861  65.483  1.00  0.00    -0.199 A  
ENDBRANCH  19  20
ENDBRANCH   8  19
TORSDOF 3
ENDMDL
MODEL      133
REMARK 921   NORMALIZED FREE ENERGY PREDICTED BY IDOCK:   -5.14 KCAL/MOL
REMARK 922        TOTAL FREE ENERGY PREDICTED BY IDOCK:   -6.35 KCAL/MOL
REMARK 923 INTER-LIGAND FREE ENERGY PREDICTED BY IDOCK:   -5.39 KCAL/MOL
REMARK 924 INTRA-LIGAND FREE ENERGY PREDICTED BY IDOCK:   -0.96 KCAL/MOL
REMARK 927      BINDING AFFINITY PREDICTED BY RF-SCORE:    0.00 PKD
ROOT
HETATM    1  C   UNL     1      -8.108  12.219  67.881  1.00  0.00    -0.155 C  
HETATM    2  N   UNL     1      -8.711  10.900  67.854  1.00  0.00    -0.128 N  
HETATM    3  C   UNL     1      -8.117   9.907  67.124  1.00  0.00    -0.117 C  
HETATM    4  C   UNL     1      -8.714   8.574  67.250  1.00  0.00    -0.133 C  
HETATM    5  O   UNL     1      -7.140  10.056  66.396  1.00  0.00    -0.095 OA 
HETATM    6  C   UNL     1      -9.701   8.279  68.119  1.00  0.00    -0.158 C  
HETATM    7  O   UNL     1     -10.420  11.644  69.163  1.00  0.00    -0.172 OA 
HETATM    8  N   UNL     1     -10.222   9.365  68.847  1.00  0.00    -0.194 N  
HETATM    9  C   UNL     1      -9.830  10.696  68.635  1.00  0.00    -0.179 C  
ENDROOT
BRANCH   6  10
HETATM   10  N   UNL     1     -10.124   6.922  68.229  1.00  0.00    -0.160 NA 
HETATM   11  N   UNL     1      -7.626   5.302  67.539  1.00  0.00    -0.087 NA 
HETATM   12  C   UNL     1     -11.145   6.262  67.404  1.00  0.00    -0.287 C  
HETATM   13  C   UNL     1     -10.521   5.202  66.504  1.00  0.00    -0.346 C  
HETATM   14  H2  UNL     1      -7.908   5.941  66.796  1.00  0.00     0.000 HD 
HETATM   15  H1  UNL     1      -6.951   5.729  68.174  1.00  0.00     0.000 HD 
HETATM   16  C   UNL     1      -9.799   4.152  67.341  1.00  0.00    -0.152 C  
HETATM   17  C   UNL     1      -9.467   5.921  69.123  1.00  0.00    -0.128 C  
HETATM   18  C   UNL     1      -8.782   4.795  68.296  1.00  0.00    -0.102 C  
ENDBRANCH   6  10
BRANCH   8  19
HETATM   19  C   UNL     1     -10.988   9.194  70.084  1.00  0.00    -0.239 C  
BRANCH  19  20
HETATM   20  C   UNL     1     -10.311   8.477  71.248  1.00  0.00    -0.288 A  
HETATM   21  C   UNL     1     -10.561   7.208  73.316  1.00  0.00    -0.405 A  
HETATM   22  C   UNL     1     -12.441   7.291  71.763  1.00  0.00    -0.343 C  
HETATM   23  N   UNL     1     -13.531   7.012  71.482  1.00  0.00    -0.332 NA 
HETATM   24  C   UNL     1     -11.087   7.651  72.094  1.00  0.00    -0.314 A  
HETATM   25  C   UNL     1      -9.270   7.567  73.700  1.00  0.00    -0.320 A  
HETATM   26  C   UNL     1      -8.469   8.307  72.834  1.00  0.00    -0.260 A  
HETATM   27  C   UNL     1      -8.972   8.730  71.603  1.00  0.00    -0.301 A  
ENDBRANCH  19  20
ENDBRANCH   8  19
TORSDOF 3
ENDMDL
MODEL      134
REMARK 921   NORMALIZED FREE ENERGY PREDICTED BY IDOCK:   -5.12 KCAL/MOL
REMARK 922        TOTAL FREE ENERGY PREDICTED BY IDOCK:   -6.33 KCAL/MOL
REMARK 923 INTER-LIGAND FREE ENERGY PREDICTED BY IDOCK:   -5.88 KCAL/MOL
REMARK 924 INTRA-LIGAND FREE ENERGY PREDICTED BY IDOCK:   -0.45 KCAL/MOL
REMARK 927      BINDING AFFINITY PREDICTED BY RF-SCORE:    0.00 PKD
ROOT
HETATM    1  C   UNL     1     -11.897  12.792  67.060  1.00  0.00    -0.361 C  
HETATM    2  N   UNL     1     -11.435  11.699  67.895  1.00  0.00    -0.301 N  
HETATM    3  C   UNL     1     -11.633  11.761  69.247  1.00  0.00    -0.315 C  
HETATM    4  C   UNL     1     -11.255  10.565  70.005  1.00  0.00    -0.386 C  
HETATM    5  O   UNL     1     -12.101  12.725  69.847  1.00  0.00    -0.308 OA 
HETATM    6  C   UNL     1     -10.858   9.413  69.430  1.00  0.00    -0.189 C  
HETATM    7  O   UNL     1     -10.582  10.647  66.064  1.00  0.00    -0.210 OA 
HETATM    8  N   UNL     1     -10.718   9.443  68.030  1.00  0.00    -0.220 N  
HETATM    9  C   UNL     1     -10.876  10.608  67.263  1.00  0.00    -0.287 C  
ENDROOT
BRANCH   6  10
HETATM   10  N   UNL     1     -10.622   8.283  70.268  1.00  0.00    -0.223 NA 
HETATM   11  N   UNL     1     -12.628   8.613  72.550  1.00  0.00    -0.505 NA 
HETATM   12  C   UNL     1      -9.383   7.989  70.999  1.00  0.00    -0.149 C  
HETATM   13  C   UNL     1      -9.595   8.108  72.505  1.00  0.00    -0.347 C  
HETATM   14  H2  UNL     1     -11.996   9.407  72.453  1.00  0.00     0.000 HD 
HETATM   15  H1  UNL     1     -13.489   8.744  72.019  1.00  0.00     0.000 HD 
HETATM   16  C   UNL     1     -10.687   7.150  72.966  1.00  0.00    -0.359 C  
HETATM   17  C   UNL     1     -11.680   7.296  70.641  1.00  0.00    -0.275 C  
HETATM   18  C   UNL     1     -11.984   7.347  72.166  1.00  0.00    -0.270 C  
ENDBRANCH   6  10
BRANCH   8  19
HETATM   19  C   UNL     1     -10.690   8.229  67.211  1.00  0.00    -0.171 C  
BRANCH  19  20
HETATM   20  C   UNL     1      -9.717   7.124  67.606  1.00  0.00    -0.172 A  
HETATM   21  C   UNL     1      -7.425   6.289  67.590  1.00  0.00    -0.089 A  
HETATM   22  C   UNL     1      -7.800   8.676  67.248  1.00  0.00    -0.097 C  
HETATM   23  N   UNL     1      -7.394   9.742  67.041  1.00  0.00    -0.091 NA 
HETATM   24  C   UNL     1      -8.326   7.360  67.502  1.00  0.00    -0.113 A  
HETATM   25  C   UNL     1      -7.889   4.991  67.792  1.00  0.00    -0.091 A  
HETATM   26  C   UNL     1      -9.250   4.762  67.983  1.00  0.00    -0.151 A  
HETATM   27  C   UNL     1     -10.154   5.824  67.925  1.00  0.00    -0.197 A  
ENDBRANCH  19  20
ENDBRANCH   8  19
TORSDOF 3
ENDMDL
MODEL      135
REMARK 921   NORMALIZED FREE ENERGY PREDICTED BY IDOCK:   -5.12 KCAL/MOL
REMARK 922        TOTAL FREE ENERGY PREDICTED BY IDOCK:   -6.33 KCAL/MOL
REMARK 923 INTER-LIGAND FREE ENERGY PREDICTED BY IDOCK:   -5.21 KCAL/MOL
REMARK 924 INTRA-LIGAND FREE ENERGY PREDICTED BY IDOCK:   -1.12 KCAL/MOL
REMARK 927      BINDING AFFINITY PREDICTED BY RF-SCORE:    0.00 PKD
ROOT
HETATM    1  C   UNL     1     -13.345  10.065  70.707  1.00  0.00    -0.140 C  
HETATM    2  N   UNL     1     -11.951  10.238  70.345  1.00  0.00    -0.293 N  
HETATM    3  C   UNL     1     -11.153   9.135  70.215  1.00  0.00    -0.239 C  
HETATM    4  C   UNL     1      -9.794   9.382  69.723  1.00  0.00    -0.218 C  
HETATM    5  O   UNL     1     -11.494   7.983  70.470  1.00  0.00    -0.264 OA 
HETATM    6  C   UNL     1      -9.365  10.584  69.292  1.00  0.00    -0.160 C  
HETATM    7  O   UNL     1     -12.221  12.499  70.345  1.00  0.00    -0.348 OA 
HETATM    8  N   UNL     1     -10.275  11.648  69.439  1.00  0.00     0.131 N  
HETATM    9  C   UNL     1     -11.517  11.520  70.079  1.00  0.00    -0.220 C  
ENDROOT
BRANCH   6  10
HETATM   10  N   UNL     1      -8.057  10.677  68.733  1.00  0.00    -0.130 NA 
HETATM   11  N   UNL     1      -7.141  13.506  69.439  1.00  0.00    -0.311 NA 
HETATM   12  C   UNL     1      -7.714  10.599  67.307  1.00  0.00    -0.108 C  
HETATM   13  C   UNL     1      -7.206  11.941  66.792  1.00  0.00    -0.007 C  
HETATM   14  H2  UNL     1      -8.004  13.487  68.897  1.00  0.00     0.000 HD 
HETATM   15  H1  UNL     1      -7.321  13.511  70.443  1.00  0.00     0.000 HD 
HETATM   16  C   UNL     1      -5.977  12.382  67.577  1.00  0.00    -0.144 C  
HETATM   17  C   UNL     1      -6.840  11.020  69.531  1.00  0.00    -0.133 C  
HETATM   18  C   UNL     1      -6.247  12.390  69.090  1.00  0.00    -0.090 C  
ENDBRANCH   6  10
BRANCH   8  19
HETATM   19  C   UNL     1     -10.155  12.901  68.688  1.00  0.00    -0.128 C  
BRANCH  19  20
HETATM   20  C   UNL     1     -10.585  12.899  67.225  1.00  0.00    -0.243 A  
HETATM   21  C   UNL     1     -10.711  14.107  65.110  1.00  0.00    -0.400 A  
HETATM   22  C   UNL     1      -9.086  14.839  66.777  1.00  0.00    -0.267 C  
HETATM   23  N   UNL     1      -8.253  15.567  67.122  1.00  0.00    -0.196 NA 
HETATM   24  C   UNL     1     -10.121  13.925  66.369  1.00  0.00    -0.298 A  
HETATM   25  C   UNL     1     -11.746  13.275  64.688  1.00  0.00    -0.403 A  
HETATM   26  C   UNL     1     -12.149  12.209  65.489  1.00  0.00    -0.209 A  
HETATM   27  C   UNL     1     -11.550  12.000  66.733  1.00  0.00    -0.391 A  
ENDBRANCH  19  20
ENDBRANCH   8  19
TORSDOF 3
ENDMDL
MODEL      136
REMARK 921   NORMALIZED FREE ENERGY PREDICTED BY IDOCK:   -5.11 KCAL/MOL
REMARK 922        TOTAL FREE ENERGY PREDICTED BY IDOCK:   -6.33 KCAL/MOL
REMARK 923 INTER-LIGAND FREE ENERGY PREDICTED BY IDOCK:   -5.42 KCAL/MOL
REMARK 924 INTRA-LIGAND FREE ENERGY PREDICTED BY IDOCK:   -0.91 KCAL/MOL
REMARK 927      BINDING AFFINITY PREDICTED BY RF-SCORE:    0.00 PKD
ROOT
HETATM    1  C   UNL     1      -8.921   9.534  64.013  1.00  0.00    -0.188 C  
HETATM    2  N   UNL     1      -9.016  10.684  64.892  1.00  0.00    -0.195 N  
HETATM    3  C   UNL     1      -9.956  11.644  64.637  1.00  0.00    -0.253 C  
HETATM    4  C   UNL     1     -10.075  12.707  65.640  1.00  0.00    -0.285 C  
HETATM    5  O   UNL     1     -10.692  11.667  63.654  1.00  0.00    -0.363 OA 
HETATM    6  C   UNL     1      -9.411  12.702  66.812  1.00  0.00    -0.232 C  
HETATM    7  O   UNL     1      -7.257   9.909  66.112  1.00  0.00    -0.096 OA 
HETATM    8  N   UNL     1      -8.490  11.653  66.991  1.00  0.00    -0.162 N  
HETATM    9  C   UNL     1      -8.186  10.713  65.994  1.00  0.00    -0.158 C  
ENDROOT
BRANCH   6  10
HETATM   10  N   UNL     1      -9.691  13.735  67.755  1.00  0.00    -0.224 NA 
HETATM   11  N   UNL     1     -12.643  14.382  67.297  1.00  0.00    -0.416 NA 
HETATM   12  C   UNL     1      -9.092  15.076  67.777  1.00  0.00    -0.180 C  
HETATM   13  C   UNL     1     -10.126  16.144  67.440  1.00  0.00    -0.257 C  
HETATM   14  H2  UNL     1     -12.072  14.498  66.460  1.00  0.00     0.000 HD 
HETATM   15  H1  UNL     1     -13.046  13.447  67.357  1.00  0.00     0.000 HD 
HETATM   16  C   UNL     1     -11.282  16.097  68.433  1.00  0.00    -0.358 C  
HETATM   17  C   UNL     1     -10.769  13.642  68.786  1.00  0.00    -0.244 C  
HETATM   18  C   UNL     1     -11.890  14.688  68.524  1.00  0.00    -0.311 C  
ENDBRANCH   6  10
BRANCH   8  19
HETATM   19  C   UNL     1      -7.987  11.257  68.309  1.00  0.00    -0.134 C  
BRANCH  19  20
HETATM   20  C   UNL     1      -8.867  10.353  69.166  1.00  0.00    -0.180 A  
HETATM   21  C   UNL     1      -8.997   8.624  70.881  1.00  0.00    -0.227 A  
HETATM   22  C   UNL     1      -6.957   9.953  70.715  1.00  0.00     0.004 C  
HETATM   23  N   UNL     1      -5.881  10.198  71.071  1.00  0.00    -0.178 NA 
HETATM   24  C   UNL     1      -8.290   9.661  70.256  1.00  0.00    -0.216 A  
HETATM   25  C   UNL     1     -10.274   8.276  70.444  1.00  0.00    -0.209 A  
HETATM   26  C   UNL     1     -10.883   9.010  69.429  1.00  0.00    -0.152 A  
HETATM   27  C   UNL     1     -10.200  10.062  68.817  1.00  0.00    -0.201 A  
ENDBRANCH  19  20
ENDBRANCH   8  19
TORSDOF 3
ENDMDL
MODEL      137
REMARK 921   NORMALIZED FREE ENERGY PREDICTED BY IDOCK:   -5.10 KCAL/MOL
REMARK 922        TOTAL FREE ENERGY PREDICTED BY IDOCK:   -6.31 KCAL/MOL
REMARK 923 INTER-LIGAND FREE ENERGY PREDICTED BY IDOCK:   -5.71 KCAL/MOL
REMARK 924 INTRA-LIGAND FREE ENERGY PREDICTED BY IDOCK:   -0.60 KCAL/MOL
REMARK 927      BINDING AFFINITY PREDICTED BY RF-SCORE:    0.00 PKD
ROOT
HETATM    1  C   UNL     1     -11.327  12.957  68.517  1.00  0.00    -0.289 C  
HETATM    2  N   UNL     1     -11.307  11.722  69.277  1.00  0.00    -0.269 N  
HETATM    3  C   UNL     1     -12.085  11.614  70.397  1.00  0.00    -0.373 C  
HETATM    4  C   UNL     1     -12.107  10.295  71.037  1.00  0.00    -0.487 C  
HETATM    5  O   UNL     1     -12.752  12.523  70.883  1.00  0.00    -0.285 OA 
HETATM    6  C   UNL     1     -11.518   9.202  70.512  1.00  0.00    -0.229 C  
HETATM    7  O   UNL     1      -9.748  10.861  67.858  1.00  0.00    -0.161 OA 
HETATM    8  N   UNL     1     -10.768   9.414  69.340  1.00  0.00    -0.226 N  
HETATM    9  C   UNL     1     -10.545  10.683  68.784  1.00  0.00    -0.206 C  
ENDROOT
BRANCH   6  10
HETATM   10  N   UNL     1     -11.702   7.951  71.170  1.00  0.00    -0.284 NA 
HETATM   11  N   UNL     1      -9.165   7.605  72.838  1.00  0.00    -0.168 NA 
HETATM   12  C   UNL     1     -11.815   6.637  70.522  1.00  0.00    -0.370 C  
HETATM   13  C   UNL     1     -10.604   5.766  70.837  1.00  0.00    -0.329 C  
HETATM   14  H2  UNL     1      -8.978   7.716  71.842  1.00  0.00     0.000 HD 
HETATM   15  H1  UNL     1      -9.147   8.498  73.332  1.00  0.00     0.000 HD 
HETATM   16  C   UNL     1     -10.467   5.570  72.343  1.00  0.00    -0.261 C  
HETATM   17  C   UNL     1     -11.657   7.784  72.655  1.00  0.00    -0.344 C  
HETATM   18  C   UNL     1     -10.440   6.914  73.086  1.00  0.00    -0.287 C  
ENDBRANCH   6  10
BRANCH   8  19
HETATM   19  C   UNL     1     -10.402   8.327  68.428  1.00  0.00    -0.199 C  
BRANCH  19  20
HETATM   20  C   UNL     1      -9.030   7.686  68.597  1.00  0.00    -0.133 A  
HETATM   21  C   UNL     1      -7.634   5.702  68.346  1.00  0.00    -0.081 A  
HETATM   22  C   UNL     1      -9.682   5.862  67.029  1.00  0.00    -0.141 C  
HETATM   23  N   UNL     1     -10.426   5.412  66.263  1.00  0.00    -0.240 NA 
HETATM   24  C   UNL     1      -8.771   6.438  67.985  1.00  0.00    -0.115 A  
HETATM   25  C   UNL     1      -6.745   6.197  69.299  1.00  0.00    -0.060 A  
HETATM   26  C   UNL     1      -6.946   7.464  69.842  1.00  0.00    -0.060 A  
HETATM   27  C   UNL     1      -8.060   8.218  69.469  1.00  0.00    -0.114 A  
ENDBRANCH  19  20
ENDBRANCH   8  19
TORSDOF 3
ENDMDL
MODEL      138
REMARK 921   NORMALIZED FREE ENERGY PREDICTED BY IDOCK:   -5.10 KCAL/MOL
REMARK 922        TOTAL FREE ENERGY PREDICTED BY IDOCK:   -6.31 KCAL/MOL
REMARK 923 INTER-LIGAND FREE ENERGY PREDICTED BY IDOCK:   -5.97 KCAL/MOL
REMARK 924 INTRA-LIGAND FREE ENERGY PREDICTED BY IDOCK:   -0.34 KCAL/MOL
REMARK 927      BINDING AFFINITY PREDICTED BY RF-SCORE:    0.00 PKD
ROOT
HETATM    1  C   UNL     1     -12.348  13.538  69.808  1.00  0.00    -0.190 C  
HETATM    2  N   UNL     1     -12.098  12.194  70.292  1.00  0.00    -0.338 N  
HETATM    3  C   UNL     1     -12.778  11.741  71.390  1.00  0.00    -0.308 C  
HETATM    4  C   UNL     1     -12.566  10.333  71.739  1.00  0.00    -0.488 C  
HETATM    5  O   UNL     1     -13.538  12.418  72.076  1.00  0.00    -0.421 OA 
HETATM    6  C   UNL     1     -11.859   9.475  70.978  1.00  0.00    -0.330 C  
HETATM    7  O   UNL     1     -10.526  11.892  68.673  1.00  0.00    -0.211 OA 
HETATM    8  N   UNL     1     -11.225  10.033  69.852  1.00  0.00    -0.263 N  
HETATM    9  C   UNL     1     -11.227  11.407  69.567  1.00  0.00    -0.256 C  
ENDROOT
BRANCH   6  10
HETATM   10  N   UNL     1     -11.815   8.104  71.365  1.00  0.00    -0.289 NA 
HETATM   11  N   UNL     1      -9.300   7.895  73.090  1.00  0.00    -0.248 NA 
HETATM   12  C   UNL     1     -11.657   6.952  70.467  1.00  0.00    -0.346 C  
HETATM   13  C   UNL     1     -10.309   6.271  70.681  1.00  0.00    -0.254 C  
HETATM   14  H2  UNL     1      -9.114   8.240  72.148  1.00  0.00     0.000 HD 
HETATM   15  H1  UNL     1      -9.467   8.656  73.749  1.00  0.00     0.000 HD 
HETATM   16  C   UNL     1     -10.174   5.801  72.124  1.00  0.00    -0.240 C  
HETATM   17  C   UNL     1     -11.775   7.648  72.788  1.00  0.00    -0.223 C  
HETATM   18  C   UNL     1     -10.425   6.947  73.116  1.00  0.00    -0.287 C  
ENDBRANCH   6  10
BRANCH   8  19
HETATM   19  C   UNL     1     -10.764   9.224  68.721  1.00  0.00    -0.154 C  
BRANCH  19  20
HETATM   20  C   UNL     1      -9.262   9.128  68.479  1.00  0.00    -0.136 A  
HETATM   21  C   UNL     1      -7.437   8.968  66.869  1.00  0.00    -0.090 A  
HETATM   22  C   UNL     1      -9.593   9.822  66.109  1.00  0.00    -0.227 C  
HETATM   23  N   UNL     1     -10.278  10.224  65.265  1.00  0.00    -0.289 NA 
HETATM   24  C   UNL     1      -8.760   9.321  67.171  1.00  0.00    -0.134 A  
HETATM   25  C   UNL     1      -6.604   8.439  67.854  1.00  0.00    -0.061 A  
HETATM   26  C   UNL     1      -7.064   8.327  69.164  1.00  0.00    -0.064 A  
HETATM   27  C   UNL     1      -8.371   8.701  69.483  1.00  0.00    -0.117 A  
ENDBRANCH  19  20
ENDBRANCH   8  19
TORSDOF 3
ENDMDL
MODEL      139
REMARK 921   NORMALIZED FREE ENERGY PREDICTED BY IDOCK:   -5.09 KCAL/MOL
REMARK 922        TOTAL FREE ENERGY PREDICTED BY IDOCK:   -6.30 KCAL/MOL
REMARK 923 INTER-LIGAND FREE ENERGY PREDICTED BY IDOCK:   -5.35 KCAL/MOL
REMARK 924 INTRA-LIGAND FREE ENERGY PREDICTED BY IDOCK:   -0.96 KCAL/MOL
REMARK 927      BINDING AFFINITY PREDICTED BY RF-SCORE:    0.00 PKD
ROOT
HETATM    1  C   UNL     1      -8.963   6.231  66.147  1.00  0.00    -0.153 C  
HETATM    2  N   UNL     1      -9.521   6.281  67.485  1.00  0.00    -0.113 N  
HETATM    3  C   UNL     1      -9.224   5.282  68.371  1.00  0.00    -0.113 C  
HETATM    4  C   UNL     1      -9.719   5.469  69.738  1.00  0.00    -0.236 C  
HETATM    5  O   UNL     1      -8.581   4.270  68.103  1.00  0.00    -0.093 OA 
HETATM    6  C   UNL     1     -10.318   6.598  70.165  1.00  0.00    -0.203 C  
HETATM    7  O   UNL     1     -10.641   8.192  66.958  1.00  0.00    -0.329 OA 
HETATM    8  N   UNL     1     -10.548   7.579  69.182  1.00  0.00    -0.217 N  
HETATM    9  C   UNL     1     -10.275   7.386  67.819  1.00  0.00    -0.196 C  
ENDROOT
BRANCH   6  10
HETATM   10  N   UNL     1     -10.658   6.705  71.545  1.00  0.00    -0.220 NA 
HETATM   11  N   UNL     1      -8.173   5.689  73.007  1.00  0.00    -0.118 NA 
HETATM   12  C   UNL     1     -11.730   5.973  72.234  1.00  0.00    -0.284 C  
HETATM   13  C   UNL     1     -11.156   4.973  73.232  1.00  0.00    -0.406 C  
HETATM   14  H2  UNL     1      -8.568   5.004  72.362  1.00  0.00     0.000 HD 
HETATM   15  H1  UNL     1      -7.454   6.261  72.564  1.00  0.00     0.000 HD 
HETATM   16  C   UNL     1     -10.294   5.688  74.266  1.00  0.00    -0.289 C  
HETATM   17  C   UNL     1      -9.856   7.485  72.536  1.00  0.00    -0.176 C  
HETATM   18  C   UNL     1      -9.211   6.549  73.599  1.00  0.00    -0.135 C  
ENDBRANCH   6  10
BRANCH   8  19
HETATM   19  C   UNL     1     -10.808   8.983  69.511  1.00  0.00    -0.166 C  
BRANCH  19  20
HETATM   20  C   UNL     1      -9.636   9.957  69.456  1.00  0.00    -0.242 A  
HETATM   21  C   UNL     1      -8.600  11.881  68.372  1.00  0.00    -0.152 A  
HETATM   22  C   UNL     1     -10.997  11.526  68.080  1.00  0.00    -0.228 C  
HETATM   23  N   UNL     1     -12.013  11.837  67.619  1.00  0.00    -0.606 NA 
HETATM   24  C   UNL     1      -9.743  11.121  68.661  1.00  0.00    -0.202 A  
HETATM   25  C   UNL     1      -7.356  11.504  68.876  1.00  0.00    -0.116 A  
HETATM   26  C   UNL     1      -7.257  10.409  69.731  1.00  0.00    -0.155 A  
HETATM   27  C   UNL     1      -8.393   9.661  70.047  1.00  0.00    -0.197 A  
ENDBRANCH  19  20
ENDBRANCH   8  19
TORSDOF 3
ENDMDL
MODEL      140
REMARK 921   NORMALIZED FREE ENERGY PREDICTED BY IDOCK:   -5.09 KCAL/MOL
REMARK 922        TOTAL FREE ENERGY PREDICTED BY IDOCK:   -6.30 KCAL/MOL
REMARK 923 INTER-LIGAND FREE ENERGY PREDICTED BY IDOCK:   -5.07 KCAL/MOL
REMARK 924 INTRA-LIGAND FREE ENERGY PREDICTED BY IDOCK:   -1.23 KCAL/MOL
REMARK 927      BINDING AFFINITY PREDICTED BY RF-SCORE:    0.00 PKD
ROOT
HETATM    1  C   UNL     1     -10.012  13.027  67.502  1.00  0.00    -0.212 C  
HETATM    2  N   UNL     1     -10.008  11.889  68.403  1.00  0.00    -0.201 N  
HETATM    3  C   UNL     1     -11.167  11.534  69.037  1.00  0.00    -0.262 C  
HETATM    4  C   UNL     1     -11.112  10.301  69.829  1.00  0.00    -0.340 C  
HETATM    5  O   UNL     1     -12.222  12.160  68.981  1.00  0.00    -0.200 OA 
HETATM    6  C   UNL     1     -10.047   9.476  69.849  1.00  0.00    -0.232 C  
HETATM    7  O   UNL     1      -7.776  11.606  68.050  1.00  0.00    -0.107 OA 
HETATM    8  N   UNL     1      -8.916   9.917  69.137  1.00  0.00    -0.157 N  
HETATM    9  C   UNL     1      -8.834  11.174  68.520  1.00  0.00    -0.161 C  
ENDROOT
BRANCH   6  10
HETATM   10  N   UNL     1     -10.153   8.250  70.569  1.00  0.00    -0.194 NA 
HETATM   11  N   UNL     1     -13.164   7.798  70.835  1.00  0.00    -0.536 NA 
HETATM   12  C   UNL     1      -9.693   8.008  71.943  1.00  0.00    -0.190 C  
HETATM   13  C   UNL     1     -10.872   7.786  72.885  1.00  0.00    -0.453 C  
HETATM   14  H2  UNL     1     -12.854   8.683  71.235  1.00  0.00     0.000 HD 
HETATM   15  H1  UNL     1     -13.451   7.899  69.861  1.00  0.00     0.000 HD 
HETATM   16  C   UNL     1     -11.706   6.598  72.421  1.00  0.00    -0.260 C  
HETATM   17  C   UNL     1     -10.898   7.056  70.065  1.00  0.00    -0.261 C  
HETATM   18  C   UNL     1     -12.138   6.750  70.955  1.00  0.00    -0.367 C  
ENDBRANCH   6  10
BRANCH   8  19
HETATM   19  C   UNL     1      -7.843   9.013  68.718  1.00  0.00    -0.096 C  
BRANCH  19  20
HETATM   20  C   UNL     1      -8.170   7.957  67.666  1.00  0.00    -0.124 A  
HETATM   21  C   UNL     1      -7.914   5.655  66.904  1.00  0.00    -0.102 A  
HETATM   22  C   UNL     1      -7.502   6.158  69.255  1.00  0.00    -0.089 C  
HETATM   23  N   UNL     1      -7.193   5.820  70.320  1.00  0.00    -0.072 NA 
HETATM   24  C   UNL     1      -7.884   6.600  67.939  1.00  0.00    -0.112 A  
HETATM   25  C   UNL     1      -8.236   6.042  65.604  1.00  0.00    -0.139 A  
HETATM   26  C   UNL     1      -8.604   7.360  65.344  1.00  0.00    -0.058 A  
HETATM   27  C   UNL     1      -8.605   8.304  66.373  1.00  0.00    -0.144 A  
ENDBRANCH  19  20
ENDBRANCH   8  19
TORSDOF 3
ENDMDL
MODEL      141
REMARK 921   NORMALIZED FREE ENERGY PREDICTED BY IDOCK:   -5.09 KCAL/MOL
REMARK 922        TOTAL FREE ENERGY PREDICTED BY IDOCK:   -6.30 KCAL/MOL
REMARK 923 INTER-LIGAND FREE ENERGY PREDICTED BY IDOCK:   -5.26 KCAL/MOL
REMARK 924 INTRA-LIGAND FREE ENERGY PREDICTED BY IDOCK:   -1.04 KCAL/MOL
REMARK 927      BINDING AFFINITY PREDICTED BY RF-SCORE:    0.00 PKD
ROOT
HETATM    1  C   UNL     1      -9.492   4.396  68.354  1.00  0.00    -0.154 C  
HETATM    2  N   UNL     1      -9.674   5.802  68.661  1.00  0.00    -0.126 N  
HETATM    3  C   UNL     1      -9.198   6.295  69.845  1.00  0.00    -0.151 C  
HETATM    4  C   UNL     1      -9.307   7.746  70.026  1.00  0.00    -0.157 C  
HETATM    5  O   UNL     1      -8.694   5.619  70.738  1.00  0.00    -0.128 OA 
HETATM    6  C   UNL     1      -9.721   8.587  69.058  1.00  0.00    -0.170 C  
HETATM    7  O   UNL     1     -10.808   6.093  66.708  1.00  0.00    -0.319 OA 
HETATM    8  N   UNL     1     -10.159   7.983  67.865  1.00  0.00    -0.184 N  
HETATM    9  C   UNL     1     -10.264   6.594  67.697  1.00  0.00    -0.177 C  
ENDROOT
BRANCH   6  10
HETATM   10  N   UNL     1      -9.679   9.989  69.316  1.00  0.00    -0.203 NA 
HETATM   11  N   UNL     1     -12.146  11.086  67.884  1.00  0.00    -0.627 NA 
HETATM   12  C   UNL     1      -8.636  10.923  68.872  1.00  0.00    -0.140 C  
HETATM   13  C   UNL     1      -9.180  11.898  67.834  1.00  0.00    -0.187 C  
HETATM   14  H2  UNL     1     -11.508  10.590  67.262  1.00  0.00     0.000 HD 
HETATM   15  H1  UNL     1     -12.866  10.470  68.262  1.00  0.00     0.000 HD 
HETATM   16  C   UNL     1     -10.348  12.691  68.409  1.00  0.00    -0.241 C  
HETATM   17  C   UNL     1     -10.794  10.743  69.966  1.00  0.00    -0.153 C  
HETATM   18  C   UNL     1     -11.432  11.763  68.978  1.00  0.00    -0.297 C  
ENDBRANCH   6  10
BRANCH   8  19
HETATM   19  C   UNL     1     -10.260   8.712  66.599  1.00  0.00    -0.273 C  
BRANCH  19  20
HETATM   20  C   UNL     1      -8.976   8.958  65.813  1.00  0.00    -0.249 A  
HETATM   21  C   UNL     1      -7.928   9.846  63.798  1.00  0.00    -0.148 A  
HETATM   22  C   UNL     1     -10.155  10.639  64.401  1.00  0.00    -0.349 C  
HETATM   23  N   UNL     1     -11.088  11.291  64.180  1.00  0.00    -0.316 NA 
HETATM   24  C   UNL     1      -9.008   9.819  64.692  1.00  0.00    -0.270 A  
HETATM   25  C   UNL     1      -6.813   9.038  64.013  1.00  0.00    -0.088 A  
HETATM   26  C   UNL     1      -6.736   8.253  65.161  1.00  0.00    -0.055 A  
HETATM   27  C   UNL     1      -7.794   8.239  66.073  1.00  0.00    -0.095 A  
ENDBRANCH  19  20
ENDBRANCH   8  19
TORSDOF 3
ENDMDL
MODEL      142
REMARK 921   NORMALIZED FREE ENERGY PREDICTED BY IDOCK:   -5.08 KCAL/MOL
REMARK 922        TOTAL FREE ENERGY PREDICTED BY IDOCK:   -6.28 KCAL/MOL
REMARK 923 INTER-LIGAND FREE ENERGY PREDICTED BY IDOCK:   -5.48 KCAL/MOL
REMARK 924 INTRA-LIGAND FREE ENERGY PREDICTED BY IDOCK:   -0.80 KCAL/MOL
REMARK 927      BINDING AFFINITY PREDICTED BY RF-SCORE:    0.00 PKD
ROOT
HETATM    1  C   UNL     1     -12.327  13.177  70.581  1.00  0.00    -0.326 C  
HETATM    2  N   UNL     1     -11.640  12.315  69.638  1.00  0.00    -0.295 N  
HETATM    3  C   UNL     1     -10.631  12.831  68.872  1.00  0.00    -0.122 C  
HETATM    4  C   UNL     1      -9.903  11.870  68.039  1.00  0.00    -0.190 C  
HETATM    5  O   UNL     1     -10.301  14.014  68.844  1.00  0.00    -0.231 OA 
HETATM    6  C   UNL     1     -10.098  10.538  68.095  1.00  0.00    -0.158 C  
HETATM    7  O   UNL     1     -13.006  10.585  70.209  1.00  0.00    -0.266 OA 
HETATM    8  N   UNL     1     -11.138  10.105  68.939  1.00  0.00    -0.227 N  
HETATM    9  C   UNL     1     -12.000  10.983  69.614  1.00  0.00    -0.353 C  
ENDROOT
BRANCH   6  10
HETATM   10  N   UNL     1      -9.251   9.695  67.316  1.00  0.00    -0.134 NA 
HETATM   11  N   UNL     1     -10.932   7.189  66.832  1.00  0.00    -0.602 NA 
HETATM   12  C   UNL     1      -7.970   9.117  67.744  1.00  0.00    -0.101 C  
HETATM   13  C   UNL     1      -8.073   7.603  67.888  1.00  0.00    -0.123 C  
HETATM   14  H2  UNL     1     -10.795   7.396  67.821  1.00  0.00     0.000 HD 
HETATM   15  H1  UNL     1     -11.788   7.610  66.469  1.00  0.00     0.000 HD 
HETATM   16  C   UNL     1      -8.490   6.970  66.565  1.00  0.00    -0.125 C  
HETATM   17  C   UNL     1      -9.632   9.153  65.976  1.00  0.00    -0.272 C  
HETATM   18  C   UNL     1      -9.779   7.604  66.018  1.00  0.00     0.170 C  
ENDBRANCH   6  10
BRANCH   8  19
HETATM   19  C   UNL     1     -11.239   8.729  69.430  1.00  0.00     0.183 C  
BRANCH  19  20
HETATM   20  C   UNL     1     -10.539   8.387  70.741  1.00  0.00    -0.240 A  
HETATM   21  C   UNL     1     -10.745   7.840  73.109  1.00  0.00    -0.414 A  
HETATM   22  C   UNL     1     -12.681   7.506  71.661  1.00  0.00    -0.355 C  
HETATM   23  N   UNL     1     -13.788   7.197  71.512  1.00  0.00    -0.356 NA 
HETATM   24  C   UNL     1     -11.304   7.898  71.824  1.00  0.00    -0.309 A  
HETATM   25  C   UNL     1      -9.430   8.250  73.325  1.00  0.00    -0.213 A  
HETATM   26  C   UNL     1      -8.642   8.649  72.248  1.00  0.00    -0.175 A  
HETATM   27  C   UNL     1      -9.180   8.685  70.960  1.00  0.00    -0.253 A  
ENDBRANCH  19  20
ENDBRANCH   8  19
TORSDOF 3
ENDMDL
MODEL      143
REMARK 921   NORMALIZED FREE ENERGY PREDICTED BY IDOCK:   -5.05 KCAL/MOL
REMARK 922        TOTAL FREE ENERGY PREDICTED BY IDOCK:   -6.25 KCAL/MOL
REMARK 923 INTER-LIGAND FREE ENERGY PREDICTED BY IDOCK:   -5.69 KCAL/MOL
REMARK 924 INTRA-LIGAND FREE ENERGY PREDICTED BY IDOCK:   -0.55 KCAL/MOL
REMARK 927      BINDING AFFINITY PREDICTED BY RF-SCORE:    0.00 PKD
ROOT
HETATM    1  C   UNL     1      -8.556   5.199  67.115  1.00  0.00    -0.105 C  
HETATM    2  N   UNL     1      -9.233   6.252  67.848  1.00  0.00    -0.117 N  
HETATM    3  C   UNL     1     -10.008   5.925  68.926  1.00  0.00    -0.157 C  
HETATM    4  C   UNL     1     -10.553   7.052  69.689  1.00  0.00    -0.253 C  
HETATM    5  O   UNL     1     -10.262   4.780  69.290  1.00  0.00    -0.189 OA 
HETATM    6  C   UNL     1     -10.228   8.338  69.453  1.00  0.00    -0.204 C  
HETATM    7  O   UNL     1      -8.415   7.803  66.395  1.00  0.00    -0.123 OA 
HETATM    8  N   UNL     1      -9.398   8.566  68.340  1.00  0.00    -0.135 N  
HETATM    9  C   UNL     1      -8.999   7.554  67.454  1.00  0.00    -0.126 C  
ENDROOT
BRANCH   6  10
HETATM   10  N   UNL     1     -10.737   9.338  70.333  1.00  0.00    -0.233 NA 
HETATM   11  N   UNL     1     -13.192   8.035  71.604  1.00  0.00    -0.340 NA 
HETATM   12  C   UNL     1     -11.266  10.651  69.941  1.00  0.00    -0.308 C  
HETATM   13  C   UNL     1     -12.766  10.737  70.198  1.00  0.00    -0.232 C  
HETATM   14  H2  UNL     1     -13.241   8.076  70.587  1.00  0.00     0.000 HD 
HETATM   15  H1  UNL     1     -12.785   7.159  71.932  1.00  0.00     0.000 HD 
HETATM   16  C   UNL     1     -13.068  10.497  71.673  1.00  0.00    -0.551 C  
HETATM   17  C   UNL     1     -10.943   9.123  71.798  1.00  0.00    -0.359 C  
HETATM   18  C   UNL     1     -12.454   9.178  72.166  1.00  0.00    -0.366 C  
ENDBRANCH   6  10
BRANCH   8  19
HETATM   19  C   UNL     1      -8.633   9.803  68.163  1.00  0.00    -0.118 C  
BRANCH  19  20
HETATM   20  C   UNL     1      -9.290  10.944  67.396  1.00  0.00    -0.166 A  
HETATM   21  C   UNL     1      -9.634  13.348  67.166  1.00  0.00    -0.241 A  
HETATM   22  C   UNL     1      -7.698  12.561  68.425  1.00  0.00    -0.136 C  
HETATM   23  N   UNL     1      -6.753  12.776  69.060  1.00  0.00    -0.098 NA 
HETATM   24  C   UNL     1      -8.871  12.272  67.641  1.00  0.00    -0.175 A  
HETATM   25  C   UNL     1     -10.802  13.119  66.439  1.00  0.00    -0.299 A  
HETATM   26  C   UNL     1     -11.174  11.816  66.118  1.00  0.00    -0.363 A  
HETATM   27  C   UNL     1     -10.407  10.737  66.563  1.00  0.00    -0.300 A  
ENDBRANCH  19  20
ENDBRANCH   8  19
TORSDOF 3
ENDMDL
MODEL      144
REMARK 921   NORMALIZED FREE ENERGY PREDICTED BY IDOCK:   -5.04 KCAL/MOL
REMARK 922        TOTAL FREE ENERGY PREDICTED BY IDOCK:   -6.24 KCAL/MOL
REMARK 923 INTER-LIGAND FREE ENERGY PREDICTED BY IDOCK:   -5.50 KCAL/MOL
REMARK 924 INTRA-LIGAND FREE ENERGY PREDICTED BY IDOCK:   -0.74 KCAL/MOL
REMARK 927      BINDING AFFINITY PREDICTED BY RF-SCORE:    0.00 PKD
ROOT
HETATM    1  C   UNL     1      -8.638   5.854  65.402  1.00  0.00    -0.137 C  
HETATM    2  N   UNL     1      -8.837   7.127  66.069  1.00  0.00    -0.151 N  
HETATM    3  C   UNL     1      -8.681   8.286  65.360  1.00  0.00    -0.113 C  
HETATM    4  C   UNL     1      -9.024   9.522  66.068  1.00  0.00    -0.198 C  
HETATM    5  O   UNL     1      -8.289   8.353  64.198  1.00  0.00    -0.153 OA 
HETATM    6  C   UNL     1      -9.585   9.548  67.294  1.00  0.00    -0.150 C  
HETATM    7  O   UNL     1      -9.240   6.046  68.033  1.00  0.00    -0.117 OA 
HETATM    8  N   UNL     1      -9.733   8.299  67.926  1.00  0.00    -0.156 N  
HETATM    9  C   UNL     1      -9.249   7.098  67.386  1.00  0.00    -0.127 C  
ENDROOT
BRANCH   6  10
HETATM   10  N   UNL     1      -9.975  10.808  67.834  1.00  0.00    -0.171 NA 
HETATM   11  N   UNL     1     -11.529  12.145  65.568  1.00  0.00    -0.350 NA 
HETATM   12  C   UNL     1      -9.073  11.888  68.256  1.00  0.00    -0.183 C  
HETATM   13  C   UNL     1      -9.199  13.098  67.336  1.00  0.00    -0.213 C  
HETATM   14  H2  UNL     1     -10.575  11.894  65.308  1.00  0.00     0.000 HD 
HETATM   15  H1  UNL     1     -12.194  11.405  65.341  1.00  0.00     0.000 HD 
HETATM   16  C   UNL     1     -10.633  13.616  67.333  1.00  0.00    -0.260 C  
HETATM   17  C   UNL     1     -11.394  11.270  67.912  1.00  0.00    -0.299 C  
HETATM   18  C   UNL     1     -11.634  12.502  66.991  1.00  0.00    -0.368 C  
ENDBRANCH   6  10
BRANCH   8  19
HETATM   19  C   UNL     1     -10.654   8.083  69.044  1.00  0.00    -0.154 C  
BRANCH  19  20
HETATM   20  C   UNL     1     -10.063   7.983  70.446  1.00  0.00    -0.194 A  
HETATM   21  C   UNL     1     -10.446   8.010  72.855  1.00  0.00    -0.402 A  
HETATM   22  C   UNL     1     -12.331   7.541  71.378  1.00  0.00    -0.345 C  
HETATM   23  N   UNL     1     -13.456   7.313  71.220  1.00  0.00    -0.327 NA 
HETATM   24  C   UNL     1     -10.930   7.828  71.552  1.00  0.00    -0.267 A  
HETATM   25  C   UNL     1      -9.107   8.332  73.071  1.00  0.00    -0.319 A  
HETATM   26  C   UNL     1      -8.227   8.400  71.994  1.00  0.00    -0.212 A  
HETATM   27  C   UNL     1      -8.693   8.193  70.694  1.00  0.00    -0.136 A  
ENDBRANCH  19  20
ENDBRANCH   8  19
TORSDOF 3
ENDMDL
MODEL      145
REMARK 921   NORMALIZED FREE ENERGY PREDICTED BY IDOCK:   -5.02 KCAL/MOL
REMARK 922        TOTAL FREE ENERGY PREDICTED BY IDOCK:   -6.21 KCAL/MOL
REMARK 923 INTER-LIGAND FREE ENERGY PREDICTED BY IDOCK:   -5.32 KCAL/MOL
REMARK 924 INTRA-LIGAND FREE ENERGY PREDICTED BY IDOCK:   -0.89 KCAL/MOL
REMARK 927      BINDING AFFINITY PREDICTED BY RF-SCORE:    0.00 PKD
ROOT
HETATM    1  C   UNL     1      -9.664   4.816  65.361  1.00  0.00    -0.123 C  
HETATM    2  N   UNL     1      -8.984   5.896  66.052  1.00  0.00    -0.152 N  
HETATM    3  C   UNL     1      -7.618   5.950  66.028  1.00  0.00    -0.086 C  
HETATM    4  C   UNL     1      -7.012   7.137  66.639  1.00  0.00    -0.077 C  
HETATM    5  O   UNL     1      -6.887   5.095  65.535  1.00  0.00    -0.057 OA 
HETATM    6  C   UNL     1      -7.725   8.190  67.087  1.00  0.00    -0.097 C  
HETATM    7  O   UNL     1     -10.986   6.707  66.774  1.00  0.00    -0.347 OA 
HETATM    8  N   UNL     1      -9.125   8.048  67.038  1.00  0.00    -0.139 N  
HETATM    9  C   UNL     1      -9.767   6.863  66.647  1.00  0.00    -0.163 C  
ENDROOT
BRANCH   6  10
HETATM   10  N   UNL     1      -7.019   9.334  67.560  1.00  0.00    -0.077 NA 
HETATM   11  N   UNL     1      -8.876  10.541  69.666  1.00  0.00    -0.388 NA 
HETATM   12  C   UNL     1      -6.655  10.518  66.769  1.00  0.00    -0.086 C  
HETATM   13  C   UNL     1      -7.431  11.746  67.232  1.00  0.00    -0.151 C  
HETATM   14  H2  UNL     1      -9.309  10.464  68.745  1.00  0.00     0.000 HD 
HETATM   15  H1  UNL     1      -9.057   9.719  70.242  1.00  0.00     0.000 HD 
HETATM   16  C   UNL     1      -7.156  12.025  68.706  1.00  0.00    -0.111 C  
HETATM   17  C   UNL     1      -6.671   9.556  68.997  1.00  0.00    -0.050 C  
HETATM   18  C   UNL     1      -7.428  10.787  69.574  1.00  0.00    -0.110 C  
ENDBRANCH   6  10
BRANCH   8  19
HETATM   19  C   UNL     1     -10.038   9.191  67.098  1.00  0.00    -0.236 C  
BRANCH  19  20
HETATM   20  C   UNL     1     -10.095  10.122  65.891  1.00  0.00    -0.325 A  
HETATM   21  C   UNL     1     -11.190  11.998  64.781  1.00  0.00    -0.373 A  
HETATM   22  C   UNL     1     -11.492  11.727  67.187  1.00  0.00    -0.295 C  
HETATM   23  N   UNL     1     -11.961  12.071  68.190  1.00  0.00    -0.496 NA 
HETATM   24  C   UNL     1     -10.901  11.282  65.952  1.00  0.00    -0.264 A  
HETATM   25  C   UNL     1     -10.676  11.581  63.554  1.00  0.00    -0.483 A  
HETATM   26  C   UNL     1      -9.811  10.491  63.498  1.00  0.00    -0.339 A  
HETATM   27  C   UNL     1      -9.495   9.787  64.662  1.00  0.00    -0.295 A  
ENDBRANCH  19  20
ENDBRANCH   8  19
TORSDOF 3
ENDMDL
MODEL      146
REMARK 921   NORMALIZED FREE ENERGY PREDICTED BY IDOCK:   -5.01 KCAL/MOL
REMARK 922        TOTAL FREE ENERGY PREDICTED BY IDOCK:   -6.21 KCAL/MOL
REMARK 923 INTER-LIGAND FREE ENERGY PREDICTED BY IDOCK:   -5.28 KCAL/MOL
REMARK 924 INTRA-LIGAND FREE ENERGY PREDICTED BY IDOCK:   -0.93 KCAL/MOL
REMARK 927      BINDING AFFINITY PREDICTED BY RF-SCORE:    0.00 PKD
ROOT
HETATM    1  C   UNL     1     -10.095  13.140  66.738  1.00  0.00    -0.253 C  
HETATM    2  N   UNL     1     -10.205  11.708  66.940  1.00  0.00    -0.211 N  
HETATM    3  C   UNL     1      -9.917  10.863  65.903  1.00  0.00    -0.243 C  
HETATM    4  C   UNL     1      -9.927   9.432  66.221  1.00  0.00    -0.353 C  
HETATM    5  O   UNL     1      -9.651  11.217  64.758  1.00  0.00    -0.235 OA 
HETATM    6  C   UNL     1     -10.076   8.948  67.470  1.00  0.00    -0.227 C  
HETATM    7  O   UNL     1     -10.923  12.052  69.073  1.00  0.00    -0.225 OA 
HETATM    8  N   UNL     1     -10.335   9.902  68.471  1.00  0.00    -0.187 N  
HETATM    9  C   UNL     1     -10.531  11.266  68.205  1.00  0.00    -0.196 C  
ENDROOT
BRANCH   6  10
HETATM   10  N   UNL     1      -9.958   7.541  67.669  1.00  0.00    -0.160 NA 
HETATM   11  N   UNL     1     -11.630   6.998  70.170  1.00  0.00    -0.511 NA 
HETATM   12  C   UNL     1      -8.722   6.807  67.971  1.00  0.00    -0.118 C  
HETATM   13  C   UNL     1      -8.753   6.240  69.387  1.00  0.00    -0.128 C  
HETATM   14  H2  UNL     1     -10.880   7.672  70.326  1.00  0.00     0.000 HD 
HETATM   15  H1  UNL     1     -12.504   7.453  69.907  1.00  0.00     0.000 HD 
HETATM   16  C   UNL     1      -9.944   5.304  69.558  1.00  0.00    -0.297 C  
HETATM   17  C   UNL     1     -11.130   6.616  67.744  1.00  0.00    -0.242 C  
HETATM   18  C   UNL     1     -11.261   5.990  69.163  1.00  0.00    -0.267 C  
ENDBRANCH   6  10
BRANCH   8  19
HETATM   19  C   UNL     1     -10.132   9.629  69.896  1.00  0.00    -0.246 C  
BRANCH  19  20
HETATM   20  C   UNL     1      -8.702   9.422  70.385  1.00  0.00    -0.278 A  
HETATM   21  C   UNL     1      -7.211   8.922  72.249  1.00  0.00     0.119 A  
HETATM   22  C   UNL     1      -9.561   8.290  72.432  1.00  0.00    -0.294 C  
HETATM   23  N   UNL     1     -10.438   7.831  73.035  1.00  0.00    -0.349 NA 
HETATM   24  C   UNL     1      -8.486   8.867  71.668  1.00  0.00    -0.137 A  
HETATM   25  C   UNL     1      -6.148   9.509  71.566  1.00  0.00    -0.000 A  
HETATM   26  C   UNL     1      -6.332   9.979  70.268  1.00  0.00    -0.107 A  
HETATM   27  C   UNL     1      -7.591   9.905  69.668  1.00  0.00    -0.136 A  
ENDBRANCH  19  20
ENDBRANCH   8  19
TORSDOF 3
ENDMDL
MODEL      147
REMARK 921   NORMALIZED FREE ENERGY PREDICTED BY IDOCK:   -4.97 KCAL/MOL
REMARK 922        TOTAL FREE ENERGY PREDICTED BY IDOCK:   -6.16 KCAL/MOL
REMARK 923 INTER-LIGAND FREE ENERGY PREDICTED BY IDOCK:   -5.72 KCAL/MOL
REMARK 924 INTRA-LIGAND FREE ENERGY PREDICTED BY IDOCK:   -0.44 KCAL/MOL
REMARK 927      BINDING AFFINITY PREDICTED BY RF-SCORE:    0.00 PKD
ROOT
HETATM    1  C   UNL     1     -11.358  12.003  63.385  1.00  0.00    -0.397 C  
HETATM    2  N   UNL     1     -11.229  12.263  64.807  1.00  0.00    -0.309 N  
HETATM    3  C   UNL     1     -12.137  13.080  65.422  1.00  0.00    -0.444 C  
HETATM    4  C   UNL     1     -12.016  13.191  66.879  1.00  0.00    -0.421 C  
HETATM    5  O   UNL     1     -13.028  13.702  64.849  1.00  0.00    -0.706 OA 
HETATM    6  C   UNL     1     -11.163  12.450  67.613  1.00  0.00    -0.288 C  
HETATM    7  O   UNL     1      -9.338  10.996  64.878  1.00  0.00    -0.211 OA 
HETATM    8  N   UNL     1     -10.292  11.617  66.887  1.00  0.00    -0.214 N  
HETATM    9  C   UNL     1     -10.223  11.607  65.485  1.00  0.00    -0.260 C  
ENDROOT
BRANCH   6  10
HETATM   10  N   UNL     1     -11.213  12.568  69.033  1.00  0.00    -0.264 NA 
HETATM   11  N   UNL     1     -13.459  10.668  69.862  1.00  0.00    -0.076 NA 
HETATM   12  C   UNL     1     -11.551  13.779  69.793  1.00  0.00    -0.257 C  
HETATM   13  C   UNL     1     -12.884  13.617  70.517  1.00  0.00    -0.167 C  
HETATM   14  H2  UNL     1     -13.763  11.388  69.207  1.00  0.00     0.000 HD 
HETATM   15  H1  UNL     1     -13.164   9.817  69.382  1.00  0.00     0.000 HD 
HETATM   16  C   UNL     1     -12.830  12.429  71.470  1.00  0.00    -0.377 C  
HETATM   17  C   UNL     1     -11.067  11.408  69.965  1.00  0.00     0.027 C  
HETATM   18  C   UNL     1     -12.386  11.147  70.748  1.00  0.00    -0.406 C  
ENDBRANCH   6  10
BRANCH   8  19
HETATM   19  C   UNL     1      -9.596  10.479  67.493  1.00  0.00    -0.160 C  
BRANCH  19  20
HETATM   20  C   UNL     1      -8.212  10.722  68.085  1.00  0.00    -0.119 A  
HETATM   21  C   UNL     1      -6.479  10.005  69.644  1.00  0.00    -0.057 A  
HETATM   22  C   UNL     1      -8.160   8.382  68.939  1.00  0.00    -0.114 C  
HETATM   23  N   UNL     1      -8.617   7.318  68.988  1.00  0.00    -0.129 NA 
HETATM   24  C   UNL     1      -7.609   9.711  68.868  1.00  0.00    -0.076 A  
HETATM   25  C   UNL     1      -5.935  11.289  69.641  1.00  0.00    -0.090 A  
HETATM   26  C   UNL     1      -6.470  12.267  68.807  1.00  0.00    -0.082 A  
HETATM   27  C   UNL     1      -7.579  11.978  68.008  1.00  0.00    -0.120 A  
ENDBRANCH  19  20
ENDBRANCH   8  19
TORSDOF 3
ENDMDL
MODEL      148
REMARK 921   NORMALIZED FREE ENERGY PREDICTED BY IDOCK:   -4.94 KCAL/MOL
REMARK 922        TOTAL FREE ENERGY PREDICTED BY IDOCK:   -6.13 KCAL/MOL
REMARK 923 INTER-LIGAND FREE ENERGY PREDICTED BY IDOCK:   -5.12 KCAL/MOL
REMARK 924 INTRA-LIGAND FREE ENERGY PREDICTED BY IDOCK:   -1.01 KCAL/MOL
REMARK 927      BINDING AFFINITY PREDICTED BY RF-SCORE:    0.00 PKD
ROOT
HETATM    1  C   UNL     1      -7.401   5.437  73.585  1.00  0.00    -0.087 C  
HETATM    2  N   UNL     1      -7.759   6.385  72.547  1.00  0.00    -0.100 N  
HETATM    3  C   UNL     1      -7.391   6.132  71.254  1.00  0.00    -0.081 C  
HETATM    4  C   UNL     1      -7.899   7.069  70.247  1.00  0.00    -0.105 C  
HETATM    5  O   UNL     1      -6.688   5.192  70.892  1.00  0.00    -0.039 OA 
HETATM    6  C   UNL     1      -8.780   8.051  70.522  1.00  0.00    -0.135 C  
HETATM    7  O   UNL     1      -8.714   7.745  74.103  1.00  0.00    -0.250 OA 
HETATM    8  N   UNL     1      -9.120   8.208  71.878  1.00  0.00    -0.153 N  
HETATM    9  C   UNL     1      -8.524   7.473  72.914  1.00  0.00    -0.125 C  
ENDROOT
BRANCH   6  10
HETATM   10  N   UNL     1      -9.285   8.830  69.439  1.00  0.00    -0.145 NA 
HETATM   11  N   UNL     1      -9.238   6.917  67.056  1.00  0.00    -0.137 NA 
HETATM   12  C   UNL     1      -8.662  10.032  68.870  1.00  0.00    -0.146 C  
HETATM   13  C   UNL     1      -8.162   9.770  67.453  1.00  0.00    -0.114 C  
HETATM   14  H2  UNL     1      -8.323   7.045  67.487  1.00  0.00     0.000 HD 
HETATM   15  H1  UNL     1      -9.738   6.120  67.452  1.00  0.00     0.000 HD 
HETATM   16  C   UNL     1      -9.312   9.330  66.555  1.00  0.00    -0.231 C  
HETATM   17  C   UNL     1     -10.473   8.436  68.621  1.00  0.00    -0.166 C  
HETATM   18  C   UNL     1     -10.065   8.131  67.151  1.00  0.00    -0.264 C  
ENDBRANCH   6  10
BRANCH   8  19
HETATM   19  C   UNL     1     -10.322   8.924  72.315  1.00  0.00    -0.134 C  
BRANCH  19  20
HETATM   20  C   UNL     1     -11.677   8.347  71.921  1.00  0.00    -0.398 A  
HETATM   21  C   UNL     1     -14.069   8.717  71.621  1.00  0.00    -0.437 A  
HETATM   22  C   UNL     1     -12.581  10.651  71.635  1.00  0.00    -0.377 C  
HETATM   23  N   UNL     1     -12.416  11.797  71.580  1.00  0.00    -0.112 NA 
HETATM   24  C   UNL     1     -12.765   9.225  71.709  1.00  0.00    -0.462 A  
HETATM   25  C   UNL     1     -14.302   7.347  71.730  1.00  0.00    -0.586 A  
HETATM   26  C   UNL     1     -13.229   6.468  71.852  1.00  0.00     0.033 A  
HETATM   27  C   UNL     1     -11.923   6.960  71.913  1.00  0.00    -0.363 A  
ENDBRANCH  19  20
ENDBRANCH   8  19
TORSDOF 3
ENDMDL
MODEL      149
REMARK 921   NORMALIZED FREE ENERGY PREDICTED BY IDOCK:   -4.94 KCAL/MOL
REMARK 922        TOTAL FREE ENERGY PREDICTED BY IDOCK:   -6.12 KCAL/MOL
REMARK 923 INTER-LIGAND FREE ENERGY PREDICTED BY IDOCK:   -5.42 KCAL/MOL
REMARK 924 INTRA-LIGAND FREE ENERGY PREDICTED BY IDOCK:   -0.71 KCAL/MOL
REMARK 927      BINDING AFFINITY PREDICTED BY RF-SCORE:    0.00 PKD
ROOT
HETATM    1  C   UNL     1     -10.139   4.445  65.659  1.00  0.00    -0.241 C  
HETATM    2  N   UNL     1     -10.153   4.743  67.079  1.00  0.00    -0.203 N  
HETATM    3  C   UNL     1      -9.558   3.872  67.951  1.00  0.00    -0.136 C  
HETATM    4  C   UNL     1      -9.503   4.304  69.350  1.00  0.00    -0.256 C  
HETATM    5  O   UNL     1      -9.075   2.786  67.643  1.00  0.00    -0.147 OA 
HETATM    6  C   UNL     1      -9.883   5.528  69.768  1.00  0.00    -0.194 C  
HETATM    7  O   UNL     1     -11.365   6.629  66.682  1.00  0.00    -0.150 OA 
HETATM    8  N   UNL     1     -10.453   6.361  68.786  1.00  0.00    -0.197 N  
HETATM    9  C   UNL     1     -10.713   5.940  67.473  1.00  0.00    -0.276 C  
ENDROOT
BRANCH   6  10
HETATM   10  N   UNL     1      -9.679   5.871  71.137  1.00  0.00    -0.172 NA 
HETATM   11  N   UNL     1     -12.472   6.581  72.153  1.00  0.00    -0.536 NA 
HETATM   12  C   UNL     1      -8.883   6.998  71.640  1.00  0.00    -0.130 C  
HETATM   13  C   UNL     1      -9.773   8.048  72.296  1.00  0.00    -0.294 C  
HETATM   14  H2  UNL     1     -12.177   7.150  71.361  1.00  0.00     0.000 HD 
HETATM   15  H1  UNL     1     -12.991   5.754  71.856  1.00  0.00     0.000 HD 
HETATM   16  C   UNL     1     -10.557   7.435  73.451  1.00  0.00    -0.427 C  
HETATM   17  C   UNL     1     -10.385   5.200  72.271  1.00  0.00    -0.211 C  
HETATM   18  C   UNL     1     -11.337   6.189  73.003  1.00  0.00    -0.112 C  
ENDBRANCH   6  10
BRANCH   8  19
HETATM   19  C   UNL     1     -10.552   7.814  68.943  1.00  0.00    -0.150 C  
BRANCH  19  20
HETATM   20  C   UNL     1      -9.397   8.667  68.430  1.00  0.00    -0.141 A  
HETATM   21  C   UNL     1      -8.681  10.686  67.263  1.00  0.00    -0.129 A  
HETATM   22  C   UNL     1     -10.927  10.621  68.214  1.00  0.00    -0.263 C  
HETATM   23  N   UNL     1     -11.958  11.118  68.402  1.00  0.00    -0.599 NA 
HETATM   24  C   UNL     1      -9.655   9.985  67.989  1.00  0.00    -0.154 A  
HETATM   25  C   UNL     1      -7.450  10.096  66.983  1.00  0.00    -0.092 A  
HETATM   26  C   UNL     1      -7.155   8.832  67.488  1.00  0.00    -0.079 A  
HETATM   27  C   UNL     1      -8.107   8.136  68.235  1.00  0.00    -0.128 A  
ENDBRANCH  19  20
ENDBRANCH   8  19
TORSDOF 3
ENDMDL
MODEL      150
REMARK 921   NORMALIZED FREE ENERGY PREDICTED BY IDOCK:   -4.93 KCAL/MOL
REMARK 922        TOTAL FREE ENERGY PREDICTED BY IDOCK:   -6.12 KCAL/MOL
REMARK 923 INTER-LIGAND FREE ENERGY PREDICTED BY IDOCK:   -5.12 KCAL/MOL
REMARK 924 INTRA-LIGAND FREE ENERGY PREDICTED BY IDOCK:   -0.99 KCAL/MOL
REMARK 927      BINDING AFFINITY PREDICTED BY RF-SCORE:    0.00 PKD
ROOT
HETATM    1  C   UNL     1     -10.613   8.036  69.337  1.00  0.00    -0.205 C  
HETATM    2  N   UNL     1      -9.748   9.200  69.320  1.00  0.00    -0.161 N  
HETATM    3  C   UNL     1      -8.400   9.034  69.486  1.00  0.00    -0.117 C  
HETATM    4  C   UNL     1      -7.581  10.239  69.329  1.00  0.00    -0.125 C  
HETATM    5  O   UNL     1      -7.848   7.967  69.743  1.00  0.00    -0.101 OA 
HETATM    6  C   UNL     1      -8.073  11.425  68.919  1.00  0.00    -0.067 C  
HETATM    7  O   UNL     1     -11.559  10.556  69.063  1.00  0.00    -0.255 OA 
HETATM    8  N   UNL     1      -9.468  11.483  68.744  1.00  0.00    -0.141 N  
HETATM    9  C   UNL     1     -10.331  10.424  69.063  1.00  0.00    -0.214 C  
ENDROOT
BRANCH   6  10
HETATM   10  N   UNL     1      -7.159  12.497  68.697  1.00  0.00    -0.096 NA 
HETATM   11  N   UNL     1      -8.617  14.956  69.779  1.00  0.00    -0.434 NA 
HETATM   12  C   UNL     1      -6.687  12.980  67.393  1.00  0.00    -0.115 C  
HETATM   13  C   UNL     1      -7.221  14.378  67.100  1.00  0.00     0.163 C  
HETATM   14  H2  UNL     1      -9.135  14.473  69.045  1.00  0.00     0.000 HD 
HETATM   15  H1  UNL     1      -8.872  14.623  70.709  1.00  0.00     0.000 HD 
HETATM   16  C   UNL     1      -6.778  15.354  68.185  1.00  0.00    -0.138 C  
HETATM   17  C   UNL     1      -6.658  13.394  69.784  1.00  0.00     0.028 C  
HETATM   18  C   UNL     1      -7.162  14.853  69.585  1.00  0.00    -0.166 C  
ENDBRANCH   6  10
BRANCH   8  19
HETATM   19  C   UNL     1     -10.123  12.522  67.945  1.00  0.00    -0.214 C  
BRANCH  19  20
HETATM   20  C   UNL     1     -10.151  12.345  66.431  1.00  0.00    -0.252 A  
HETATM   21  C   UNL     1     -10.823  13.233  64.261  1.00  0.00    -0.414 A  
HETATM   22  C   UNL     1     -10.660  14.768  66.151  1.00  0.00    -0.311 C  
HETATM   23  N   UNL     1     -10.768  15.831  66.598  1.00  0.00    -0.310 NA 
HETATM   24  C   UNL     1     -10.522  13.438  65.615  1.00  0.00    -0.293 A  
HETATM   25  C   UNL     1     -10.746  11.956  63.707  1.00  0.00    -0.476 A  
HETATM   26  C   UNL     1     -10.297  10.889  64.481  1.00  0.00    -0.417 A  
HETATM   27  C   UNL     1      -9.968  11.087  65.824  1.00  0.00    -0.294 A  
ENDBRANCH  19  20
ENDBRANCH   8  19
TORSDOF 3
ENDMDL
MODEL      151
REMARK 921   NORMALIZED FREE ENERGY PREDICTED BY IDOCK:   -4.93 KCAL/MOL
REMARK 922        TOTAL FREE ENERGY PREDICTED BY IDOCK:   -6.11 KCAL/MOL
REMARK 923 INTER-LIGAND FREE ENERGY PREDICTED BY IDOCK:   -5.36 KCAL/MOL
REMARK 924 INTRA-LIGAND FREE ENERGY PREDICTED BY IDOCK:   -0.75 KCAL/MOL
REMARK 927      BINDING AFFINITY PREDICTED BY RF-SCORE:    0.00 PKD
ROOT
HETATM    1  C   UNL     1     -10.161  12.717  68.453  1.00  0.00    -0.232 C  
HETATM    2  N   UNL     1      -9.806  11.392  67.980  1.00  0.00    -0.179 N  
HETATM    3  C   UNL     1      -8.677  11.232  67.225  1.00  0.00    -0.145 C  
HETATM    4  C   UNL     1      -8.318   9.850  66.894  1.00  0.00    -0.124 C  
HETATM    5  O   UNL     1      -7.962  12.146  66.824  1.00  0.00    -0.126 OA 
HETATM    6  C   UNL     1      -8.958   8.774  67.393  1.00  0.00    -0.133 C  
HETATM    7  O   UNL     1     -11.685  10.535  68.939  1.00  0.00    -0.240 OA 
HETATM    8  N   UNL     1     -10.088   9.047  68.186  1.00  0.00    -0.183 N  
HETATM    9  C   UNL     1     -10.601  10.338  68.382  1.00  0.00    -0.216 C  
ENDROOT
BRANCH   6  10
HETATM   10  N   UNL     1      -8.448   7.479  67.086  1.00  0.00    -0.120 NA 
HETATM   11  N   UNL     1     -10.913   5.887  66.232  1.00  0.00    -0.710 NA 
HETATM   12  C   UNL     1      -7.806   6.552  68.028  1.00  0.00    -0.105 C  
HETATM   13  C   UNL     1      -8.675   5.323  68.265  1.00  0.00    -0.101 C  
HETATM   14  H2  UNL     1     -10.990   6.273  67.173  1.00  0.00     0.000 HD 
HETATM   15  H1  UNL     1     -11.302   6.515  65.529  1.00  0.00     0.000 HD 
HETATM   16  C   UNL     1      -8.939   4.596  66.952  1.00  0.00    -0.113 C  
HETATM   17  C   UNL     1      -8.632   6.810  65.761  1.00  0.00    -0.137 C  
HETATM   18  C   UNL     1      -9.524   5.542  65.892  1.00  0.00    -0.096 C  
ENDBRANCH   6  10
BRANCH   8  19
HETATM   19  C   UNL     1     -10.658   8.068  69.115  1.00  0.00    -0.169 C  
BRANCH  19  20
HETATM   20  C   UNL     1     -10.040   7.962  70.506  1.00  0.00    -0.192 A  
HETATM   21  C   UNL     1     -10.380   7.972  72.921  1.00  0.00    -0.397 A  
HETATM   22  C   UNL     1     -12.289   7.501  71.476  1.00  0.00    -0.339 C  
HETATM   23  N   UNL     1     -13.416   7.266  71.337  1.00  0.00    -0.372 NA 
HETATM   24  C   UNL     1     -10.887   7.795  71.626  1.00  0.00    -0.265 A  
HETATM   25  C   UNL     1      -9.040   8.300  73.116  1.00  0.00    -0.305 A  
HETATM   26  C   UNL     1      -8.180   8.381  72.023  1.00  0.00    -0.212 A  
HETATM   27  C   UNL     1      -8.667   8.179  70.730  1.00  0.00    -0.145 A  
ENDBRANCH  19  20
ENDBRANCH   8  19
TORSDOF 3
ENDMDL
MODEL      152
REMARK 921   NORMALIZED FREE ENERGY PREDICTED BY IDOCK:   -4.92 KCAL/MOL
REMARK 922        TOTAL FREE ENERGY PREDICTED BY IDOCK:   -6.11 KCAL/MOL
REMARK 923 INTER-LIGAND FREE ENERGY PREDICTED BY IDOCK:   -5.81 KCAL/MOL
REMARK 924 INTRA-LIGAND FREE ENERGY PREDICTED BY IDOCK:   -0.30 KCAL/MOL
REMARK 927      BINDING AFFINITY PREDICTED BY RF-SCORE:    0.00 PKD
ROOT
HETATM    1  C   UNL     1     -12.335  12.174  63.208  1.00  0.00    -0.436 C  
HETATM    2  N   UNL     1     -11.485  12.518  64.332  1.00  0.00    -0.329 N  
HETATM    3  C   UNL     1     -11.986  13.305  65.333  1.00  0.00    -0.395 C  
HETATM    4  C   UNL     1     -11.111  13.502  66.492  1.00  0.00    -0.310 C  
HETATM    5  O   UNL     1     -13.094  13.834  65.325  1.00  0.00    -0.756 OA 
HETATM    6  C   UNL     1      -9.936  12.862  66.656  1.00  0.00    -0.251 C  
HETATM    7  O   UNL     1      -9.752  11.386  63.382  1.00  0.00    -0.304 OA 
HETATM    8  N   UNL     1      -9.525  12.050  65.582  1.00  0.00    -0.188 N  
HETATM    9  C   UNL     1     -10.220  11.969  64.366  1.00  0.00    -0.302 C  
ENDROOT
BRANCH   6  10
HETATM   10  N   UNL     1      -9.225  13.053  67.877  1.00  0.00    -0.200 NA 
HETATM   11  N   UNL     1      -6.897  14.877  67.109  1.00  0.00    -0.340 NA 
HETATM   12  C   UNL     1      -8.544  12.011  68.657  1.00  0.00    -0.011 C  
HETATM   13  C   UNL     1      -7.032  12.206  68.628  1.00  0.00    -0.097 C  
HETATM   14  H2  UNL     1      -6.917  14.006  66.578  1.00  0.00     0.000 HD 
HETATM   15  H1  UNL     1      -7.400  15.626  66.633  1.00  0.00     0.000 HD 
HETATM   16  C   UNL     1      -6.661  13.573  69.189  1.00  0.00    -0.109 C  
HETATM   17  C   UNL     1      -8.945  14.396  68.469  1.00  0.00    -0.187 C  
HETATM   18  C   UNL     1      -7.419  14.701  68.473  1.00  0.00    -0.120 C  
ENDBRANCH   6  10
BRANCH   8  19
HETATM   19  C   UNL     1      -8.519  10.996  65.728  1.00  0.00    -0.119 C  
BRANCH  19  20
HETATM   20  C   UNL     1      -8.918   9.727  66.474  1.00  0.00    -0.172 A  
HETATM   21  C   UNL     1      -8.254   7.544  67.335  1.00  0.00    -0.116 A  
HETATM   22  C   UNL     1      -6.515   9.187  66.852  1.00  0.00    -0.067 C  
HETATM   23  N   UNL     1      -5.396   9.487  66.803  1.00  0.00    -0.044 NA 
HETATM   24  C   UNL     1      -7.910   8.833  66.902  1.00  0.00    -0.101 A  
HETATM   25  C   UNL     1      -9.588   7.140  67.360  1.00  0.00    -0.168 A  
HETATM   26  C   UNL     1     -10.592   8.044  67.024  1.00  0.00    -0.364 A  
HETATM   27  C   UNL     1     -10.264   9.339  66.617  1.00  0.00    -0.323 A  
ENDBRANCH  19  20
ENDBRANCH   8  19
TORSDOF 3
ENDMDL
MODEL      153
REMARK 921   NORMALIZED FREE ENERGY PREDICTED BY IDOCK:   -4.90 KCAL/MOL
REMARK 922        TOTAL FREE ENERGY PREDICTED BY IDOCK:   -6.08 KCAL/MOL
REMARK 923 INTER-LIGAND FREE ENERGY PREDICTED BY IDOCK:   -5.05 KCAL/MOL
REMARK 924 INTRA-LIGAND FREE ENERGY PREDICTED BY IDOCK:   -1.02 KCAL/MOL
REMARK 927      BINDING AFFINITY PREDICTED BY RF-SCORE:    0.00 PKD
ROOT
HETATM    1  C   UNL     1     -12.148   9.297  72.125  1.00  0.00    -0.283 C  
HETATM    2  N   UNL     1     -11.550   8.290  71.270  1.00  0.00    -0.275 N  
HETATM    3  C   UNL     1     -12.253   7.151  70.985  1.00  0.00    -0.343 C  
HETATM    4  C   UNL     1     -11.636   6.243  70.014  1.00  0.00    -0.378 C  
HETATM    5  O   UNL     1     -13.341   6.855  71.471  1.00  0.00    -0.329 OA 
HETATM    6  C   UNL     1     -10.514   6.537  69.327  1.00  0.00    -0.219 C  
HETATM    7  O   UNL     1      -9.649   9.533  71.116  1.00  0.00    -0.213 OA 
HETATM    8  N   UNL     1      -9.884   7.747  69.672  1.00  0.00    -0.180 N  
HETATM    9  C   UNL     1     -10.313   8.569  70.725  1.00  0.00    -0.198 C  
ENDROOT
BRANCH   6  10
HETATM   10  N   UNL     1     -10.071   5.620  68.329  1.00  0.00    -0.156 NA 
HETATM   11  N   UNL     1      -7.025   5.858  68.397  1.00  0.00    -0.070 NA 
HETATM   12  C   UNL     1     -10.345   5.705  66.889  1.00  0.00    -0.259 C  
HETATM   13  C   UNL     1      -9.070   6.001  66.105  1.00  0.00    -0.159 C  
HETATM   14  H2  UNL     1      -7.492   6.743  68.207  1.00  0.00     0.000 HD 
HETATM   15  H1  UNL     1      -6.853   5.724  69.394  1.00  0.00     0.000 HD 
HETATM   16  C   UNL     1      -8.030   4.914  66.353  1.00  0.00    -0.107 C  
HETATM   17  C   UNL     1      -9.120   4.499  68.601  1.00  0.00    -0.120 C  
HETATM   18  C   UNL     1      -7.772   4.712  67.854  1.00  0.00    -0.082 C  
ENDBRANCH   6  10
BRANCH   8  19
HETATM   19  C   UNL     1      -8.919   8.414  68.795  1.00  0.00    -0.140 C  
BRANCH  19  20
HETATM   20  C   UNL     1      -9.462   9.316  67.691  1.00  0.00    -0.156 A  
HETATM   21  C   UNL     1      -8.991  10.716  65.751  1.00  0.00    -0.200 A  
HETATM   22  C   UNL     1      -7.334   9.054  66.422  1.00  0.00    -0.088 C  
HETATM   23  N   UNL     1      -6.305   8.541  66.278  1.00  0.00    -0.056 NA 
HETATM   24  C   UNL     1      -8.616   9.681  66.619  1.00  0.00    -0.137 A  
HETATM   25  C   UNL     1     -10.202  11.382  65.928  1.00  0.00    -0.292 A  
HETATM   26  C   UNL     1     -11.081  10.970  66.927  1.00  0.00    -0.280 A  
HETATM   27  C   UNL     1     -10.730   9.922  67.781  1.00  0.00    -0.332 A  
ENDBRANCH  19  20
ENDBRANCH   8  19
TORSDOF 3
ENDMDL
MODEL      154
REMARK 921   NORMALIZED FREE ENERGY PREDICTED BY IDOCK:   -4.90 KCAL/MOL
REMARK 922        TOTAL FREE ENERGY PREDICTED BY IDOCK:   -6.08 KCAL/MOL
REMARK 923 INTER-LIGAND FREE ENERGY PREDICTED BY IDOCK:   -5.72 KCAL/MOL
REMARK 924 INTRA-LIGAND FREE ENERGY PREDICTED BY IDOCK:   -0.36 KCAL/MOL
REMARK 927      BINDING AFFINITY PREDICTED BY RF-SCORE:    0.00 PKD
ROOT
HETATM    1  C   UNL     1     -13.875  13.468  71.668  1.00  0.00    -0.109 C  
HETATM    2  N   UNL     1     -12.820  12.693  71.042  1.00  0.00    -0.230 N  
HETATM    3  C   UNL     1     -12.765  11.343  71.258  1.00  0.00    -0.393 C  
HETATM    4  C   UNL     1     -11.751  10.612  70.491  1.00  0.00    -0.451 C  
HETATM    5  O   UNL     1     -13.495  10.721  72.025  1.00  0.00    -0.373 OA 
HETATM    6  C   UNL     1     -10.992  11.178  69.531  1.00  0.00    -0.220 C  
HETATM    7  O   UNL     1     -11.946  14.591  70.138  1.00  0.00    -0.277 OA 
HETATM    8  N   UNL     1     -11.148  12.567  69.365  1.00  0.00    -0.141 N  
HETATM    9  C   UNL     1     -11.958  13.357  70.195  1.00  0.00    -0.326 C  
ENDROOT
BRANCH   6  10
HETATM   10  N   UNL     1     -10.118  10.341  68.778  1.00  0.00    -0.178 NA 
HETATM   11  N   UNL     1     -11.058   7.505  69.422  1.00  0.00    -0.443 NA 
HETATM   12  C   UNL     1      -8.664  10.221  68.956  1.00  0.00    -0.163 C  
HETATM   13  C   UNL     1      -8.290   8.843  69.493  1.00  0.00    -0.119 C  
HETATM   14  H2  UNL     1     -10.786   8.036  70.249  1.00  0.00     0.000 HD 
HETATM   15  H1  UNL     1     -12.055   7.593  69.223  1.00  0.00     0.000 HD 
HETATM   16  C   UNL     1      -8.768   7.753  68.541  1.00  0.00    -0.128 C  
HETATM   17  C   UNL     1     -10.592   9.337  67.777  1.00  0.00    -0.246 C  
HETATM   18  C   UNL     1     -10.269   7.887  68.240  1.00  0.00    -0.203 C  
ENDBRANCH   6  10
BRANCH   8  19
HETATM   19  C   UNL     1     -10.730  13.270  68.150  1.00  0.00    -0.249 C  
BRANCH  19  20
HETATM   20  C   UNL     1      -9.331  13.877  68.123  1.00  0.00    -0.203 A  
HETATM   21  C   UNL     1      -7.912  15.766  67.519  1.00  0.00    -0.171 A  
HETATM   22  C   UNL     1     -10.312  16.138  67.756  1.00  0.00    -0.283 C  
HETATM   23  N   UNL     1     -11.234  16.838  67.706  1.00  0.00    -0.130 NA 
HETATM   24  C   UNL     1      -9.180  15.250  67.821  1.00  0.00    -0.187 A  
HETATM   25  C   UNL     1      -6.792  14.936  67.526  1.00  0.00    -0.189 A  
HETATM   26  C   UNL     1      -6.919  13.603  67.908  1.00  0.00    -0.155 A  
HETATM   27  C   UNL     1      -8.173  13.084  68.238  1.00  0.00    -0.150 A  
ENDBRANCH  19  20
ENDBRANCH   8  19
TORSDOF 3
ENDMDL
MODEL      155
REMARK 921   NORMALIZED FREE ENERGY PREDICTED BY IDOCK:   -4.90 KCAL/MOL
REMARK 922        TOTAL FREE ENERGY PREDICTED BY IDOCK:   -6.07 KCAL/MOL
REMARK 923 INTER-LIGAND FREE ENERGY PREDICTED BY IDOCK:   -5.10 KCAL/MOL
REMARK 924 INTRA-LIGAND FREE ENERGY PREDICTED BY IDOCK:   -0.97 KCAL/MOL
REMARK 927      BINDING AFFINITY PREDICTED BY RF-SCORE:    0.00 PKD
ROOT
HETATM    1  C   UNL     1     -10.122   6.358  74.263  1.00  0.00    -0.347 C  
HETATM    2  N   UNL     1      -9.943   6.995  72.972  1.00  0.00    -0.181 N  
HETATM    3  C   UNL     1      -9.139   8.098  72.877  1.00  0.00    -0.267 C  
HETATM    4  C   UNL     1      -8.906   8.606  71.521  1.00  0.00    -0.285 C  
HETATM    5  O   UNL     1      -8.609   8.669  73.826  1.00  0.00    -0.292 OA 
HETATM    6  C   UNL     1      -9.332   7.978  70.407  1.00  0.00    -0.158 C  
HETATM    7  O   UNL     1     -11.376   5.502  72.024  1.00  0.00    -0.216 OA 
HETATM    8  N   UNL     1     -10.124   6.834  70.614  1.00  0.00    -0.187 N  
HETATM    9  C   UNL     1     -10.546   6.404  71.881  1.00  0.00    -0.214 C  
ENDROOT
BRANCH   6  10
HETATM   10  N   UNL     1      -8.950   8.511  69.141  1.00  0.00    -0.145 NA 
HETATM   11  N   UNL     1     -11.158   7.584  67.243  1.00  0.00    -0.532 NA 
HETATM   12  C   UNL     1      -7.740   8.166  68.383  1.00  0.00    -0.113 C  
HETATM   13  C   UNL     1      -8.091   7.407  67.108  1.00  0.00    -0.114 C  
HETATM   14  H2  UNL     1     -10.686   6.814  67.716  1.00  0.00     0.000 HD 
HETATM   15  H1  UNL     1     -11.983   7.898  67.755  1.00  0.00     0.000 HD 
HETATM   16  C   UNL     1      -9.011   8.245  66.227  1.00  0.00    -0.221 C  
HETATM   17  C   UNL     1      -9.823   9.408  68.325  1.00  0.00    -0.160 C  
HETATM   18  C   UNL     1     -10.253   8.718  66.998  1.00  0.00    -0.281 C  
ENDBRANCH   6  10
BRANCH   8  19
HETATM   19  C   UNL     1     -10.336   5.821  69.577  1.00  0.00    -0.263 C  
BRANCH  19  20
HETATM   20  C   UNL     1      -9.279   4.733  69.416  1.00  0.00    -0.169 A  
HETATM   21  C   UNL     1      -8.444   2.842  68.122  1.00  0.00    -0.103 A  
HETATM   22  C   UNL     1      -9.949   4.427  67.035  1.00  0.00    -0.157 C  
HETATM   23  N   UNL     1     -10.554   4.770  66.108  1.00  0.00    -0.302 NA 
HETATM   24  C   UNL     1      -9.207   4.016  68.200  1.00  0.00    -0.203 A  
HETATM   25  C   UNL     1      -7.744   2.381  69.235  1.00  0.00    -0.046 A  
HETATM   26  C   UNL     1      -7.739   3.128  70.411  1.00  0.00    -0.043 A  
HETATM   27  C   UNL     1      -8.473   4.313  70.491  1.00  0.00    -0.100 A  
ENDBRANCH  19  20
ENDBRANCH   8  19
TORSDOF 3
ENDMDL
MODEL      156
REMARK 921   NORMALIZED FREE ENERGY PREDICTED BY IDOCK:   -4.88 KCAL/MOL
REMARK 922        TOTAL FREE ENERGY PREDICTED BY IDOCK:   -6.06 KCAL/MOL
REMARK 923 INTER-LIGAND FREE ENERGY PREDICTED BY IDOCK:   -7.16 KCAL/MOL
REMARK 924 INTRA-LIGAND FREE ENERGY PREDICTED BY IDOCK:    1.10 KCAL/MOL
REMARK 927      BINDING AFFINITY PREDICTED BY RF-SCORE:    0.00 PKD
ROOT
HETATM    1  C   UNL     1     -12.341  14.558  64.292  1.00  0.00    -0.369 C  
HETATM    2  N   UNL     1     -11.641  13.499  64.995  1.00  0.00    -0.318 N  
HETATM    3  C   UNL     1     -11.244  12.387  64.304  1.00  0.00    -0.353 C  
HETATM    4  C   UNL     1     -10.433  11.423  65.053  1.00  0.00    -0.361 C  
HETATM    5  O   UNL     1     -11.510  12.156  63.127  1.00  0.00    -0.339 OA 
HETATM    6  C   UNL     1      -9.977  11.645  66.302  1.00  0.00    -0.217 C  
HETATM    7  O   UNL     1     -11.845  14.648  66.950  1.00  0.00    -0.381 OA 
HETATM    8  N   UNL     1     -10.417  12.834  66.913  1.00  0.00    -0.240 N  
HETATM    9  C   UNL     1     -11.348  13.705  66.327  1.00  0.00    -0.312 C  
ENDROOT
BRANCH   6  10
HETATM   10  N   UNL     1      -9.105  10.680  66.886  1.00  0.00    -0.154 NA 
HETATM   11  N   UNL     1     -10.965   8.405  67.728  1.00  0.00    -0.489 NA 
HETATM   12  C   UNL     1      -8.292  10.864  68.096  1.00  0.00    -0.123 C  
HETATM   13  C   UNL     1      -8.796   9.982  69.234  1.00  0.00    -0.184 C  
HETATM   14  H2  UNL     1     -11.208   9.300  68.151  1.00  0.00     0.000 HD 
HETATM   15  H1  UNL     1     -11.467   8.247  66.854  1.00  0.00     0.000 HD 
HETATM   16  C   UNL     1      -8.759   8.514  68.826  1.00  0.00    -0.139 C  
HETATM   17  C   UNL     1      -9.008   9.263  66.419  1.00  0.00    -0.154 C  
HETATM   18  C   UNL     1      -9.515   8.276  67.510  1.00  0.00    -0.149 C  
ENDBRANCH   6  10
BRANCH   8  19
HETATM   19  C   UNL     1      -9.737  13.429  68.066  1.00  0.00    -0.222 C  
BRANCH  19  20
HETATM   20  C   UNL     1     -10.598  14.077  69.145  1.00  0.00    -0.149 A  
HETATM   21  C   UNL     1     -12.630  13.993  70.491  1.00  0.00    -0.399 A  
HETATM   22  C   UNL     1     -11.823  11.931  69.465  1.00  0.00    -0.331 C  
HETATM   23  N   UNL     1     -11.938  10.798  69.253  1.00  0.00    -0.296 NA 
HETATM   24  C   UNL     1     -11.663  13.341  69.712  1.00  0.00    -0.354 A  
HETATM   25  C   UNL     1     -12.542  15.365  70.723  1.00  0.00    -0.497 A  
HETATM   26  C   UNL     1     -11.449  16.081  70.241  1.00  0.00    -0.369 A  
HETATM   27  C   UNL     1     -10.466  15.437  69.487  1.00  0.00    -0.264 A  
ENDBRANCH  19  20
ENDBRANCH   8  19
TORSDOF 3
ENDMDL
MODEL      157
REMARK 921   NORMALIZED FREE ENERGY PREDICTED BY IDOCK:   -4.88 KCAL/MOL
REMARK 922        TOTAL FREE ENERGY PREDICTED BY IDOCK:   -6.05 KCAL/MOL
REMARK 923 INTER-LIGAND FREE ENERGY PREDICTED BY IDOCK:   -6.25 KCAL/MOL
REMARK 924 INTRA-LIGAND FREE ENERGY PREDICTED BY IDOCK:    0.20 KCAL/MOL
REMARK 927      BINDING AFFINITY PREDICTED BY RF-SCORE:    0.00 PKD
ROOT
HETATM    1  C   UNL     1     -10.058  13.019  67.561  1.00  0.00    -0.218 C  
HETATM    2  N   UNL     1     -10.457  12.157  68.657  1.00  0.00    -0.230 N  
HETATM    3  C   UNL     1     -11.547  12.496  69.411  1.00  0.00    -0.305 C  
HETATM    4  C   UNL     1     -11.962  11.513  70.416  1.00  0.00    -0.459 C  
HETATM    5  O   UNL     1     -12.186  13.539  69.298  1.00  0.00    -0.305 OA 
HETATM    6  C   UNL     1     -11.413  10.287  70.530  1.00  0.00    -0.343 C  
HETATM    7  O   UNL     1      -8.688  10.787  68.238  1.00  0.00    -0.125 OA 
HETATM    8  N   UNL     1     -10.318  10.025  69.686  1.00  0.00    -0.231 N  
HETATM    9  C   UNL     1      -9.747  10.989  68.840  1.00  0.00    -0.172 C  
ENDROOT
BRANCH   6  10
HETATM   10  N   UNL     1     -11.975   9.378  71.473  1.00  0.00    -0.356 NA 
HETATM   11  N   UNL     1     -12.209   6.750  69.930  1.00  0.00    -0.521 NA 
HETATM   12  C   UNL     1     -13.304   9.480  72.092  1.00  0.00    -0.461 C  
HETATM   13  C   UNL     1     -14.221   8.362  71.608  1.00  0.00    -0.516 C  
HETATM   14  H2  UNL     1     -12.714   7.520  69.492  1.00  0.00     0.000 HD 
HETATM   15  H1  UNL     1     -11.258   6.664  69.570  1.00  0.00     0.000 HD 
HETATM   16  C   UNL     1     -13.619   7.000  71.938  1.00  0.00    -0.237 C  
HETATM   17  C   UNL     1     -11.332   8.086  71.860  1.00  0.00    -0.283 C  
HETATM   18  C   UNL     1     -12.187   6.871  71.396  1.00  0.00    -0.372 C  
ENDBRANCH   6  10
BRANCH   8  19
HETATM   19  C   UNL     1      -9.859   8.668  69.383  1.00  0.00    -0.184 C  
BRANCH  19  20
HETATM   20  C   UNL     1      -8.628   8.150  70.121  1.00  0.00    -0.129 A  
HETATM   21  C   UNL     1      -7.382   6.229  70.961  1.00  0.00    -0.084 A  
HETATM   22  C   UNL     1      -9.020   5.873  69.187  1.00  0.00    -0.119 C  
HETATM   23  N   UNL     1      -9.586   5.166  68.465  1.00  0.00    -0.133 NA 
HETATM   24  C   UNL     1      -8.330   6.768  70.080  1.00  0.00    -0.135 A  
HETATM   25  C   UNL     1      -6.719   7.049  71.873  1.00  0.00    -0.056 A  
HETATM   26  C   UNL     1      -6.943   8.423  71.860  1.00  0.00    -0.097 A  
HETATM   27  C   UNL     1      -7.865   8.976  70.968  1.00  0.00    -0.174 A  
ENDBRANCH  19  20
ENDBRANCH   8  19
TORSDOF 3
ENDMDL
MODEL      158
REMARK 921   NORMALIZED FREE ENERGY PREDICTED BY IDOCK:   -4.86 KCAL/MOL
REMARK 922        TOTAL FREE ENERGY PREDICTED BY IDOCK:   -6.03 KCAL/MOL
REMARK 923 INTER-LIGAND FREE ENERGY PREDICTED BY IDOCK:   -4.94 KCAL/MOL
REMARK 924 INTRA-LIGAND FREE ENERGY PREDICTED BY IDOCK:   -1.08 KCAL/MOL
REMARK 927      BINDING AFFINITY PREDICTED BY RF-SCORE:    0.00 PKD
ROOT
HETATM    1  C   UNL     1      -9.203   4.159  66.096  1.00  0.00    -0.150 C  
HETATM    2  N   UNL     1      -9.316   5.430  66.785  1.00  0.00    -0.129 N  
HETATM    3  C   UNL     1      -8.967   6.579  66.130  1.00  0.00    -0.146 C  
HETATM    4  C   UNL     1      -9.229   7.831  66.847  1.00  0.00    -0.187 C  
HETATM    5  O   UNL     1      -8.469   6.628  65.009  1.00  0.00    -0.106 OA 
HETATM    6  C   UNL     1      -9.890   7.892  68.021  1.00  0.00    -0.165 C  
HETATM    7  O   UNL     1     -10.009   4.358  68.671  1.00  0.00    -0.113 OA 
HETATM    8  N   UNL     1     -10.234   6.655  68.596  1.00  0.00    -0.161 N  
HETATM    9  C   UNL     1      -9.843   5.418  68.060  1.00  0.00    -0.144 C  
ENDROOT
BRANCH   6  10
HETATM   10  N   UNL     1     -10.181   9.176  68.567  1.00  0.00    -0.193 NA 
HETATM   11  N   UNL     1     -10.238  11.029  66.137  1.00  0.00    -0.240 NA 
HETATM   12  C   UNL     1      -9.337   9.934  69.501  1.00  0.00    -0.220 C  
HETATM   13  C   UNL     1      -8.771  11.184  68.836  1.00  0.00    -0.086 C  
HETATM   14  H2  UNL     1      -9.351  10.537  66.247  1.00  0.00     0.000 HD 
HETATM   15  H1  UNL     1     -10.884  10.519  65.534  1.00  0.00     0.000 HD 
HETATM   16  C   UNL     1      -9.899  12.082  68.341  1.00  0.00    -0.204 C  
HETATM   17  C   UNL     1     -11.345  10.011  68.142  1.00  0.00    -0.028 C  
HETATM   18  C   UNL     1     -10.873  11.314  67.433  1.00  0.00    -0.262 C  
ENDBRANCH   6  10
BRANCH   8  19
HETATM   19  C   UNL     1     -11.268   6.521  69.624  1.00  0.00    -0.384 C  
BRANCH  19  20
HETATM   20  C   UNL     1     -10.849   6.675  71.083  1.00  0.00    -0.284 A  
HETATM   21  C   UNL     1     -10.998   7.964  73.148  1.00  0.00    -0.301 A  
HETATM   22  C   UNL     1     -12.747   8.243  71.469  1.00  0.00    -0.305 C  
HETATM   23  N   UNL     1     -13.722   8.751  71.103  1.00  0.00    -0.133 NA 
HETATM   24  C   UNL     1     -11.531   7.603  71.903  1.00  0.00    -0.313 A  
HETATM   25  C   UNL     1      -9.801   7.404  73.592  1.00  0.00    -0.365 A  
HETATM   26  C   UNL     1      -9.169   6.425  72.830  1.00  0.00    -0.140 A  
HETATM   27  C   UNL     1      -9.706   6.037  71.601  1.00  0.00    -0.180 A  
ENDBRANCH  19  20
ENDBRANCH   8  19
TORSDOF 3
ENDMDL
MODEL      159
REMARK 921   NORMALIZED FREE ENERGY PREDICTED BY IDOCK:   -4.85 KCAL/MOL
REMARK 922        TOTAL FREE ENERGY PREDICTED BY IDOCK:   -6.02 KCAL/MOL
REMARK 923 INTER-LIGAND FREE ENERGY PREDICTED BY IDOCK:   -4.99 KCAL/MOL
REMARK 924 INTRA-LIGAND FREE ENERGY PREDICTED BY IDOCK:   -1.03 KCAL/MOL
REMARK 927      BINDING AFFINITY PREDICTED BY RF-SCORE:    0.00 PKD
ROOT
HETATM    1  C   UNL     1      -8.491  10.133  69.017  1.00  0.00    -0.151 C  
HETATM    2  N   UNL     1      -8.914   8.891  68.400  1.00  0.00    -0.134 N  
HETATM    3  C   UNL     1      -8.080   8.267  67.512  1.00  0.00    -0.122 C  
HETATM    4  C   UNL     1      -8.522   6.955  67.030  1.00  0.00    -0.121 C  
HETATM    5  O   UNL     1      -7.012   8.721  67.110  1.00  0.00    -0.070 OA 
HETATM    6  C   UNL     1      -9.607   6.313  67.507  1.00  0.00    -0.116 C  
HETATM    7  O   UNL     1     -10.909   9.017  69.489  1.00  0.00    -0.229 OA 
HETATM    8  N   UNL     1     -10.380   7.028  68.442  1.00  0.00    -0.186 N  
HETATM    9  C   UNL     1     -10.122   8.360  68.800  1.00  0.00    -0.196 C  
ENDROOT
BRANCH   6  10
HETATM   10  N   UNL     1      -9.874   4.994  67.039  1.00  0.00    -0.168 NA 
HETATM   11  N   UNL     1      -7.107   3.828  66.469  1.00  0.00    -0.062 NA 
HETATM   12  C   UNL     1     -10.606   4.638  65.816  1.00  0.00    -0.223 C  
HETATM   13  C   UNL     1      -9.677   3.999  64.789  1.00  0.00    -0.187 C  
HETATM   14  H2  UNL     1      -7.299   4.682  65.945  1.00  0.00     0.000 HD 
HETATM   15  H1  UNL     1      -6.641   4.023  67.356  1.00  0.00     0.000 HD 
HETATM   16  C   UNL     1      -9.028   2.746  65.365  1.00  0.00    -0.137 C  
HETATM   17  C   UNL     1      -9.306   3.763  67.668  1.00  0.00    -0.195 C  
HETATM   18  C   UNL     1      -8.326   3.038  66.700  1.00  0.00    -0.094 C  
ENDBRANCH   6  10
BRANCH   8  19
HETATM   19  C   UNL     1     -11.331   6.376  69.345  1.00  0.00    -0.377 C  
BRANCH  19  20
HETATM   20  C   UNL     1     -10.861   6.045  70.758  1.00  0.00    -0.358 A  
HETATM   21  C   UNL     1     -11.077   6.451  73.153  1.00  0.00    -0.194 A  
HETATM   22  C   UNL     1     -12.933   7.065  71.693  1.00  0.00    -0.352 C  
HETATM   23  N   UNL     1     -13.987   7.521  71.540  1.00  0.00    -0.420 NA 
HETATM   24  C   UNL     1     -11.620   6.497  71.862  1.00  0.00    -0.357 A  
HETATM   25  C   UNL     1      -9.792   5.950  73.361  1.00  0.00    -0.167 A  
HETATM   26  C   UNL     1      -9.072   5.423  72.292  1.00  0.00    -0.151 A  
HETATM   27  C   UNL     1      -9.615   5.438  71.005  1.00  0.00    -0.224 A  
ENDBRANCH  19  20
ENDBRANCH   8  19
TORSDOF 3
ENDMDL
MODEL      160
REMARK 921   NORMALIZED FREE ENERGY PREDICTED BY IDOCK:   -4.81 KCAL/MOL
REMARK 922        TOTAL FREE ENERGY PREDICTED BY IDOCK:   -5.97 KCAL/MOL
REMARK 923 INTER-LIGAND FREE ENERGY PREDICTED BY IDOCK:   -5.34 KCAL/MOL
REMARK 924 INTRA-LIGAND FREE ENERGY PREDICTED BY IDOCK:   -0.63 KCAL/MOL
REMARK 927      BINDING AFFINITY PREDICTED BY RF-SCORE:    0.00 PKD
ROOT
HETATM    1  C   UNL     1     -12.302  16.315  71.053  1.00  0.00     0.254 C  
HETATM    2  N   UNL     1     -12.153  14.872  71.055  1.00  0.00    -0.299 N  
HETATM    3  C   UNL     1     -13.128  14.100  71.625  1.00  0.00    -0.351 C  
HETATM    4  C   UNL     1     -12.969  12.651  71.473  1.00  0.00    -0.380 C  
HETATM    5  O   UNL     1     -14.105  14.532  72.231  1.00  0.00    -0.458 OA 
HETATM    6  C   UNL     1     -12.009  12.082  70.717  1.00  0.00    -0.050 C  
HETATM    7  O   UNL     1     -10.126  15.069  70.036  1.00  0.00    -0.134 OA 
HETATM    8  N   UNL     1     -11.073  12.966  70.147  1.00  0.00     0.435 N  
HETATM    9  C   UNL     1     -11.054  14.344  70.410  1.00  0.00     0.080 C  
ENDROOT
BRANCH   6  10
HETATM   10  N   UNL     1     -12.022  10.666  70.558  1.00  0.00    -0.321 NA 
HETATM   11  N   UNL     1     -14.003   9.694  72.673  1.00  0.00    -0.675 NA 
HETATM   12  C   UNL     1     -10.887   9.758  70.773  1.00  0.00    -0.333 C  
HETATM   13  C   UNL     1     -11.122   8.864  71.986  1.00  0.00    -0.421 C  
HETATM   14  H2  UNL     1     -13.227  10.229  73.064  1.00  0.00     0.000 HD 
HETATM   15  H1  UNL     1     -14.805  10.287  72.458  1.00  0.00     0.000 HD 
HETATM   16  C   UNL     1     -12.392   8.042  71.802  1.00  0.00    -0.352 C  
HETATM   17  C   UNL     1     -13.261   9.875  70.286  1.00  0.00     0.328 C  
HETATM   18  C   UNL     1     -13.600   8.935  71.479  1.00  0.00    -0.336 C  
ENDBRANCH   6  10
BRANCH   8  19
HETATM   19  C   UNL     1     -10.228  12.598  69.009  1.00  0.00     0.127 C  
BRANCH  19  20
HETATM   20  C   UNL     1     -10.621  13.121  67.631  1.00  0.00    -0.235 A  
HETATM   21  C   UNL     1     -10.083  14.566  65.741  1.00  0.00    -0.365 A  
HETATM   22  C   UNL     1      -8.288  13.913  67.259  1.00  0.00    -0.185 C  
HETATM   23  N   UNL     1      -7.177  13.959  67.587  1.00  0.00    -0.165 NA 
HETATM   24  C   UNL     1      -9.673  13.844  66.871  1.00  0.00    -0.268 A  
HETATM   25  C   UNL     1     -11.422  14.565  65.351  1.00  0.00    -0.348 A  
HETATM   26  C   UNL     1     -12.346  13.786  66.042  1.00  0.00    -0.499 A  
HETATM   27  C   UNL     1     -11.943  13.041  67.153  1.00  0.00    -0.389 A  
ENDBRANCH  19  20
ENDBRANCH   8  19
TORSDOF 3
ENDMDL
MODEL      161
REMARK 921   NORMALIZED FREE ENERGY PREDICTED BY IDOCK:   -4.78 KCAL/MOL
REMARK 922        TOTAL FREE ENERGY PREDICTED BY IDOCK:   -5.94 KCAL/MOL
REMARK 923 INTER-LIGAND FREE ENERGY PREDICTED BY IDOCK:   -5.83 KCAL/MOL
REMARK 924 INTRA-LIGAND FREE ENERGY PREDICTED BY IDOCK:   -0.11 KCAL/MOL
REMARK 927      BINDING AFFINITY PREDICTED BY RF-SCORE:    0.00 PKD
ROOT
HETATM    1  C   UNL     1     -11.529  16.231  67.961  1.00  0.00    -0.125 C  
HETATM    2  N   UNL     1     -10.540  15.170  67.952  1.00  0.00    -0.253 N  
HETATM    3  C   UNL     1      -9.239  15.465  68.256  1.00  0.00    -0.188 C  
HETATM    4  C   UNL     1      -8.328  14.321  68.350  1.00  0.00    -0.164 C  
HETATM    5  O   UNL     1      -8.801  16.594  68.456  1.00  0.00    -0.217 OA 
HETATM    6  C   UNL     1      -8.733  13.038  68.278  1.00  0.00    -0.173 C  
HETATM    7  O   UNL     1     -12.130  13.680  67.291  1.00  0.00    -0.380 OA 
HETATM    8  N   UNL     1     -10.098  12.841  67.995  1.00  0.00    -0.224 N  
HETATM    9  C   UNL     1     -10.984  13.888  67.702  1.00  0.00    -0.264 C  
ENDROOT
BRANCH   6  10
HETATM   10  N   UNL     1      -7.769  12.009  68.494  1.00  0.00    -0.130 NA 
HETATM   11  N   UNL     1      -5.261  13.027  67.075  1.00  0.00    -0.256 NA 
HETATM   12  C   UNL     1      -7.850  10.627  68.003  1.00  0.00    -0.105 C  
HETATM   13  C   UNL     1      -6.784  10.358  66.946  1.00  0.00    -0.083 C  
HETATM   14  H2  UNL     1      -6.068  12.947  66.457  1.00  0.00     0.000 HD 
HETATM   15  H1  UNL     1      -5.185  13.958  67.485  1.00  0.00     0.000 HD 
HETATM   16  C   UNL     1      -5.393  10.604  67.519  1.00  0.00    -0.040 C  
HETATM   17  C   UNL     1      -6.442  12.243  69.141  1.00  0.00    -0.100 C  
HETATM   18  C   UNL     1      -5.278  12.007  68.136  1.00  0.00    -0.048 C  
ENDBRANCH   6  10
BRANCH   8  19
HETATM   19  C   UNL     1     -10.788  11.578  68.267  1.00  0.00    -0.216 C  
BRANCH  19  20
HETATM   20  C   UNL     1     -11.460  11.411  69.626  1.00  0.00    -0.380 A  
HETATM   21  C   UNL     1     -12.403   9.898  71.291  1.00  0.00    -0.478 A  
HETATM   22  C   UNL     1     -10.854   8.994  69.636  1.00  0.00    -0.186 C  
HETATM   23  N   UNL     1     -10.282   8.099  69.173  1.00  0.00    -0.210 NA 
HETATM   24  C   UNL     1     -11.559  10.120  70.193  1.00  0.00    -0.350 A  
HETATM   25  C   UNL     1     -13.139  10.948  71.838  1.00  0.00    -0.537 A  
HETATM   26  C   UNL     1     -12.980  12.239  71.341  1.00  0.00    -0.354 A  
HETATM   27  C   UNL     1     -12.122  12.476  70.266  1.00  0.00    -0.373 A  
ENDBRANCH  19  20
ENDBRANCH   8  19
TORSDOF 3
ENDMDL
MODEL      162
REMARK 921   NORMALIZED FREE ENERGY PREDICTED BY IDOCK:   -4.77 KCAL/MOL
REMARK 922        TOTAL FREE ENERGY PREDICTED BY IDOCK:   -5.92 KCAL/MOL
REMARK 923 INTER-LIGAND FREE ENERGY PREDICTED BY IDOCK:   -5.01 KCAL/MOL
REMARK 924 INTRA-LIGAND FREE ENERGY PREDICTED BY IDOCK:   -0.91 KCAL/MOL
REMARK 927      BINDING AFFINITY PREDICTED BY RF-SCORE:    0.00 PKD
ROOT
HETATM    1  C   UNL     1     -11.099   6.535  68.369  1.00  0.00    -0.254 C  
HETATM    2  N   UNL     1      -9.910   7.366  68.385  1.00  0.00    -0.154 N  
HETATM    3  C   UNL     1      -8.732   6.857  67.910  1.00  0.00    -0.121 C  
HETATM    4  C   UNL     1      -7.609   7.798  67.840  1.00  0.00    -0.116 C  
HETATM    5  O   UNL     1      -8.562   5.698  67.542  1.00  0.00    -0.110 OA 
HETATM    6  C   UNL     1      -7.726   9.116  68.093  1.00  0.00    -0.092 C  
HETATM    7  O   UNL     1     -11.086   9.047  69.372  1.00  0.00    -0.132 OA 
HETATM    8  N   UNL     1      -8.988   9.545  68.545  1.00  0.00    -0.127 N  
HETATM    9  C   UNL     1     -10.049   8.668  68.819  1.00  0.00    -0.196 C  
ENDROOT
BRANCH   6  10
HETATM   10  N   UNL     1      -6.587   9.949  67.886  1.00  0.00    -0.063 NA 
HETATM   11  N   UNL     1      -6.557  11.796  70.321  1.00  0.00    -0.491 NA 
HETATM   12  C   UNL     1      -6.399  10.903  66.785  1.00  0.00    -0.097 C  
HETATM   13  C   UNL     1      -6.411  12.340  67.297  1.00  0.00    -0.152 C  
HETATM   14  H2  UNL     1      -7.424  11.851  69.785  1.00  0.00     0.000 HD 
HETATM   15  H1  UNL     1      -6.616  11.108  71.072  1.00  0.00     0.000 HD 
HETATM   16  C   UNL     1      -5.309  12.545  68.330  1.00  0.00    -0.061 C  
HETATM   17  C   UNL     1      -5.465  10.074  68.864  1.00  0.00    -0.035 C  
HETATM   18  C   UNL     1      -5.398  11.510  69.462  1.00  0.00    -0.054 C  
ENDBRANCH   6  10
BRANCH   8  19
HETATM   19  C   UNL     1      -9.415  10.945  68.487  1.00  0.00    -0.185 C  
BRANCH  19  20
HETATM   20  C   UNL     1     -10.039  11.447  67.190  1.00  0.00    -0.226 A  
HETATM   21  C   UNL     1     -11.824  12.713  66.113  1.00  0.00    -0.477 A  
HETATM   22  C   UNL     1     -11.347  13.140  68.467  1.00  0.00    -0.286 C  
HETATM   23  N   UNL     1     -11.577  13.696  69.458  1.00  0.00    -0.294 NA 
HETATM   24  C   UNL     1     -11.048  12.437  67.247  1.00  0.00    -0.329 A  
HETATM   25  C   UNL     1     -11.601  12.027  64.920  1.00  0.00    -0.332 A  
HETATM   26  C   UNL     1     -10.553  11.114  64.831  1.00  0.00    -0.356 A  
HETATM   27  C   UNL     1      -9.755  10.851  65.946  1.00  0.00    -0.269 A  
ENDBRANCH  19  20
ENDBRANCH   8  19
TORSDOF 3
ENDMDL
MODEL      163
REMARK 921   NORMALIZED FREE ENERGY PREDICTED BY IDOCK:   -4.76 KCAL/MOL
REMARK 922        TOTAL FREE ENERGY PREDICTED BY IDOCK:   -5.92 KCAL/MOL
REMARK 923 INTER-LIGAND FREE ENERGY PREDICTED BY IDOCK:   -4.83 KCAL/MOL
REMARK 924 INTRA-LIGAND FREE ENERGY PREDICTED BY IDOCK:   -1.08 KCAL/MOL
REMARK 927      BINDING AFFINITY PREDICTED BY RF-SCORE:    0.00 PKD
ROOT
HETATM    1  C   UNL     1      -9.756   6.685  73.737  1.00  0.00    -0.224 C  
HETATM    2  N   UNL     1      -9.324   6.689  72.352  1.00  0.00    -0.143 N  
HETATM    3  C   UNL     1      -9.549   5.584  71.579  1.00  0.00    -0.150 C  
HETATM    4  C   UNL     1      -9.201   5.712  70.161  1.00  0.00    -0.170 C  
HETATM    5  O   UNL     1     -10.018   4.524  71.984  1.00  0.00    -0.176 OA 
HETATM    6  C   UNL     1      -8.806   6.869  69.593  1.00  0.00    -0.141 C  
HETATM    7  O   UNL     1      -8.445   8.772  72.621  1.00  0.00    -0.413 OA 
HETATM    8  N   UNL     1      -8.635   7.956  70.470  1.00  0.00    -0.130 N  
HETATM    9  C   UNL     1      -8.764   7.851  71.863  1.00  0.00    -0.129 C  
ENDROOT
BRANCH   6  10
HETATM   10  N   UNL     1      -8.600   6.895  68.182  1.00  0.00    -0.124 NA 
HETATM   11  N   UNL     1      -9.685   4.205  67.218  1.00  0.00    -0.193 NA 
HETATM   12  C   UNL     1      -7.304   6.958  67.494  1.00  0.00    -0.096 C  
HETATM   13  C   UNL     1      -7.015   5.660  66.749  1.00  0.00    -0.065 C  
HETATM   14  H2  UNL     1      -8.943   4.114  67.912  1.00  0.00     0.000 HD 
HETATM   15  H1  UNL     1     -10.610   4.217  67.648  1.00  0.00     0.000 HD 
HETATM   16  C   UNL     1      -8.110   5.379  65.726  1.00  0.00    -0.110 C  
HETATM   17  C   UNL     1      -9.697   6.711  67.183  1.00  0.00    -0.142 C  
HETATM   18  C   UNL     1      -9.504   5.397  66.373  1.00  0.00    -0.154 C  
ENDBRANCH   6  10
BRANCH   8  19
HETATM   19  C   UNL     1      -8.605   9.346  70.010  1.00  0.00    -0.203 C  
BRANCH  19  20
HETATM   20  C   UNL     1      -9.918   9.976  69.556  1.00  0.00    -0.249 A  
HETATM   21  C   UNL     1     -11.052  11.527  68.054  1.00  0.00    -0.313 A  
HETATM   22  C   UNL     1      -8.840  10.707  67.432  1.00  0.00    -0.132 C  
HETATM   23  N   UNL     1      -7.938  10.691  66.704  1.00  0.00    -0.128 NA 
HETATM   24  C   UNL     1      -9.948  10.715  68.352  1.00  0.00    -0.176 A  
HETATM   25  C   UNL     1     -12.131  11.602  68.934  1.00  0.00    -0.253 A  
HETATM   26  C   UNL     1     -12.147  10.810  70.080  1.00  0.00    -0.427 A  
HETATM   27  C   UNL     1     -11.065   9.977  70.372  1.00  0.00    -0.393 A  
ENDBRANCH  19  20
ENDBRANCH   8  19
TORSDOF 3
ENDMDL
MODEL      164
REMARK 921   NORMALIZED FREE ENERGY PREDICTED BY IDOCK:   -4.72 KCAL/MOL
REMARK 922        TOTAL FREE ENERGY PREDICTED BY IDOCK:   -5.86 KCAL/MOL
REMARK 923 INTER-LIGAND FREE ENERGY PREDICTED BY IDOCK:   -4.92 KCAL/MOL
REMARK 924 INTRA-LIGAND FREE ENERGY PREDICTED BY IDOCK:   -0.95 KCAL/MOL
REMARK 927      BINDING AFFINITY PREDICTED BY RF-SCORE:    0.00 PKD
ROOT
HETATM    1  C   UNL     1     -11.732  11.883  68.442  1.00  0.00    -0.326 C  
HETATM    2  N   UNL     1     -11.065  10.984  69.365  1.00  0.00    -0.244 N  
HETATM    3  C   UNL     1     -11.807  10.308  70.294  1.00  0.00    -0.288 C  
HETATM    4  C   UNL     1     -11.080   9.324  71.103  1.00  0.00    -0.411 C  
HETATM    5  O   UNL     1     -13.010  10.462  70.483  1.00  0.00    -0.344 OA 
HETATM    6  C   UNL     1      -9.794   8.986  70.885  1.00  0.00    -0.264 C  
HETATM    7  O   UNL     1      -9.049  11.533  68.459  1.00  0.00    -0.175 OA 
HETATM    8  N   UNL     1      -9.128   9.718  69.885  1.00  0.00    -0.222 N  
HETATM    9  C   UNL     1      -9.706  10.803  69.207  1.00  0.00    -0.120 C  
ENDROOT
BRANCH   6  10
HETATM   10  N   UNL     1      -9.228   7.937  71.667  1.00  0.00    -0.136 NA 
HETATM   11  N   UNL     1     -11.644   6.567  72.942  1.00  0.00    -0.491 NA 
HETATM   12  C   UNL     1      -8.333   8.100  72.822  1.00  0.00    -0.181 C  
HETATM   13  C   UNL     1      -9.020   7.665  74.112  1.00  0.00    -0.251 C  
HETATM   14  H2  UNL     1     -11.580   7.560  73.167  1.00  0.00     0.000 HD 
HETATM   15  H1  UNL     1     -12.217   6.400  72.114  1.00  0.00     0.000 HD 
HETATM   16  C   UNL     1      -9.454   6.207  74.018  1.00  0.00    -0.163 C  
HETATM   17  C   UNL     1      -9.592   6.496  71.506  1.00  0.00    -0.161 C  
HETATM   18  C   UNL     1     -10.317   5.955  72.772  1.00  0.00    -0.196 C  
ENDBRANCH   6  10
BRANCH   8  19
HETATM   19  C   UNL     1      -7.898   9.246  69.245  1.00  0.00    -0.085 C  
BRANCH  19  20
HETATM   20  C   UNL     1      -8.030   8.291  68.063  1.00  0.00    -0.123 A  
HETATM   21  C   UNL     1      -7.862   7.953  65.654  1.00  0.00    -0.109 A  
HETATM   22  C   UNL     1      -6.678   9.838  66.653  1.00  0.00    -0.079 C  
HETATM   23  N   UNL     1      -6.008  10.777  66.549  1.00  0.00    -0.085 NA 
HETATM   24  C   UNL     1      -7.515   8.675  66.804  1.00  0.00    -0.086 A  
HETATM   25  C   UNL     1      -8.705   6.846  65.743  1.00  0.00    -0.120 A  
HETATM   26  C   UNL     1      -9.146   6.408  66.989  1.00  0.00    -0.130 A  
HETATM   27  C   UNL     1      -8.784   7.104  68.145  1.00  0.00    -0.127 A  
ENDBRANCH  19  20
ENDBRANCH   8  19
TORSDOF 3
ENDMDL
MODEL      165
REMARK 921   NORMALIZED FREE ENERGY PREDICTED BY IDOCK:   -4.70 KCAL/MOL
REMARK 922        TOTAL FREE ENERGY PREDICTED BY IDOCK:   -5.84 KCAL/MOL
REMARK 923 INTER-LIGAND FREE ENERGY PREDICTED BY IDOCK:   -4.79 KCAL/MOL
REMARK 924 INTRA-LIGAND FREE ENERGY PREDICTED BY IDOCK:   -1.06 KCAL/MOL
REMARK 927      BINDING AFFINITY PREDICTED BY RF-SCORE:    0.00 PKD
ROOT
HETATM    1  C   UNL     1      -5.683  11.655  70.085  1.00  0.00    -0.141 C  
HETATM    2  N   UNL     1      -6.258  10.334  70.252  1.00  0.00    -0.098 N  
HETATM    3  C   UNL     1      -6.109   9.686  71.447  1.00  0.00     0.001 C  
HETATM    4  C   UNL     1      -6.825   8.414  71.581  1.00  0.00    -0.076 C  
HETATM    5  O   UNL     1      -5.437  10.094  72.391  1.00  0.00    -0.299 OA 
HETATM    6  C   UNL     1      -7.689   7.945  70.659  1.00  0.00    -0.090 C  
HETATM    7  O   UNL     1      -6.989  10.368  68.095  1.00  0.00    -0.072 OA 
HETATM    8  N   UNL     1      -7.796   8.703  69.477  1.00  0.00    -0.093 N  
HETATM    9  C   UNL     1      -6.996   9.823  69.204  1.00  0.00    -0.055 C  
ENDROOT
BRANCH   6  10
HETATM   10  N   UNL     1      -8.409   6.750  70.950  1.00  0.00    -0.127 NA 
HETATM   11  N   UNL     1      -8.453   5.237  68.295  1.00  0.00    -0.097 NA 
HETATM   12  C   UNL     1      -9.815   6.663  71.367  1.00  0.00    -0.179 C  
HETATM   13  C   UNL     1     -10.668   6.012  70.283  1.00  0.00    -0.367 C  
HETATM   14  H2  UNL     1      -8.869   6.166  68.235  1.00  0.00     0.000 HD 
HETATM   15  H1  UNL     1      -7.459   5.247  68.062  1.00  0.00     0.000 HD 
HETATM   16  C   UNL     1     -10.152   4.612  69.970  1.00  0.00    -0.267 C  
HETATM   17  C   UNL     1      -7.859   5.378  70.726  1.00  0.00    -0.095 C  
HETATM   18  C   UNL     1      -8.656   4.628  69.619  1.00  0.00    -0.077 C  
ENDBRANCH   6  10
BRANCH   8  19
HETATM   19  C   UNL     1      -8.934   8.587  68.563  1.00  0.00    -0.139 C  
BRANCH  19  20
HETATM   20  C   UNL     1     -10.107   9.542  68.760  1.00  0.00    -0.202 A  
HETATM   21  C   UNL     1     -11.425  11.399  67.887  1.00  0.00    -0.361 A  
HETATM   22  C   UNL     1     -10.072  10.095  66.331  1.00  0.00    -0.236 C  
HETATM   23  N   UNL     1      -9.678   9.896  65.259  1.00  0.00    -0.301 NA 
HETATM   24  C   UNL     1     -10.548  10.328  67.670  1.00  0.00    -0.312 A  
HETATM   25  C   UNL     1     -11.879  11.691  69.173  1.00  0.00    -0.390 A  
HETATM   26  C   UNL     1     -11.519  10.869  70.238  1.00  0.00    -0.391 A  
HETATM   27  C   UNL     1     -10.668   9.783  70.029  1.00  0.00    -0.326 A  
ENDBRANCH  19  20
ENDBRANCH   8  19
TORSDOF 3
ENDMDL
MODEL      166
REMARK 921   NORMALIZED FREE ENERGY PREDICTED BY IDOCK:   -4.70 KCAL/MOL
REMARK 922        TOTAL FREE ENERGY PREDICTED BY IDOCK:   -5.84 KCAL/MOL
REMARK 923 INTER-LIGAND FREE ENERGY PREDICTED BY IDOCK:   -4.74 KCAL/MOL
REMARK 924 INTRA-LIGAND FREE ENERGY PREDICTED BY IDOCK:   -1.10 KCAL/MOL
REMARK 927      BINDING AFFINITY PREDICTED BY RF-SCORE:    0.00 PKD
ROOT
HETATM    1  C   UNL     1      -9.779  10.511  65.961  1.00  0.00    -0.205 C  
HETATM    2  N   UNL     1      -9.673   9.870  67.258  1.00  0.00    -0.166 N  
HETATM    3  C   UNL     1     -10.675  10.044  68.173  1.00  0.00    -0.239 C  
HETATM    4  C   UNL     1     -10.557   9.262  69.408  1.00  0.00    -0.234 C  
HETATM    5  O   UNL     1     -11.643  10.785  68.028  1.00  0.00    -0.470 OA 
HETATM    6  C   UNL     1      -9.609   8.326  69.609  1.00  0.00    -0.167 C  
HETATM    7  O   UNL     1      -7.634   9.032  66.688  1.00  0.00    -0.088 OA 
HETATM    8  N   UNL     1      -8.643   8.202  68.592  1.00  0.00    -0.127 N  
HETATM    9  C   UNL     1      -8.585   9.050  67.476  1.00  0.00    -0.120 C  
ENDROOT
BRANCH   6  10
HETATM   10  N   UNL     1      -9.662   7.554  70.807  1.00  0.00    -0.174 NA 
HETATM   11  N   UNL     1     -12.197   8.525  72.210  1.00  0.00    -0.379 NA 
HETATM   12  C   UNL     1      -8.684   7.582  71.903  1.00  0.00    -0.114 C  
HETATM   13  C   UNL     1      -9.292   8.186  73.164  1.00  0.00    -0.328 C  
HETATM   14  H2  UNL     1     -11.526   9.272  72.029  1.00  0.00     0.000 HD 
HETATM   15  H1  UNL     1     -12.874   8.429  71.453  1.00  0.00     0.000 HD 
HETATM   16  C   UNL     1     -10.512   7.384  73.603  1.00  0.00    -0.350 C  
HETATM   17  C   UNL     1     -10.826   6.696  71.186  1.00  0.00    -0.241 C  
HETATM   18  C   UNL     1     -11.531   7.238  72.462  1.00  0.00    -0.281 C  
ENDBRANCH   6  10
BRANCH   8  19
HETATM   19  C   UNL     1      -7.802   7.013  68.441  1.00  0.00    -0.122 C  
BRANCH  19  20
HETATM   20  C   UNL     1      -8.494   5.676  68.202  1.00  0.00    -0.098 A  
HETATM   21  C   UNL     1      -8.522   3.268  68.590  1.00  0.00    -0.104 A  
HETATM   22  C   UNL     1      -7.248   4.682  70.117  1.00  0.00    -0.050 C  
HETATM   23  N   UNL     1      -6.552   4.803  71.036  1.00  0.00    -0.030 NA 
HETATM   24  C   UNL     1      -8.110   4.553  68.971  1.00  0.00    -0.073 A  
HETATM   25  C   UNL     1      -9.322   3.088  67.463  1.00  0.00    -0.229 A  
HETATM   26  C   UNL     1      -9.776   4.195  66.750  1.00  0.00    -0.234 A  
HETATM   27  C   UNL     1      -9.394   5.482  67.136  1.00  0.00    -0.115 A  
ENDBRANCH  19  20
ENDBRANCH   8  19
TORSDOF 3
ENDMDL
MODEL      167
REMARK 921   NORMALIZED FREE ENERGY PREDICTED BY IDOCK:   -4.69 KCAL/MOL
REMARK 922        TOTAL FREE ENERGY PREDICTED BY IDOCK:   -5.83 KCAL/MOL
REMARK 923 INTER-LIGAND FREE ENERGY PREDICTED BY IDOCK:   -4.87 KCAL/MOL
REMARK 924 INTRA-LIGAND FREE ENERGY PREDICTED BY IDOCK:   -0.96 KCAL/MOL
REMARK 927      BINDING AFFINITY PREDICTED BY RF-SCORE:    0.00 PKD
ROOT
HETATM    1  C   UNL     1     -11.671   6.758  71.678  1.00  0.00    -0.314 C  
HETATM    2  N   UNL     1     -11.360   7.616  70.551  1.00  0.00    -0.271 N  
HETATM    3  C   UNL     1     -11.321   8.972  70.734  1.00  0.00    -0.277 C  
HETATM    4  C   UNL     1     -10.875   9.761  69.581  1.00  0.00    -0.274 C  
HETATM    5  O   UNL     1     -11.619   9.552  71.774  1.00  0.00    -0.385 OA 
HETATM    6  C   UNL     1     -10.402   9.216  68.443  1.00  0.00    -0.206 C  
HETATM    7  O   UNL     1     -11.233   5.798  69.187  1.00  0.00    -0.270 OA 
HETATM    8  N   UNL     1     -10.456   7.811  68.368  1.00  0.00    -0.192 N  
HETATM    9  C   UNL     1     -11.048   7.007  69.353  1.00  0.00    -0.157 C  
ENDROOT
BRANCH   6  10
HETATM   10  N   UNL     1      -9.896  10.087  67.434  1.00  0.00    -0.177 NA 
HETATM   11  N   UNL     1      -9.997  12.858  68.719  1.00  0.00    -0.415 NA 
HETATM   12  C   UNL     1     -10.507  10.343  66.123  1.00  0.00    -0.154 C  
HETATM   13  C   UNL     1     -11.026  11.774  66.031  1.00  0.00    -0.355 C  
HETATM   14  H2  UNL     1     -10.906  12.397  68.687  1.00  0.00     0.000 HD 
HETATM   15  H1  UNL     1      -9.505  12.672  69.594  1.00  0.00     0.000 HD 
HETATM   16  C   UNL     1      -9.891  12.767  66.257  1.00  0.00    -0.269 C  
HETATM   17  C   UNL     1      -8.724  10.992  67.635  1.00  0.00    -0.128 C  
HETATM   18  C   UNL     1      -9.151  12.487  67.574  1.00  0.00    -0.187 C  
ENDBRANCH   6  10
BRANCH   8  19
HETATM   19  C   UNL     1      -9.649   7.039  67.420  1.00  0.00    -0.135 C  
BRANCH  19  20
HETATM   20  C   UNL     1      -8.263   6.587  67.867  1.00  0.00    -0.116 A  
HETATM   21  C   UNL     1      -6.773   4.735  68.414  1.00  0.00    -0.050 A  
HETATM   22  C   UNL     1      -8.743   4.283  67.048  1.00  0.00    -0.109 C  
HETATM   23  N   UNL     1      -9.422   3.542  66.470  1.00  0.00    -0.181 NA 
HETATM   24  C   UNL     1      -7.916   5.220  67.764  1.00  0.00    -0.099 A  
HETATM   25  C   UNL     1      -5.964   5.595  69.155  1.00  0.00    -0.024 A  
HETATM   26  C   UNL     1      -6.249   6.957  69.190  1.00  0.00    -0.027 A  
HETATM   27  C   UNL     1      -7.370   7.456  68.523  1.00  0.00    -0.100 A  
ENDBRANCH  19  20
ENDBRANCH   8  19
TORSDOF 3
ENDMDL
MODEL      168
REMARK 921   NORMALIZED FREE ENERGY PREDICTED BY IDOCK:   -4.67 KCAL/MOL
REMARK 922        TOTAL FREE ENERGY PREDICTED BY IDOCK:   -5.81 KCAL/MOL
REMARK 923 INTER-LIGAND FREE ENERGY PREDICTED BY IDOCK:   -6.52 KCAL/MOL
REMARK 924 INTRA-LIGAND FREE ENERGY PREDICTED BY IDOCK:    0.71 KCAL/MOL
REMARK 927      BINDING AFFINITY PREDICTED BY RF-SCORE:    0.00 PKD
ROOT
HETATM    1  C   UNL     1      -6.079  11.413  69.014  1.00  0.00    -0.054 C  
HETATM    2  N   UNL     1      -7.354  11.730  68.399  1.00  0.00    -0.087 N  
HETATM    3  C   UNL     1      -7.425  12.757  67.498  1.00  0.00    -0.154 C  
HETATM    4  C   UNL     1      -8.716  12.932  66.827  1.00  0.00    -0.112 C  
HETATM    5  O   UNL     1      -6.501  13.516  67.220  1.00  0.00    -0.276 OA 
HETATM    6  C   UNL     1      -9.749  12.077  66.963  1.00  0.00    -0.196 C  
HETATM    7  O   UNL     1      -8.363  10.099  69.627  1.00  0.00    -0.168 OA 
HETATM    8  N   UNL     1      -9.563  11.034  67.889  1.00  0.00    -0.169 N  
HETATM    9  C   UNL     1      -8.428  10.921  68.707  1.00  0.00    -0.150 C  
ENDROOT
BRANCH   6  10
HETATM   10  N   UNL     1     -10.916  12.292  66.173  1.00  0.00    -0.281 NA 
HETATM   11  N   UNL     1      -9.840  12.674  63.338  1.00  0.00    -0.627 NA 
HETATM   12  C   UNL     1     -11.849  13.420  66.292  1.00  0.00    -0.394 C  
HETATM   13  C   UNL     1     -11.775  14.325  65.067  1.00  0.00    -0.383 C  
HETATM   14  H2  UNL     1      -9.458  13.343  64.006  1.00  0.00     0.000 HD 
HETATM   15  H1  UNL     1      -9.253  11.844  63.252  1.00  0.00     0.000 HD 
HETATM   16  C   UNL     1     -12.103  13.537  63.804  1.00  0.00    -0.482 C  
HETATM   17  C   UNL     1     -11.279  11.455  64.988  1.00  0.00    -0.089 C  
HETATM   18  C   UNL     1     -11.219  12.287  63.674  1.00  0.00    -0.466 C  
ENDBRANCH   6  10
BRANCH   8  19
HETATM   19  C   UNL     1     -10.376   9.815  67.883  1.00  0.00    -0.213 C  
BRANCH  19  20
HETATM   20  C   UNL     1     -10.772   9.216  69.228  1.00  0.00    -0.199 A  
HETATM   21  C   UNL     1     -11.577   9.594  71.500  1.00  0.00    -0.451 A  
HETATM   22  C   UNL     1     -11.969  11.320  69.820  1.00  0.00    -0.360 C  
HETATM   23  N   UNL     1     -12.380  12.361  69.521  1.00  0.00    -0.044 NA 
HETATM   24  C   UNL     1     -11.449  10.023  70.171  1.00  0.00    -0.344 A  
HETATM   25  C   UNL     1     -11.051   8.366  71.898  1.00  0.00    -0.378 A  
HETATM   26  C   UNL     1     -10.460   7.526  70.957  1.00  0.00    -0.222 A  
HETATM   27  C   UNL     1     -10.352   7.932  69.625  1.00  0.00    -0.216 A  
ENDBRANCH  19  20
ENDBRANCH   8  19
TORSDOF 3
ENDMDL
MODEL      169
REMARK 921   NORMALIZED FREE ENERGY PREDICTED BY IDOCK:   -4.63 KCAL/MOL
REMARK 922        TOTAL FREE ENERGY PREDICTED BY IDOCK:   -5.76 KCAL/MOL
REMARK 923 INTER-LIGAND FREE ENERGY PREDICTED BY IDOCK:   -5.08 KCAL/MOL
REMARK 924 INTRA-LIGAND FREE ENERGY PREDICTED BY IDOCK:   -0.68 KCAL/MOL
REMARK 927      BINDING AFFINITY PREDICTED BY RF-SCORE:    0.00 PKD
ROOT
HETATM    1  C   UNL     1     -11.226   6.918  70.558  1.00  0.00    -0.307 C  
HETATM    2  N   UNL     1     -11.204   8.131  69.762  1.00  0.00    -0.056 N  
HETATM    3  C   UNL     1     -11.334   9.342  70.385  1.00  0.00    -0.242 C  
HETATM    4  C   UNL     1     -11.174  10.522  69.530  1.00  0.00    -0.329 C  
HETATM    5  O   UNL     1     -11.562   9.499  71.581  1.00  0.00    -0.377 OA 
HETATM    6  C   UNL     1     -10.794  10.460  68.239  1.00  0.00    -0.254 C  
HETATM    7  O   UNL     1     -11.013   6.891  67.861  1.00  0.00    -0.227 OA 
HETATM    8  N   UNL     1     -10.655   9.167  67.701  1.00  0.00    -0.260 N  
HETATM    9  C   UNL     1     -10.980   7.999  68.407  1.00  0.00     0.220 C  
ENDROOT
BRANCH   6  10
HETATM   10  N   UNL     1     -10.565  11.682  67.541  1.00  0.00    -0.202 NA 
HETATM   11  N   UNL     1     -12.232  13.739  69.069  1.00  0.00    -0.397 NA 
HETATM   12  C   UNL     1     -10.939  11.970  66.149  1.00  0.00    -0.302 C  
HETATM   13  C   UNL     1     -12.043  13.020  66.084  1.00  0.00    -0.473 C  
HETATM   14  H2  UNL     1     -12.784  12.960  68.712  1.00  0.00     0.000 HD 
HETATM   15  H1  UNL     1     -11.903  13.570  70.020  1.00  0.00     0.000 HD 
HETATM   16  C   UNL     1     -11.590  14.311  66.757  1.00  0.00    -0.407 C  
HETATM   17  C   UNL     1     -10.033  12.919  68.190  1.00  0.00    -0.234 C  
HETATM   18  C   UNL     1     -11.095  14.056  68.189  1.00  0.00    -0.260 C  
ENDBRANCH   6  10
BRANCH   8  19
HETATM   19  C   UNL     1      -9.888   8.894  66.484  1.00  0.00    -0.274 C  
BRANCH  19  20
HETATM   20  C   UNL     1      -8.367   8.897  66.584  1.00  0.00    -0.111 A  
HETATM   21  C   UNL     1      -6.300   7.603  66.660  1.00  0.00    -0.046 A  
HETATM   22  C   UNL     1      -8.299   6.557  65.731  1.00  0.00    -0.143 C  
HETATM   23  N   UNL     1      -8.834   5.640  65.265  1.00  0.00    -0.120 NA 
HETATM   24  C   UNL     1      -7.654   7.706  66.312  1.00  0.00    -0.088 A  
HETATM   25  C   UNL     1      -5.644   8.674  67.265  1.00  0.00    -0.039 A  
HETATM   26  C   UNL     1      -6.314   9.880  67.456  1.00  0.00    -0.063 A  
HETATM   27  C   UNL     1      -7.655  10.003  67.088  1.00  0.00    -0.092 A  
ENDBRANCH  19  20
ENDBRANCH   8  19
TORSDOF 3
ENDMDL
MODEL      170
REMARK 921   NORMALIZED FREE ENERGY PREDICTED BY IDOCK:   -4.61 KCAL/MOL
REMARK 922        TOTAL FREE ENERGY PREDICTED BY IDOCK:   -5.74 KCAL/MOL
REMARK 923 INTER-LIGAND FREE ENERGY PREDICTED BY IDOCK:   -4.78 KCAL/MOL
REMARK 924 INTRA-LIGAND FREE ENERGY PREDICTED BY IDOCK:   -0.96 KCAL/MOL
REMARK 927      BINDING AFFINITY PREDICTED BY RF-SCORE:    0.00 PKD
ROOT
HETATM    1  C   UNL     1      -5.696  15.955  68.382  1.00  0.00    -0.108 C  
HETATM    2  N   UNL     1      -7.007  15.376  68.603  1.00  0.00    -0.108 N  
HETATM    3  C   UNL     1      -7.450  15.192  69.885  1.00  0.00    -0.032 C  
HETATM    4  C   UNL     1      -8.831  14.722  70.024  1.00  0.00     0.640 C  
HETATM    5  O   UNL     1      -6.785  15.398  70.897  1.00  0.00     0.447 OA 
HETATM    6  C   UNL     1      -9.682  14.594  68.988  1.00  0.00    -0.160 C  
HETATM    7  O   UNL     1      -7.294  15.143  66.357  1.00  0.00     0.442 OA 
HETATM    8  N   UNL     1      -9.138  14.837  67.713  1.00  0.00    -0.183 N  
HETATM    9  C   UNL     1      -7.777  15.101  67.492  1.00  0.00    -0.181 C  
ENDROOT
BRANCH   6  10
HETATM   10  N   UNL     1     -11.034  14.233  69.262  1.00  0.00    -0.254 NA 
HETATM   11  N   UNL     1     -11.453  15.060  72.174  1.00  0.00    -0.462 NA 
HETATM   12  C   UNL     1     -11.588  12.872  69.255  1.00  0.00    -0.310 C  
HETATM   13  C   UNL     1     -11.982  12.435  70.662  1.00  0.00    -0.202 C  
HETATM   14  H2  UNL     1     -10.688  14.397  72.051  1.00  0.00     0.000 HD 
HETATM   15  H1  UNL     1     -11.129  16.027  72.138  1.00  0.00     0.000 HD 
HETATM   16  C   UNL     1     -13.015  13.392  71.247  1.00  0.00    -0.368 C  
HETATM   17  C   UNL     1     -12.065  15.200  69.749  1.00  0.00    -0.319 C  
HETATM   18  C   UNL     1     -12.528  14.848  71.192  1.00  0.00    -0.327 C  
ENDBRANCH   6  10
BRANCH   8  19
HETATM   19  C   UNL     1      -9.966  15.134  66.542  1.00  0.00    -0.266 C  
BRANCH  19  20
HETATM   20  C   UNL     1     -10.316  13.983  65.606  1.00  0.00    -0.342 A  
HETATM   21  C   UNL     1     -11.740  13.140  63.813  1.00  0.00    -0.519 A  
HETATM   22  C   UNL     1     -11.572  15.554  64.134  1.00  0.00    -0.078 C  
HETATM   23  N   UNL     1     -11.875  16.633  63.842  1.00  0.00    -0.733 NA 
HETATM   24  C   UNL     1     -11.186  14.220  64.516  1.00  0.00    -0.331 A  
HETATM   25  C   UNL     1     -11.429  11.830  64.173  1.00  0.00    -0.409 A  
HETATM   26  C   UNL     1     -10.507  11.589  65.188  1.00  0.00    -0.340 A  
HETATM   27  C   UNL     1      -9.928  12.657  65.877  1.00  0.00    -0.274 A  
ENDBRANCH  19  20
ENDBRANCH   8  19
TORSDOF 3
ENDMDL
MODEL      171
REMARK 921   NORMALIZED FREE ENERGY PREDICTED BY IDOCK:   -4.60 KCAL/MOL
REMARK 922        TOTAL FREE ENERGY PREDICTED BY IDOCK:   -5.72 KCAL/MOL
REMARK 923 INTER-LIGAND FREE ENERGY PREDICTED BY IDOCK:   -6.04 KCAL/MOL
REMARK 924 INTRA-LIGAND FREE ENERGY PREDICTED BY IDOCK:    0.32 KCAL/MOL
REMARK 927      BINDING AFFINITY PREDICTED BY RF-SCORE:    0.00 PKD
ROOT
HETATM    1  C   UNL     1      -5.911  10.265  68.971  1.00  0.00    -0.037 C  
HETATM    2  N   UNL     1      -6.983  11.173  68.610  1.00  0.00    -0.075 N  
HETATM    3  C   UNL     1      -6.757  12.129  67.658  1.00  0.00    -0.118 C  
HETATM    4  C   UNL     1      -7.923  12.922  67.256  1.00  0.00    -0.151 C  
HETATM    5  O   UNL     1      -5.672  12.354  67.128  1.00  0.00    -0.231 OA 
HETATM    6  C   UNL     1      -9.178  12.668  67.678  1.00  0.00    -0.191 C  
HETATM    7  O   UNL     1      -8.342  10.203  70.158  1.00  0.00    -0.125 OA 
HETATM    8  N   UNL     1      -9.308  11.642  68.633  1.00  0.00    -0.157 N  
HETATM    9  C   UNL     1      -8.213  10.976  69.204  1.00  0.00    -0.045 C  
ENDROOT
BRANCH   6  10
HETATM   10  N   UNL     1     -10.245  13.440  67.132  1.00  0.00    -0.245 NA 
HETATM   11  N   UNL     1      -9.799  13.303  64.112  1.00  0.00    -0.713 NA 
HETATM   12  C   UNL     1     -10.470  14.877  67.336  1.00  0.00    -0.255 C  
HETATM   13  C   UNL     1     -10.255  15.654  66.041  1.00  0.00    -0.354 C  
HETATM   14  H2  UNL     1      -9.002  13.688  64.619  1.00  0.00     0.000 HD 
HETATM   15  H1  UNL     1      -9.718  12.293  63.985  1.00  0.00     0.000 HD 
HETATM   16  C   UNL     1     -11.198  15.150  64.955  1.00  0.00    -0.414 C  
HETATM   17  C   UNL     1     -11.224  12.908  66.135  1.00  0.00    -0.292 C  
HETATM   18  C   UNL     1     -11.076  13.630  64.764  1.00  0.00    -0.370 C  
ENDBRANCH   6  10
BRANCH   8  19
HETATM   19  C   UNL     1     -10.580  10.969  68.903  1.00  0.00    -0.207 C  
BRANCH  19  20
HETATM   20  C   UNL     1     -10.602   9.444  68.866  1.00  0.00    -0.231 A  
HETATM   21  C   UNL     1     -10.779   7.414  67.526  1.00  0.00    -0.310 A  
HETATM   22  C   UNL     1     -10.131   9.490  66.419  1.00  0.00    -0.258 C  
HETATM   23  N   UNL     1      -9.845  10.076  65.461  1.00  0.00    -0.288 NA 
HETATM   24  C   UNL     1     -10.487   8.782  67.622  1.00  0.00    -0.310 A  
HETATM   25  C   UNL     1     -11.171   6.695  68.654  1.00  0.00    -0.239 A  
HETATM   26  C   UNL     1     -11.201   7.320  69.899  1.00  0.00    -0.195 A  
HETATM   27  C   UNL     1     -10.886   8.675  70.011  1.00  0.00    -0.226 A  
ENDBRANCH  19  20
ENDBRANCH   8  19
TORSDOF 3
ENDMDL
MODEL      172
REMARK 921   NORMALIZED FREE ENERGY PREDICTED BY IDOCK:   -4.58 KCAL/MOL
REMARK 922        TOTAL FREE ENERGY PREDICTED BY IDOCK:   -5.70 KCAL/MOL
REMARK 923 INTER-LIGAND FREE ENERGY PREDICTED BY IDOCK:   -4.80 KCAL/MOL
REMARK 924 INTRA-LIGAND FREE ENERGY PREDICTED BY IDOCK:   -0.90 KCAL/MOL
REMARK 927      BINDING AFFINITY PREDICTED BY RF-SCORE:    0.00 PKD
ROOT
HETATM    1  C   UNL     1     -12.259   8.600  72.538  1.00  0.00    -0.303 C  
HETATM    2  N   UNL     1     -11.569   8.769  71.273  1.00  0.00    -0.277 N  
HETATM    3  C   UNL     1     -11.454  10.021  70.736  1.00  0.00    -0.356 C  
HETATM    4  C   UNL     1     -10.635  10.126  69.525  1.00  0.00    -0.269 C  
HETATM    5  O   UNL     1     -11.972  11.036  71.195  1.00  0.00    -0.279 OA 
HETATM    6  C   UNL     1      -9.919   9.102  69.019  1.00  0.00    -0.184 C  
HETATM    7  O   UNL     1     -11.243   6.519  71.140  1.00  0.00    -0.272 OA 
HETATM    8  N   UNL     1     -10.082   7.862  69.664  1.00  0.00    -0.193 N  
HETATM    9  C   UNL     1     -10.997   7.649  70.707  1.00  0.00    -0.252 C  
ENDROOT
BRANCH   6  10
HETATM   10  N   UNL     1      -9.074   9.355  67.899  1.00  0.00    -0.130 NA 
HETATM   11  N   UNL     1      -7.696  11.996  68.583  1.00  0.00    -0.196 NA 
HETATM   12  C   UNL     1      -9.511   9.596  66.517  1.00  0.00    -0.181 C  
HETATM   13  C   UNL     1      -9.227  11.033  66.096  1.00  0.00    -0.209 C  
HETATM   14  H2  UNL     1      -8.713  12.065  68.571  1.00  0.00     0.000 HD 
HETATM   15  H1  UNL     1      -7.339  11.779  69.515  1.00  0.00     0.000 HD 
HETATM   16  C   UNL     1      -7.737  11.335  66.207  1.00  0.00    -0.053 C  
HETATM   17  C   UNL     1      -7.597   9.559  68.008  1.00  0.00    -0.086 C  
HETATM   18  C   UNL     1      -7.200  11.010  67.610  1.00  0.00    -0.093 C  
ENDBRANCH   6  10
BRANCH   8  19
HETATM   19  C   UNL     1      -9.121   6.765  69.525  1.00  0.00    -0.141 C  
BRANCH  19  20
HETATM   20  C   UNL     1      -9.370   5.735  68.428  1.00  0.00    -0.130 A  
HETATM   21  C   UNL     1      -9.262   3.402  67.726  1.00  0.00    -0.235 A  
HETATM   22  C   UNL     1      -9.249   3.903  70.113  1.00  0.00    -0.147 C  
HETATM   23  N   UNL     1      -9.196   3.554  71.217  1.00  0.00    -0.113 NA 
HETATM   24  C   UNL     1      -9.314   4.359  68.749  1.00  0.00    -0.213 A  
HETATM   25  C   UNL     1      -9.278   3.796  66.389  1.00  0.00    -0.178 A  
HETATM   26  C   UNL     1      -9.421   5.143  66.064  1.00  0.00    -0.170 A  
HETATM   27  C   UNL     1      -9.502   6.103  67.075  1.00  0.00    -0.141 A  
ENDBRANCH  19  20
ENDBRANCH   8  19
TORSDOF 3
ENDMDL
MODEL      173
REMARK 921   NORMALIZED FREE ENERGY PREDICTED BY IDOCK:   -4.58 KCAL/MOL
REMARK 922        TOTAL FREE ENERGY PREDICTED BY IDOCK:   -5.70 KCAL/MOL
REMARK 923 INTER-LIGAND FREE ENERGY PREDICTED BY IDOCK:   -5.01 KCAL/MOL
REMARK 924 INTRA-LIGAND FREE ENERGY PREDICTED BY IDOCK:   -0.70 KCAL/MOL
REMARK 927      BINDING AFFINITY PREDICTED BY RF-SCORE:    0.00 PKD
ROOT
HETATM    1  C   UNL     1      -6.271  12.141  69.344  1.00  0.00    -0.106 C  
HETATM    2  N   UNL     1      -6.736  10.798  69.054  1.00  0.00    -0.063 N  
HETATM    3  C   UNL     1      -6.737   9.860  70.050  1.00  0.00    -0.100 C  
HETATM    4  C   UNL     1      -7.339   8.567  69.712  1.00  0.00    -0.056 C  
HETATM    5  O   UNL     1      -6.285  10.031  71.179  1.00  0.00    -0.254 OA 
HETATM    6  C   UNL     1      -7.978   8.323  68.551  1.00  0.00    -0.122 C  
HETATM    7  O   UNL     1      -7.076  11.375  66.877  1.00  0.00    -0.128 OA 
HETATM    8  N   UNL     1      -7.948   9.364  67.605  1.00  0.00    -0.099 N  
HETATM    9  C   UNL     1      -7.225  10.553  67.787  1.00  0.00    -0.085 C  
ENDROOT
BRANCH   6  10
HETATM   10  N   UNL     1      -8.619   7.061  68.382  1.00  0.00    -0.126 NA 
HETATM   11  N   UNL     1      -8.217   6.408  65.424  1.00  0.00    -0.139 NA 
HETATM   12  C   UNL     1     -10.051   6.783  68.557  1.00  0.00    -0.162 C  
HETATM   13  C   UNL     1     -10.709   6.444  67.225  1.00  0.00    -0.426 C  
HETATM   14  H2  UNL     1      -8.703   7.291  65.578  1.00  0.00     0.000 HD 
HETATM   15  H1  UNL     1      -7.208   6.537  65.343  1.00  0.00     0.000 HD 
HETATM   16  C   UNL     1     -10.039   5.228  66.594  1.00  0.00    -0.259 C  
HETATM   17  C   UNL     1      -7.927   5.847  67.849  1.00  0.00    -0.105 C  
HETATM   18  C   UNL     1      -8.520   5.423  66.474  1.00  0.00    -0.113 C  
ENDBRANCH   6  10
BRANCH   8  19
HETATM   19  C   UNL     1      -8.892   9.445  66.487  1.00  0.00    -0.136 C  
BRANCH  19  20
HETATM   20  C   UNL     1      -9.979  10.512  66.547  1.00  0.00    -0.266 A  
HETATM   21  C   UNL     1     -11.028  12.451  65.503  1.00  0.00    -0.328 A  
HETATM   22  C   UNL     1      -9.676  10.967  64.116  1.00  0.00    -0.296 C  
HETATM   23  N   UNL     1      -9.209  10.691  63.092  1.00  0.00    -0.260 NA 
HETATM   24  C   UNL     1     -10.243  11.294  65.399  1.00  0.00    -0.323 A  
HETATM   25  C   UNL     1     -11.563  12.832  66.732  1.00  0.00    -0.431 A  
HETATM   26  C   UNL     1     -11.381  12.022  67.850  1.00  0.00    -0.369 A  
HETATM   27  C   UNL     1     -10.624  10.853  67.752  1.00  0.00    -0.255 A  
ENDBRANCH  19  20
ENDBRANCH   8  19
TORSDOF 3
ENDMDL
MODEL      174
REMARK 921   NORMALIZED FREE ENERGY PREDICTED BY IDOCK:   -4.58 KCAL/MOL
REMARK 922        TOTAL FREE ENERGY PREDICTED BY IDOCK:   -5.70 KCAL/MOL
REMARK 923 INTER-LIGAND FREE ENERGY PREDICTED BY IDOCK:   -5.20 KCAL/MOL
REMARK 924 INTRA-LIGAND FREE ENERGY PREDICTED BY IDOCK:   -0.50 KCAL/MOL
REMARK 927      BINDING AFFINITY PREDICTED BY RF-SCORE:    0.00 PKD
ROOT
HETATM    1  C   UNL     1     -10.055   8.125  68.603  1.00  0.00    -0.196 C  
HETATM    2  N   UNL     1      -9.520   9.473  68.589  1.00  0.00    -0.141 N  
HETATM    3  C   UNL     1      -8.437   9.770  69.370  1.00  0.00    -0.159 C  
HETATM    4  C   UNL     1      -7.877  11.115  69.204  1.00  0.00    -0.065 C  
HETATM    5  O   UNL     1      -7.914   9.002  70.172  1.00  0.00    -0.090 OA 
HETATM    6  C   UNL     1      -8.293  11.984  68.261  1.00  0.00    -0.163 C  
HETATM    7  O   UNL     1     -11.157  10.119  67.144  1.00  0.00    -0.213 OA 
HETATM    8  N   UNL     1      -9.393  11.569  67.487  1.00  0.00    -0.164 N  
HETATM    9  C   UNL     1     -10.097  10.378  67.723  1.00  0.00    -0.181 C  
ENDROOT
BRANCH   6  10
HETATM   10  N   UNL     1      -7.598  13.221  68.126  1.00  0.00    -0.128 NA 
HETATM   11  N   UNL     1      -6.066  13.509  70.754  1.00  0.00    -0.396 NA 
HETATM   12  C   UNL     1      -8.209  14.550  67.989  1.00  0.00    -0.145 C  
HETATM   13  C   UNL     1      -7.942  15.405  69.223  1.00  0.00    -0.229 C  
HETATM   14  H2  UNL     1      -7.073  13.419  70.884  1.00  0.00     0.000 HD 
HETATM   15  H1  UNL     1      -5.594  12.605  70.791  1.00  0.00     0.000 HD 
HETATM   16  C   UNL     1      -6.443  15.565  69.446  1.00  0.00    -0.151 C  
HETATM   17  C   UNL     1      -6.114  13.354  68.254  1.00  0.00    -0.099 C  
HETATM   18  C   UNL     1      -5.733  14.203  69.501  1.00  0.00    -0.097 C  
ENDBRANCH   6  10
BRANCH   8  19
HETATM   19  C   UNL     1      -9.724  12.172  66.194  1.00  0.00    -0.240 C  
BRANCH  19  20
HETATM   20  C   UNL     1      -9.291  11.435  64.932  1.00  0.00    -0.137 A  
HETATM   21  C   UNL     1      -9.893  10.599  62.721  1.00  0.00    -0.220 A  
HETATM   22  C   UNL     1     -11.245  12.377  63.705  1.00  0.00    -0.474 C  
HETATM   23  N   UNL     1     -12.147  13.103  63.656  1.00  0.00    -0.595 NA 
HETATM   24  C   UNL     1     -10.121  11.480  63.787  1.00  0.00    -0.407 A  
HETATM   25  C   UNL     1      -8.843   9.684  62.773  1.00  0.00    -0.251 A  
HETATM   26  C   UNL     1      -7.969   9.692  63.857  1.00  0.00    -0.143 A  
HETATM   27  C   UNL     1      -8.170  10.584  64.913  1.00  0.00    -0.117 A  
ENDBRANCH  19  20
ENDBRANCH   8  19
TORSDOF 3
ENDMDL
MODEL      175
REMARK 921   NORMALIZED FREE ENERGY PREDICTED BY IDOCK:   -4.57 KCAL/MOL
REMARK 922        TOTAL FREE ENERGY PREDICTED BY IDOCK:   -5.68 KCAL/MOL
REMARK 923 INTER-LIGAND FREE ENERGY PREDICTED BY IDOCK:   -4.62 KCAL/MOL
REMARK 924 INTRA-LIGAND FREE ENERGY PREDICTED BY IDOCK:   -1.07 KCAL/MOL
REMARK 927      BINDING AFFINITY PREDICTED BY RF-SCORE:    0.00 PKD
ROOT
HETATM    1  C   UNL     1      -7.913   7.464  64.306  1.00  0.00    -0.097 C  
HETATM    2  N   UNL     1      -7.792   8.305  65.481  1.00  0.00    -0.100 N  
HETATM    3  C   UNL     1      -6.617   8.967  65.712  1.00  0.00    -0.064 C  
HETATM    4  C   UNL     1      -6.616   9.895  66.847  1.00  0.00    -0.067 C  
HETATM    5  O   UNL     1      -5.595   8.842  65.044  1.00  0.00    -0.046 OA 
HETATM    6  C   UNL     1      -7.719  10.202  67.559  1.00  0.00    -0.091 C  
HETATM    7  O   UNL     1      -9.900   7.731  66.123  1.00  0.00    -0.096 OA 
HETATM    8  N   UNL     1      -8.885   9.489  67.221  1.00  0.00    -0.128 N  
HETATM    9  C   UNL     1      -8.909   8.451  66.278  1.00  0.00    -0.159 C  
ENDROOT
BRANCH   6  10
HETATM   10  N   UNL     1      -7.615  11.201  68.570  1.00  0.00    -0.112 NA 
HETATM   11  N   UNL     1      -5.888  13.377  67.297  1.00  0.00    -0.395 NA 
HETATM   12  C   UNL     1      -6.977  11.045  69.884  1.00  0.00    -0.049 C  
HETATM   13  C   UNL     1      -5.712  11.890  69.983  1.00  0.00    -0.138 C  
HETATM   14  H2  UNL     1      -5.429  12.468  67.329  1.00  0.00     0.000 HD 
HETATM   15  H1  UNL     1      -6.391  13.520  66.420  1.00  0.00     0.000 HD 
HETATM   16  C   UNL     1      -6.038  13.363  69.759  1.00  0.00    -0.128 C  
HETATM   17  C   UNL     1      -8.024  12.625  68.370  1.00  0.00    -0.134 C  
HETATM   18  C   UNL     1      -6.795  13.577  68.439  1.00  0.00    -0.102 C  
ENDBRANCH   6  10
BRANCH   8  19
HETATM   19  C   UNL     1     -10.226   9.949  67.588  1.00  0.00    -0.208 C  
BRANCH  19  20
HETATM   20  C   UNL     1     -10.777   9.530  68.947  1.00  0.00    -0.220 A  
HETATM   21  C   UNL     1     -11.563  10.209  71.154  1.00  0.00    -0.430 A  
HETATM   22  C   UNL     1     -11.552  11.862  69.359  1.00  0.00    -0.325 C  
HETATM   23  N   UNL     1     -11.739  12.942  68.981  1.00  0.00    -0.311 NA 
HETATM   24  C   UNL     1     -11.310  10.516  69.809  1.00  0.00    -0.367 A  
HETATM   25  C   UNL     1     -11.304   8.931  71.647  1.00  0.00    -0.407 A  
HETATM   26  C   UNL     1     -10.862   7.931  70.785  1.00  0.00    -0.238 A  
HETATM   27  C   UNL     1     -10.632   8.218  69.438  1.00  0.00    -0.203 A  
ENDBRANCH  19  20
ENDBRANCH   8  19
TORSDOF 3
ENDMDL
MODEL      176
REMARK 921   NORMALIZED FREE ENERGY PREDICTED BY IDOCK:   -4.55 KCAL/MOL
REMARK 922        TOTAL FREE ENERGY PREDICTED BY IDOCK:   -5.67 KCAL/MOL
REMARK 923 INTER-LIGAND FREE ENERGY PREDICTED BY IDOCK:   -5.05 KCAL/MOL
REMARK 924 INTRA-LIGAND FREE ENERGY PREDICTED BY IDOCK:   -0.62 KCAL/MOL
REMARK 927      BINDING AFFINITY PREDICTED BY RF-SCORE:    0.00 PKD
ROOT
HETATM    1  C   UNL     1      -7.334  15.186  67.284  1.00  0.00    -0.181 C  
HETATM    2  N   UNL     1      -8.127  14.110  67.846  1.00  0.00    -0.140 N  
HETATM    3  C   UNL     1      -9.274  14.409  68.527  1.00  0.00    -0.198 C  
HETATM    4  C   UNL     1     -10.085  13.265  68.953  1.00  0.00     0.012 C  
HETATM    5  O   UNL     1      -9.661  15.545  68.791  1.00  0.00    -0.195 OA 
HETATM    6  C   UNL     1      -9.818  11.991  68.601  1.00  0.00    -0.117 C  
HETATM    7  O   UNL     1      -6.602  12.588  67.109  1.00  0.00    -0.150 OA 
HETATM    8  N   UNL     1      -8.631  11.793  67.872  1.00  0.00    -0.148 N  
HETATM    9  C   UNL     1      -7.712  12.817  67.599  1.00  0.00    -0.162 C  
ENDROOT
BRANCH   6  10
HETATM   10  N   UNL     1     -10.742  10.975  68.984  1.00  0.00    -0.208 NA 
HETATM   11  N   UNL     1     -12.411  12.274  71.190  1.00  0.00    -0.308 NA 
HETATM   12  C   UNL     1     -10.405   9.679  69.589  1.00  0.00    -0.227 C  
HETATM   13  C   UNL     1     -10.890   9.606  71.033  1.00  0.00    -0.412 C  
HETATM   14  H2  UNL     1     -11.412  12.261  71.397  1.00  0.00     0.000 HD 
HETATM   15  H1  UNL     1     -12.692  13.136  70.723  1.00  0.00     0.000 HD 
HETATM   16  C   UNL     1     -12.399   9.810  71.098  1.00  0.00    -0.451 C  
HETATM   17  C   UNL     1     -12.225  11.153  68.957  1.00  0.00    -0.125 C  
HETATM   18  C   UNL     1     -12.823  11.108  70.393  1.00  0.00    -0.099 C  
ENDBRANCH   6  10
BRANCH   8  19
HETATM   19  C   UNL     1      -8.382  10.587  67.079  1.00  0.00    -0.128 C  
BRANCH  19  20
HETATM   20  C   UNL     1      -9.008  10.505  65.691  1.00  0.00    -0.200 A  
HETATM   21  C   UNL     1      -8.932   9.555  63.446  1.00  0.00    -0.205 A  
HETATM   22  C   UNL     1      -7.752   8.400  65.242  1.00  0.00    -0.098 C  
HETATM   23  N   UNL     1      -7.079   7.532  65.612  1.00  0.00    -0.060 NA 
HETATM   24  C   UNL     1      -8.586   9.488  64.803  1.00  0.00    -0.196 A  
HETATM   25  C   UNL     1      -9.703  10.612  62.964  1.00  0.00    -0.362 A  
HETATM   26  C   UNL     1     -10.194  11.570  63.847  1.00  0.00    -0.411 A  
HETATM   27  C   UNL     1      -9.879  11.499  65.206  1.00  0.00    -0.286 A  
ENDBRANCH  19  20
ENDBRANCH   8  19
TORSDOF 3
ENDMDL
MODEL      177
REMARK 921   NORMALIZED FREE ENERGY PREDICTED BY IDOCK:   -4.54 KCAL/MOL
REMARK 922        TOTAL FREE ENERGY PREDICTED BY IDOCK:   -5.66 KCAL/MOL
REMARK 923 INTER-LIGAND FREE ENERGY PREDICTED BY IDOCK:   -4.42 KCAL/MOL
REMARK 924 INTRA-LIGAND FREE ENERGY PREDICTED BY IDOCK:   -1.24 KCAL/MOL
REMARK 927      BINDING AFFINITY PREDICTED BY RF-SCORE:    0.00 PKD
ROOT
HETATM    1  C   UNL     1      -8.467   1.552  70.186  1.00  0.00    -0.046 C  
HETATM    2  N   UNL     1      -9.233   2.781  70.270  1.00  0.00    -0.124 N  
HETATM    3  C   UNL     1      -9.666   3.217  71.493  1.00  0.00    -0.156 C  
HETATM    4  C   UNL     1     -10.321   4.528  71.510  1.00  0.00    -0.138 C  
HETATM    5  O   UNL     1      -9.537   2.600  72.547  1.00  0.00    -0.101 OA 
HETATM    6  C   UNL     1     -10.393   5.339  70.437  1.00  0.00    -0.275 C  
HETATM    7  O   UNL     1      -9.152   3.000  68.005  1.00  0.00    -0.141 OA 
HETATM    8  N   UNL     1      -9.891   4.810  69.233  1.00  0.00    -0.197 N  
HETATM    9  C   UNL     1      -9.428   3.491  69.104  1.00  0.00    -0.154 C  
ENDROOT
BRANCH   6  10
HETATM   10  N   UNL     1     -10.958   6.637  70.605  1.00  0.00    -0.262 NA 
HETATM   11  N   UNL     1     -10.898   7.093  73.626  1.00  0.00    -0.535 NA 
HETATM   12  C   UNL     1     -12.332   7.037  70.270  1.00  0.00     0.096 C  
HETATM   13  C   UNL     1     -13.132   7.355  71.528  1.00  0.00    -0.424 C  
HETATM   14  H2  UNL     1     -11.423   6.261  73.356  1.00  0.00     0.000 HD 
HETATM   15  H1  UNL     1      -9.920   6.880  73.824  1.00  0.00     0.000 HD 
HETATM   16  C   UNL     1     -12.463   8.476  72.315  1.00  0.00    -0.448 C  
HETATM   17  C   UNL     1     -10.257   7.761  71.298  1.00  0.00    -0.193 C  
HETATM   18  C   UNL     1     -10.991   8.155  72.612  1.00  0.00    -0.370 C  
ENDBRANCH   6  10
BRANCH   8  19
HETATM   19  C   UNL     1      -9.523   5.651  68.092  1.00  0.00    -0.110 C  
BRANCH  19  20
HETATM   20  C   UNL     1      -8.301   6.553  68.235  1.00  0.00    -0.117 A  
HETATM   21  C   UNL     1      -7.280   8.726  67.810  1.00  0.00    -0.084 A  
HETATM   22  C   UNL     1      -9.713   8.550  67.758  1.00  0.00    -0.162 C  
HETATM   23  N   UNL     1     -10.756   9.030  67.599  1.00  0.00    -0.222 NA 
HETATM   24  C   UNL     1      -8.426   7.933  67.957  1.00  0.00    -0.123 A  
HETATM   25  C   UNL     1      -6.011   8.165  67.950  1.00  0.00    -0.043 A  
HETATM   26  C   UNL     1      -5.881   6.826  68.311  1.00  0.00    -0.017 A  
HETATM   27  C   UNL     1      -7.017   6.033  68.486  1.00  0.00    -0.076 A  
ENDBRANCH  19  20
ENDBRANCH   8  19
TORSDOF 3
ENDMDL
MODEL      178
REMARK 921   NORMALIZED FREE ENERGY PREDICTED BY IDOCK:   -4.48 KCAL/MOL
REMARK 922        TOTAL FREE ENERGY PREDICTED BY IDOCK:   -5.59 KCAL/MOL
REMARK 923 INTER-LIGAND FREE ENERGY PREDICTED BY IDOCK:   -4.84 KCAL/MOL
REMARK 924 INTRA-LIGAND FREE ENERGY PREDICTED BY IDOCK:   -0.75 KCAL/MOL
REMARK 927      BINDING AFFINITY PREDICTED BY RF-SCORE:    0.00 PKD
ROOT
HETATM    1  C   UNL     1      -6.012   9.575  66.716  1.00  0.00    -0.059 C  
HETATM    2  N   UNL     1      -7.137  10.457  66.469  1.00  0.00    -0.107 N  
HETATM    3  C   UNL     1      -7.542  10.681  65.182  1.00  0.00     0.027 C  
HETATM    4  C   UNL     1      -8.761  11.478  65.023  1.00  0.00     0.342 C  
HETATM    5  O   UNL     1      -6.969  10.262  64.180  1.00  0.00    -0.121 OA 
HETATM    6  C   UNL     1      -9.534  11.872  66.055  1.00  0.00    -0.229 C  
HETATM    7  O   UNL     1      -7.315  10.870  68.701  1.00  0.00    -0.086 OA 
HETATM    8  N   UNL     1      -9.045  11.564  67.339  1.00  0.00    -0.164 N  
HETATM    9  C   UNL     1      -7.792  10.975  67.567  1.00  0.00    -0.116 C  
ENDROOT
BRANCH   6  10
HETATM   10  N   UNL     1     -10.755  12.550  65.768  1.00  0.00    -0.263 NA 
HETATM   11  N   UNL     1     -11.499  11.592  62.963  1.00  0.00    -0.844 NA 
HETATM   12  C   UNL     1     -10.933  14.003  65.644  1.00  0.00    -0.300 C  
HETATM   13  C   UNL     1     -11.259  14.394  64.207  1.00  0.00    -0.111 C  
HETATM   14  H2  UNL     1     -10.583  12.037  63.005  1.00  0.00     0.000 HD 
HETATM   15  H1  UNL     1     -11.439  10.581  63.093  1.00  0.00     0.000 HD 
HETATM   16  C   UNL     1     -12.530  13.693  63.740  1.00  0.00    -0.262 C  
HETATM   17  C   UNL     1     -12.022  11.848  65.400  1.00  0.00     0.020 C  
HETATM   18  C   UNL     1     -12.439  12.172  63.936  1.00  0.00    -0.478 C  
ENDBRANCH   6  10
BRANCH   8  19
HETATM   19  C   UNL     1      -9.901  11.547  68.528  1.00  0.00    -0.195 C  
BRANCH  19  20
HETATM   20  C   UNL     1     -10.405  12.883  69.062  1.00  0.00     0.040 A  
HETATM   21  C   UNL     1     -12.256  14.165  69.999  1.00  0.00    -0.418 A  
HETATM   22  C   UNL     1     -12.330  11.731  70.146  1.00  0.00    -0.195 C  
HETATM   23  N   UNL     1     -12.872  10.755  70.459  1.00  0.00    -0.300 NA 
HETATM   24  C   UNL     1     -11.642  12.931  69.746  1.00  0.00    -0.288 A  
HETATM   25  C   UNL     1     -11.650  15.352  69.593  1.00  0.00    -0.344 A  
HETATM   26  C   UNL     1     -10.391  15.320  68.997  1.00  0.00    -0.242 A  
HETATM   27  C   UNL     1      -9.757  14.098  68.764  1.00  0.00    -0.148 A  
ENDBRANCH  19  20
ENDBRANCH   8  19
TORSDOF 3
ENDMDL
MODEL      179
REMARK 921   NORMALIZED FREE ENERGY PREDICTED BY IDOCK:   -4.46 KCAL/MOL
REMARK 922        TOTAL FREE ENERGY PREDICTED BY IDOCK:   -5.56 KCAL/MOL
REMARK 923 INTER-LIGAND FREE ENERGY PREDICTED BY IDOCK:   -5.21 KCAL/MOL
REMARK 924 INTRA-LIGAND FREE ENERGY PREDICTED BY IDOCK:   -0.36 KCAL/MOL
REMARK 927      BINDING AFFINITY PREDICTED BY RF-SCORE:    0.00 PKD
ROOT
HETATM    1  C   UNL     1     -11.954  13.767  68.703  1.00  0.00    -0.366 C  
HETATM    2  N   UNL     1     -11.098  12.733  68.154  1.00  0.00    -0.242 N  
HETATM    3  C   UNL     1     -10.500  12.935  66.940  1.00  0.00    -0.246 C  
HETATM    4  C   UNL     1      -9.551  11.902  66.513  1.00  0.00    -0.226 C  
HETATM    5  O   UNL     1     -10.696  13.903  66.210  1.00  0.00    -0.282 OA 
HETATM    6  C   UNL     1      -9.168  10.874  67.295  1.00  0.00    -0.151 C  
HETATM    7  O   UNL     1     -11.539  11.400  69.946  1.00  0.00    -0.293 OA 
HETATM    8  N   UNL     1      -9.819  10.773  68.539  1.00  0.00    -0.169 N  
HETATM    9  C   UNL     1     -10.873  11.613  68.928  1.00  0.00    -0.220 C  
ENDROOT
BRANCH   6  10
HETATM   10  N   UNL     1      -8.155   9.995  66.810  1.00  0.00    -0.117 NA 
HETATM   11  N   UNL     1      -9.147   9.169  64.040  1.00  0.00    -0.415 NA 
HETATM   12  C   UNL     1      -7.780   8.699  67.392  1.00  0.00    -0.098 C  
HETATM   13  C   UNL     1      -8.159   7.551  66.462  1.00  0.00    -0.120 C  
HETATM   14  H2  UNL     1      -9.804   8.943  64.786  1.00  0.00     0.000 HD 
HETATM   15  H1  UNL     1      -9.332  10.085  63.632  1.00  0.00     0.000 HD 
HETATM   16  C   UNL     1      -7.470   7.711  65.111  1.00  0.00    -0.088 C  
HETATM   17  C   UNL     1      -7.419  10.209  65.527  1.00  0.00    -0.146 C  
HETATM   18  C   UNL     1      -7.750   9.091  64.496  1.00  0.00    -0.116 C  
ENDBRANCH   6  10
BRANCH   8  19
HETATM   19  C   UNL     1      -9.277   9.995  69.655  1.00  0.00    -0.215 C  
BRANCH  19  20
HETATM   20  C   UNL     1      -9.828   8.591  69.879  1.00  0.00    -0.186 A  
HETATM   21  C   UNL     1      -9.522   6.389  70.884  1.00  0.00    -0.185 A  
HETATM   22  C   UNL     1      -8.253   8.270  71.783  1.00  0.00    -0.145 C  
HETATM   23  N   UNL     1      -7.472   8.697  72.526  1.00  0.00    -0.334 NA 
HETATM   24  C   UNL     1      -9.224   7.759  70.850  1.00  0.00    -0.155 A  
HETATM   25  C   UNL     1     -10.422   5.840  69.973  1.00  0.00    -0.353 A  
HETATM   26  C   UNL     1     -11.087   6.667  69.071  1.00  0.00    -0.318 A  
HETATM   27  C   UNL     1     -10.819   8.037  69.046  1.00  0.00    -0.020 A  
ENDBRANCH  19  20
ENDBRANCH   8  19
TORSDOF 3
ENDMDL
MODEL      180
REMARK 921   NORMALIZED FREE ENERGY PREDICTED BY IDOCK:   -4.42 KCAL/MOL
REMARK 922        TOTAL FREE ENERGY PREDICTED BY IDOCK:   -5.51 KCAL/MOL
REMARK 923 INTER-LIGAND FREE ENERGY PREDICTED BY IDOCK:   -4.90 KCAL/MOL
REMARK 924 INTRA-LIGAND FREE ENERGY PREDICTED BY IDOCK:   -0.61 KCAL/MOL
REMARK 927      BINDING AFFINITY PREDICTED BY RF-SCORE:    0.00 PKD
ROOT
HETATM    1  C   UNL     1      -9.461   4.122  68.940  1.00  0.00    -0.169 C  
HETATM    2  N   UNL     1      -9.218   5.465  68.449  1.00  0.00    -0.109 N  
HETATM    3  C   UNL     1      -9.257   5.701  67.102  1.00  0.00    -0.114 C  
HETATM    4  C   UNL     1      -9.129   7.103  66.694  1.00  0.00    -0.175 C  
HETATM    5  O   UNL     1      -9.395   4.839  66.239  1.00  0.00    -0.132 OA 
HETATM    6  C   UNL     1      -9.106   8.133  67.563  1.00  0.00    -0.137 C  
HETATM    7  O   UNL     1      -8.856   6.189  70.577  1.00  0.00    -0.143 OA 
HETATM    8  N   UNL     1      -9.103   7.785  68.926  1.00  0.00    -0.141 N  
HETATM    9  C   UNL     1      -9.028   6.461  69.385  1.00  0.00    -0.131 C  
ENDROOT
BRANCH   6  10
HETATM   10  N   UNL     1      -9.090   9.460  67.041  1.00  0.00    -0.133 NA 
HETATM   11  N   UNL     1      -9.144   9.072  64.010  1.00  0.00    -0.386 NA 
HETATM   12  C   UNL     1      -8.007  10.441  67.197  1.00  0.00    -0.115 C  
HETATM   13  C   UNL     1      -7.324  10.719  65.862  1.00  0.00    -0.094 C  
HETATM   14  H2  UNL     1      -8.352   8.614  64.459  1.00  0.00     0.000 HD 
HETATM   15  H1  UNL     1      -9.946   8.446  63.920  1.00  0.00     0.000 HD 
HETATM   16  C   UNL     1      -8.332  11.245  64.847  1.00  0.00     0.417 C  
HETATM   17  C   UNL     1     -10.134   9.998  66.117  1.00  0.00    -0.247 C  
HETATM   18  C   UNL     1      -9.539  10.303  64.712  1.00  0.00    -0.307 C  
ENDBRANCH   6  10
BRANCH   8  19
HETATM   19  C   UNL     1      -9.475   8.727  69.984  1.00  0.00    -0.169 C  
BRANCH  19  20
HETATM   20  C   UNL     1     -10.943   8.802  70.389  1.00  0.00    -0.262 A  
HETATM   21  C   UNL     1     -12.887  10.200  70.854  1.00  0.00    -0.442 A  
HETATM   22  C   UNL     1     -11.068  11.135  69.522  1.00  0.00    -0.252 C  
HETATM   23  N   UNL     1     -10.595  12.019  68.942  1.00  0.00    -0.196 NA 
HETATM   24  C   UNL     1     -11.637  10.025  70.242  1.00  0.00    -0.354 A  
HETATM   25  C   UNL     1     -13.459   9.169  71.598  1.00  0.00    -0.452 A  
HETATM   26  C   UNL     1     -12.823   7.933  71.674  1.00  0.00    -0.357 A  
HETATM   27  C   UNL     1     -11.591   7.738  71.046  1.00  0.00    -0.301 A  
ENDBRANCH  19  20
ENDBRANCH   8  19
TORSDOF 3
ENDMDL
MODEL      181
REMARK 921   NORMALIZED FREE ENERGY PREDICTED BY IDOCK:   -4.42 KCAL/MOL
REMARK 922        TOTAL FREE ENERGY PREDICTED BY IDOCK:   -5.51 KCAL/MOL
REMARK 923 INTER-LIGAND FREE ENERGY PREDICTED BY IDOCK:   -4.96 KCAL/MOL
REMARK 924 INTRA-LIGAND FREE ENERGY PREDICTED BY IDOCK:   -0.55 KCAL/MOL
REMARK 927      BINDING AFFINITY PREDICTED BY RF-SCORE:    0.00 PKD
ROOT
HETATM    1  C   UNL     1     -11.173   8.622  70.086  1.00  0.00    -0.146 C  
HETATM    2  N   UNL     1     -10.173   9.619  69.752  1.00  0.00    -0.220 N  
HETATM    3  C   UNL     1      -8.848   9.305  69.878  1.00  0.00    -0.185 C  
HETATM    4  C   UNL     1      -7.901  10.318  69.401  1.00  0.00    -0.157 C  
HETATM    5  O   UNL     1      -8.413   8.255  70.344  1.00  0.00    -0.122 OA 
HETATM    6  C   UNL     1      -8.274  11.440  68.755  1.00  0.00    -0.107 C  
HETATM    7  O   UNL     1     -11.816  11.127  69.288  1.00  0.00    -0.301 OA 
HETATM    8  N   UNL     1      -9.661  11.655  68.649  1.00  0.00    -0.170 N  
HETATM    9  C   UNL     1     -10.619  10.825  69.252  1.00  0.00    -0.229 C  
ENDROOT
BRANCH   6  10
HETATM   10  N   UNL     1      -7.256  12.296  68.242  1.00  0.00    -0.093 NA 
HETATM   11  N   UNL     1      -6.702  14.251  70.525  1.00  0.00    -0.399 NA 
HETATM   12  C   UNL     1      -7.383  13.205  67.095  1.00  0.00     0.067 C  
HETATM   13  C   UNL     1      -7.326  14.662  67.541  1.00  0.00    -0.220 C  
HETATM   14  H2  UNL     1      -7.674  14.256  70.219  1.00  0.00     0.000 HD 
HETATM   15  H1  UNL     1      -6.546  13.597  71.292  1.00  0.00     0.000 HD 
HETATM   16  C   UNL     1      -6.012  14.947  68.261  1.00  0.00    -0.125 C  
HETATM   17  C   UNL     1      -5.933  12.499  68.907  1.00  0.00    -0.070 C  
HETATM   18  C   UNL     1      -5.778  13.961  69.416  1.00  0.00    -0.089 C  
ENDBRANCH   6  10
BRANCH   8  19
HETATM   19  C   UNL     1     -10.247  12.572  67.669  1.00  0.00    -0.219 C  
BRANCH  19  20
HETATM   20  C   UNL     1     -10.600  13.981  68.133  1.00  0.00    -0.252 A  
HETATM   21  C   UNL     1     -10.972  16.317  67.538  1.00  0.00    -0.207 A  
HETATM   22  C   UNL     1     -11.133  14.627  65.786  1.00  0.00    -0.331 C  
HETATM   23  N   UNL     1     -11.302  14.337  64.676  1.00  0.00    -0.378 NA 
HETATM   24  C   UNL     1     -10.917  14.966  67.169  1.00  0.00    -0.323 A  
HETATM   25  C   UNL     1     -10.728  16.699  68.856  1.00  0.00    -0.337 A  
HETATM   26  C   UNL     1     -10.501  15.729  69.829  1.00  0.00    -0.318 A  
HETATM   27  C   UNL     1     -10.471  14.377  69.478  1.00  0.00    -0.028 A  
ENDBRANCH  19  20
ENDBRANCH   8  19
TORSDOF 3
ENDMDL
MODEL      182
REMARK 921   NORMALIZED FREE ENERGY PREDICTED BY IDOCK:   -4.41 KCAL/MOL
REMARK 922        TOTAL FREE ENERGY PREDICTED BY IDOCK:   -5.51 KCAL/MOL
REMARK 923 INTER-LIGAND FREE ENERGY PREDICTED BY IDOCK:   -4.57 KCAL/MOL
REMARK 924 INTRA-LIGAND FREE ENERGY PREDICTED BY IDOCK:   -0.93 KCAL/MOL
REMARK 927      BINDING AFFINITY PREDICTED BY RF-SCORE:    0.00 PKD
ROOT
HETATM    1  C   UNL     1     -12.109   9.967  71.330  1.00  0.00    -0.407 C  
HETATM    2  N   UNL     1     -11.534   8.644  71.177  1.00  0.00    -0.271 N  
HETATM    3  C   UNL     1     -12.341   7.546  71.298  1.00  0.00    -0.327 C  
HETATM    4  C   UNL     1     -11.714   6.255  71.003  1.00  0.00    -0.283 C  
HETATM    5  O   UNL     1     -13.525   7.574  71.621  1.00  0.00    -0.362 OA 
HETATM    6  C   UNL     1     -10.464   6.128  70.515  1.00  0.00    -0.234 C  
HETATM    7  O   UNL     1      -9.472   9.564  70.884  1.00  0.00    -0.239 OA 
HETATM    8  N   UNL     1      -9.728   7.321  70.397  1.00  0.00    -0.173 N  
HETATM    9  C   UNL     1     -10.198   8.566  70.842  1.00  0.00    -0.200 C  
ENDROOT
BRANCH   6  10
HETATM   10  N   UNL     1     -10.003   4.825  70.164  1.00  0.00    -0.240 NA 
HETATM   11  N   UNL     1      -7.090   4.789  71.088  1.00  0.00    -0.050 NA 
HETATM   12  C   UNL     1      -9.891   4.281  68.804  1.00  0.00    -0.050 C  
HETATM   13  C   UNL     1      -8.431   4.077  68.414  1.00  0.00    -0.106 C  
HETATM   14  H2  UNL     1      -7.291   5.534  70.422  1.00  0.00     0.000 HD 
HETATM   15  H1  UNL     1      -7.201   5.100  72.054  1.00  0.00     0.000 HD 
HETATM   16  C   UNL     1      -7.748   3.126  69.390  1.00  0.00    -0.048 C  
HETATM   17  C   UNL     1      -9.418   3.863  71.146  1.00  0.00    -0.163 C  
HETATM   18  C   UNL     1      -7.915   3.595  70.844  1.00  0.00    -0.057 C  
ENDBRANCH   6  10
BRANCH   8  19
HETATM   19  C   UNL     1      -8.545   7.440  69.541  1.00  0.00    -0.134 C  
BRANCH  19  20
HETATM   20  C   UNL     1      -8.760   7.780  68.070  1.00  0.00    -0.125 A  
HETATM   21  C   UNL     1      -7.766   8.224  65.888  1.00  0.00    -0.087 A  
HETATM   22  C   UNL     1      -6.444   7.023  67.550  1.00  0.00    -0.054 C  
HETATM   23  N   UNL     1      -5.457   6.507  67.874  1.00  0.00    -0.008 NA 
HETATM   24  C   UNL     1      -7.677   7.662  67.169  1.00  0.00    -0.112 A  
HETATM   25  C   UNL     1      -8.923   8.891  65.489  1.00  0.00    -0.246 A  
HETATM   26  C   UNL     1     -10.026   8.936  66.338  1.00  0.00    -0.354 A  
HETATM   27  C   UNL     1      -9.958   8.355  67.606  1.00  0.00    -0.246 A  
ENDBRANCH  19  20
ENDBRANCH   8  19
TORSDOF 3
ENDMDL
MODEL      183
REMARK 921   NORMALIZED FREE ENERGY PREDICTED BY IDOCK:   -4.39 KCAL/MOL
REMARK 922        TOTAL FREE ENERGY PREDICTED BY IDOCK:   -5.47 KCAL/MOL
REMARK 923 INTER-LIGAND FREE ENERGY PREDICTED BY IDOCK:   -4.75 KCAL/MOL
REMARK 924 INTRA-LIGAND FREE ENERGY PREDICTED BY IDOCK:   -0.73 KCAL/MOL
REMARK 927      BINDING AFFINITY PREDICTED BY RF-SCORE:    0.00 PKD
ROOT
HETATM    1  C   UNL     1      -9.201   4.625  68.380  1.00  0.00    -0.128 C  
HETATM    2  N   UNL     1      -8.823   5.776  67.581  1.00  0.00    -0.107 N  
HETATM    3  C   UNL     1      -9.127   5.793  66.248  1.00  0.00    -0.147 C  
HETATM    4  C   UNL     1      -8.827   7.041  65.538  1.00  0.00     0.022 C  
HETATM    5  O   UNL     1      -9.627   4.860  65.626  1.00  0.00    -0.163 OA 
HETATM    6  C   UNL     1      -8.403   8.163  66.152  1.00  0.00    -0.126 C  
HETATM    7  O   UNL     1      -7.842   6.730  69.402  1.00  0.00    -0.109 OA 
HETATM    8  N   UNL     1      -8.151   8.049  67.532  1.00  0.00    -0.122 N  
HETATM    9  C   UNL     1      -8.230   6.837  68.234  1.00  0.00    -0.115 C  
ENDROOT
BRANCH   6  10
HETATM   10  N   UNL     1      -8.251   9.346  65.371  1.00  0.00    -0.120 NA 
HETATM   11  N   UNL     1      -9.146   8.513  62.570  1.00  0.00    -0.431 NA 
HETATM   12  C   UNL     1      -6.989  10.042  65.087  1.00  0.00    -0.134 C  
HETATM   13  C   UNL     1      -6.622   9.930  63.611  1.00  0.00    -0.125 C  
HETATM   14  H2  UNL     1      -8.375   7.950  62.930  1.00  0.00     0.000 HD 
HETATM   15  H1  UNL     1     -10.053   8.099  62.784  1.00  0.00     0.000 HD 
HETATM   16  C   UNL     1      -7.726  10.523  62.742  1.00  0.00    -0.118 C  
HETATM   17  C   UNL     1      -9.364   9.973  64.595  1.00  0.00    -0.279 C  
HETATM   18  C   UNL     1      -9.092   9.898  63.064  1.00  0.00    -0.269 C  
ENDBRANCH   6  10
BRANCH   8  19
HETATM   19  C   UNL     1      -8.076   9.211  68.421  1.00  0.00    -0.104 C  
BRANCH  19  20
HETATM   20  C   UNL     1      -9.385   9.858  68.860  1.00  0.00    -0.170 A  
HETATM   21  C   UNL     1     -11.120  10.055  70.563  1.00  0.00    -0.400 A  
HETATM   22  C   UNL     1      -8.940   9.174  71.215  1.00  0.00    -0.136 C  
HETATM   23  N   UNL     1      -8.229   8.733  72.017  1.00  0.00    -0.366 NA 
HETATM   24  C   UNL     1      -9.808   9.717  70.202  1.00  0.00    -0.310 A  
HETATM   25  C   UNL     1     -12.011  10.544  69.609  1.00  0.00    -0.279 A  
HETATM   26  C   UNL     1     -11.577  10.769  68.305  1.00  0.00    -0.297 A  
HETATM   27  C   UNL     1     -10.264  10.461  67.940  1.00  0.00    -0.211 A  
ENDBRANCH  19  20
ENDBRANCH   8  19
TORSDOF 3
ENDMDL
MODEL      184
REMARK 921   NORMALIZED FREE ENERGY PREDICTED BY IDOCK:   -4.39 KCAL/MOL
REMARK 922        TOTAL FREE ENERGY PREDICTED BY IDOCK:   -5.47 KCAL/MOL
REMARK 923 INTER-LIGAND FREE ENERGY PREDICTED BY IDOCK:   -6.12 KCAL/MOL
REMARK 924 INTRA-LIGAND FREE ENERGY PREDICTED BY IDOCK:    0.65 KCAL/MOL
REMARK 927      BINDING AFFINITY PREDICTED BY RF-SCORE:    0.00 PKD
ROOT
HETATM    1  C   UNL     1     -12.255  13.804  70.267  1.00  0.00    -0.359 C  
HETATM    2  N   UNL     1     -11.812  12.430  70.418  1.00  0.00    -0.250 N  
HETATM    3  C   UNL     1     -12.515  11.587  71.235  1.00  0.00    -0.293 C  
HETATM    4  C   UNL     1     -12.082  10.187  71.235  1.00  0.00    -0.489 C  
HETATM    5  O   UNL     1     -13.463  11.918  71.942  1.00  0.00    -0.379 OA 
HETATM    6  C   UNL     1     -11.143   9.697  70.402  1.00  0.00    -0.290 C  
HETATM    7  O   UNL     1     -10.037  12.841  69.053  1.00  0.00    -0.007 OA 
HETATM    8  N   UNL     1     -10.502  10.641  69.578  1.00  0.00    -0.223 N  
HETATM    9  C   UNL     1     -10.731  12.023  69.664  1.00  0.00     0.331 C  
ENDROOT
BRANCH   6  10
HETATM   10  N   UNL     1     -10.885   8.295  70.421  1.00  0.00    -0.234 NA 
HETATM   11  N   UNL     1     -11.228   7.511  73.355  1.00  0.00    -0.610 NA 
HETATM   12  C   UNL     1      -9.613   7.642  70.084  1.00  0.00    -0.168 C  
HETATM   13  C   UNL     1      -8.980   7.008  71.318  1.00  0.00    -0.137 C  
HETATM   14  H2  UNL     1     -10.520   8.231  73.211  1.00  0.00     0.000 HD 
HETATM   15  H1  UNL     1     -12.147   7.912  73.545  1.00  0.00     0.000 HD 
HETATM   16  C   UNL     1      -9.923   5.979  71.930  1.00  0.00    -0.195 C  
HETATM   17  C   UNL     1     -11.855   7.283  70.939  1.00  0.00    -0.316 C  
HETATM   18  C   UNL     1     -11.307   6.582  72.216  1.00  0.00    -0.282 C  
ENDBRANCH   6  10
BRANCH   8  19
HETATM   19  C   UNL     1      -9.771  10.266  68.366  1.00  0.00    -0.156 C  
BRANCH  19  20
HETATM   20  C   UNL     1     -10.418  10.572  67.019  1.00  0.00    -0.304 A  
HETATM   21  C   UNL     1     -10.236  10.542  64.587  1.00  0.00    -0.364 A  
HETATM   22  C   UNL     1      -8.780   9.076  65.885  1.00  0.00    -0.166 C  
HETATM   23  N   UNL     1      -7.931   8.289  65.939  1.00  0.00    -0.092 NA 
HETATM   24  C   UNL     1      -9.833  10.057  65.839  1.00  0.00    -0.330 A  
HETATM   25  C   UNL     1     -11.222  11.523  64.494  1.00  0.00    -0.301 A  
HETATM   26  C   UNL     1     -11.865  11.972  65.645  1.00  0.00    -0.242 A  
HETATM   27  C   UNL     1     -11.491  11.476  66.896  1.00  0.00    -0.261 A  
ENDBRANCH  19  20
ENDBRANCH   8  19
TORSDOF 3
ENDMDL
MODEL      185
REMARK 921   NORMALIZED FREE ENERGY PREDICTED BY IDOCK:   -4.38 KCAL/MOL
REMARK 922        TOTAL FREE ENERGY PREDICTED BY IDOCK:   -5.47 KCAL/MOL
REMARK 923 INTER-LIGAND FREE ENERGY PREDICTED BY IDOCK:   -5.17 KCAL/MOL
REMARK 924 INTRA-LIGAND FREE ENERGY PREDICTED BY IDOCK:   -0.30 KCAL/MOL
REMARK 927      BINDING AFFINITY PREDICTED BY RF-SCORE:    0.00 PKD
ROOT
HETATM    1  C   UNL     1     -12.673   9.582  71.871  1.00  0.00    -0.411 C  
HETATM    2  N   UNL     1     -11.985   8.647  71.001  1.00  0.00    -0.276 N  
HETATM    3  C   UNL     1     -12.160   7.303  71.193  1.00  0.00    -0.340 C  
HETATM    4  C   UNL     1     -11.536   6.427  70.197  1.00  0.00    -0.449 C  
HETATM    5  O   UNL     1     -12.795   6.800  72.116  1.00  0.00    -0.209 OA 
HETATM    6  C   UNL     1     -10.934   6.880  69.080  1.00  0.00    -0.199 C  
HETATM    7  O   UNL     1     -10.984  10.378  69.912  1.00  0.00    -0.266 OA 
HETATM    8  N   UNL     1     -10.834   8.279  68.961  1.00  0.00    -0.067 N  
HETATM    9  C   UNL     1     -11.236   9.170  69.968  1.00  0.00    -0.150 C  
ENDROOT
BRANCH   6  10
HETATM   10  N   UNL     1     -10.461   5.927  68.131  1.00  0.00    -0.212 NA 
HETATM   11  N   UNL     1      -7.485   5.649  68.772  1.00  0.00    -0.082 NA 
HETATM   12  C   UNL     1     -10.438   6.092  66.672  1.00  0.00    -0.228 C  
HETATM   13  C   UNL     1      -9.007   6.189  66.154  1.00  0.00    -0.164 C  
HETATM   14  H2  UNL     1      -7.760   6.605  68.548  1.00  0.00     0.000 HD 
HETATM   15  H1  UNL     1      -7.531   5.463  69.774  1.00  0.00     0.000 HD 
HETATM   16  C   UNL     1      -8.220   4.937  66.528  1.00  0.00    -0.107 C  
HETATM   17  C   UNL     1      -9.771   4.656  68.510  1.00  0.00    -0.142 C  
HETATM   18  C   UNL     1      -8.289   4.659  68.037  1.00  0.00    -0.098 C  
ENDBRANCH   6  10
BRANCH   8  19
HETATM   19  C   UNL     1     -10.587   8.949  67.682  1.00  0.00    -0.224 C  
BRANCH  19  20
HETATM   20  C   UNL     1      -9.351   9.834  67.568  1.00  0.00    -0.152 A  
HETATM   21  C   UNL     1      -8.271  11.745  66.503  1.00  0.00    -0.066 A  
HETATM   22  C   UNL     1     -10.706  11.591  66.435  1.00  0.00    -0.273 C  
HETATM   23  N   UNL     1     -11.733  12.008  66.098  1.00  0.00    -0.524 NA 
HETATM   24  C   UNL     1      -9.439  11.054  66.860  1.00  0.00    -0.197 A  
HETATM   25  C   UNL     1      -7.019  11.242  66.855  1.00  0.00    -0.137 A  
HETATM   26  C   UNL     1      -6.927  10.087  67.627  1.00  0.00    -0.085 A  
HETATM   27  C   UNL     1      -8.084   9.406  68.011  1.00  0.00    -0.106 A  
ENDBRANCH  19  20
ENDBRANCH   8  19
TORSDOF 3
ENDMDL
MODEL      186
REMARK 921   NORMALIZED FREE ENERGY PREDICTED BY IDOCK:   -4.38 KCAL/MOL
REMARK 922        TOTAL FREE ENERGY PREDICTED BY IDOCK:   -5.47 KCAL/MOL
REMARK 923 INTER-LIGAND FREE ENERGY PREDICTED BY IDOCK:   -4.96 KCAL/MOL
REMARK 924 INTRA-LIGAND FREE ENERGY PREDICTED BY IDOCK:   -0.51 KCAL/MOL
REMARK 927      BINDING AFFINITY PREDICTED BY RF-SCORE:    0.00 PKD
ROOT
HETATM    1  C   UNL     1      -9.656  12.721  67.141  1.00  0.00    -0.219 C  
HETATM    2  N   UNL     1      -9.711  11.694  68.165  1.00  0.00    -0.183 N  
HETATM    3  C   UNL     1     -10.924  11.177  68.529  1.00  0.00    -0.220 C  
HETATM    4  C   UNL     1     -10.886  10.057  69.474  1.00  0.00    -0.283 C  
HETATM    5  O   UNL     1     -12.011  11.576  68.120  1.00  0.00    -0.571 OA 
HETATM    6  C   UNL     1      -9.746   9.463  69.878  1.00  0.00    -0.212 C  
HETATM    7  O   UNL     1      -7.453  11.823  68.430  1.00  0.00    -0.091 OA 
HETATM    8  N   UNL     1      -8.552  10.051  69.421  1.00  0.00    -0.162 N  
HETATM    9  C   UNL     1      -8.513  11.237  68.674  1.00  0.00    -0.143 C  
ENDROOT
BRANCH   6  10
HETATM   10  N   UNL     1      -9.842   8.312  70.714  1.00  0.00    -0.177 NA 
HETATM   11  N   UNL     1     -12.848   7.822  70.970  1.00  0.00    -0.540 NA 
HETATM   12  C   UNL     1      -9.404   8.216  72.113  1.00  0.00    -0.206 C  
HETATM   13  C   UNL     1     -10.596   8.062  73.051  1.00  0.00    -0.332 C  
HETATM   14  H2  UNL     1     -12.563   8.749  71.287  1.00  0.00     0.000 HD 
HETATM   15  H1  UNL     1     -13.117   7.822  69.986  1.00  0.00     0.000 HD 
HETATM   16  C   UNL     1     -11.398   6.816  72.692  1.00  0.00    -0.259 C  
HETATM   17  C   UNL     1     -10.553   7.058  70.317  1.00  0.00    -0.226 C  
HETATM   18  C   UNL     1     -11.803   6.814  71.210  1.00  0.00    -0.348 C  
ENDBRANCH   6  10
BRANCH   8  19
HETATM   19  C   UNL     1      -7.271   9.340  69.418  1.00  0.00    -0.068 C  
BRANCH  19  20
HETATM   20  C   UNL     1      -7.272   7.871  69.009  1.00  0.00    -0.075 A  
HETATM   21  C   UNL     1      -8.018   6.169  67.429  1.00  0.00    -0.105 A  
HETATM   22  C   UNL     1      -8.022   8.503  66.718  1.00  0.00    -0.094 C  
HETATM   23  N   UNL     1      -8.239   9.313  65.918  1.00  0.00    -0.113 NA 
HETATM   24  C   UNL     1      -7.747   7.512  67.726  1.00  0.00    -0.115 A  
HETATM   25  C   UNL     1      -7.809   5.178  68.388  1.00  0.00    -0.087 A  
HETATM   26  C   UNL     1      -7.259   5.512  69.622  1.00  0.00    -0.065 A  
HETATM   27  C   UNL     1      -6.960   6.843  69.919  1.00  0.00    -0.062 A  
ENDBRANCH  19  20
ENDBRANCH   8  19
TORSDOF 3
ENDMDL
MODEL      187
REMARK 921   NORMALIZED FREE ENERGY PREDICTED BY IDOCK:   -4.38 KCAL/MOL
REMARK 922        TOTAL FREE ENERGY PREDICTED BY IDOCK:   -5.47 KCAL/MOL
REMARK 923 INTER-LIGAND FREE ENERGY PREDICTED BY IDOCK:   -5.03 KCAL/MOL
REMARK 924 INTRA-LIGAND FREE ENERGY PREDICTED BY IDOCK:   -0.44 KCAL/MOL
REMARK 927      BINDING AFFINITY PREDICTED BY RF-SCORE:    0.00 PKD
ROOT
HETATM    1  C   UNL     1     -11.049   7.104  71.148  1.00  0.00    -0.254 C  
HETATM    2  N   UNL     1     -10.268   7.670  70.064  1.00  0.00    -0.208 N  
HETATM    3  C   UNL     1     -10.261   7.044  68.847  1.00  0.00    -0.180 C  
HETATM    4  C   UNL     1      -9.554   7.744  67.771  1.00  0.00    -0.172 C  
HETATM    5  O   UNL     1     -10.802   5.969  68.605  1.00  0.00    -0.279 OA 
HETATM    6  C   UNL     1      -9.044   8.985  67.899  1.00  0.00    -0.135 C  
HETATM    7  O   UNL     1      -9.528   9.321  71.446  1.00  0.00    -0.245 OA 
HETATM    8  N   UNL     1      -9.130   9.554  69.183  1.00  0.00    -0.145 N  
HETATM    9  C   UNL     1      -9.619   8.864  70.303  1.00  0.00    -0.186 C  
ENDROOT
BRANCH   6  10
HETATM   10  N   UNL     1      -8.474   9.605  66.749  1.00  0.00    -0.126 NA 
HETATM   11  N   UNL     1      -8.511   7.412  64.621  1.00  0.00    -0.361 NA 
HETATM   12  C   UNL     1      -7.102  10.116  66.627  1.00  0.00    -0.101 C  
HETATM   13  C   UNL     1      -6.292   9.280  65.642  1.00  0.00    -0.067 C  
HETATM   14  H2  UNL     1      -7.991   7.150  65.458  1.00  0.00     0.000 HD 
HETATM   15  H1  UNL     1      -9.488   7.123  64.673  1.00  0.00     0.000 HD 
HETATM   16  C   UNL     1      -6.952   9.289  64.268  1.00  0.00    -0.097 C  
HETATM   17  C   UNL     1      -9.167   9.691  65.427  1.00  0.00    -0.238 C  
HETATM   18  C   UNL     1      -8.423   8.855  64.347  1.00  0.00    -0.153 C  
ENDBRANCH   6  10
BRANCH   8  19
HETATM   19  C   UNL     1      -9.004  10.994  69.421  1.00  0.00     0.222 C  
BRANCH  19  20
HETATM   20  C   UNL     1      -9.811  11.936  68.533  1.00  0.00    -0.187 A  
HETATM   21  C   UNL     1     -11.987  12.556  67.622  1.00  0.00    -0.287 A  
HETATM   22  C   UNL     1     -11.914  11.193  69.645  1.00  0.00    -0.359 C  
HETATM   23  N   UNL     1     -12.454  10.606  70.485  1.00  0.00    -0.338 NA 
HETATM   24  C   UNL     1     -11.223  11.914  68.606  1.00  0.00    -0.311 A  
HETATM   25  C   UNL     1     -11.363  13.230  66.573  1.00  0.00    -0.353 A  
HETATM   26  C   UNL     1      -9.975  13.331  66.541  1.00  0.00    -0.280 A  
HETATM   27  C   UNL     1      -9.204  12.719  67.532  1.00  0.00    -0.191 A  
ENDBRANCH  19  20
ENDBRANCH   8  19
TORSDOF 3
ENDMDL
MODEL      188
REMARK 921   NORMALIZED FREE ENERGY PREDICTED BY IDOCK:   -4.36 KCAL/MOL
REMARK 922        TOTAL FREE ENERGY PREDICTED BY IDOCK:   -5.45 KCAL/MOL
REMARK 923 INTER-LIGAND FREE ENERGY PREDICTED BY IDOCK:   -4.94 KCAL/MOL
REMARK 924 INTRA-LIGAND FREE ENERGY PREDICTED BY IDOCK:   -0.50 KCAL/MOL
REMARK 927      BINDING AFFINITY PREDICTED BY RF-SCORE:    0.00 PKD
ROOT
HETATM    1  C   UNL     1     -13.376  10.535  70.764  1.00  0.00    -0.011 C  
HETATM    2  N   UNL     1     -12.245   9.744  71.211  1.00  0.00    -0.347 N  
HETATM    3  C   UNL     1     -12.389   8.927  72.298  1.00  0.00    -0.360 C  
HETATM    4  C   UNL     1     -11.244   8.066  72.609  1.00  0.00    -0.462 C  
HETATM    5  O   UNL     1     -13.391   8.865  73.006  1.00  0.00    -0.308 OA 
HETATM    6  C   UNL     1     -10.155   7.962  71.822  1.00  0.00    -0.185 C  
HETATM    7  O   UNL     1     -10.947  10.658  69.578  1.00  0.00    -0.236 OA 
HETATM    8  N   UNL     1     -10.119   8.823  70.709  1.00  0.00    -0.197 N  
HETATM    9  C   UNL     1     -11.089   9.806  70.461  1.00  0.00    -0.321 C  
ENDROOT
BRANCH   6  10
HETATM   10  N   UNL     1      -9.155   7.009  72.172  1.00  0.00    -0.131 NA 
HETATM   11  N   UNL     1     -10.427   5.383  74.425  1.00  0.00    -0.263 NA 
HETATM   12  C   UNL     1      -7.829   7.307  72.731  1.00  0.00    -0.094 C  
HETATM   13  C   UNL     1      -7.721   6.822  74.172  1.00  0.00    -0.112 C  
HETATM   14  H2  UNL     1     -10.376   6.381  74.629  1.00  0.00     0.000 HD 
HETATM   15  H1  UNL     1     -11.313   5.127  73.988  1.00  0.00     0.000 HD 
HETATM   16  C   UNL     1      -7.968   5.319  74.248  1.00  0.00    -0.099 C  
HETATM   17  C   UNL     1      -9.378   5.531  72.154  1.00  0.00    -0.143 C  
HETATM   18  C   UNL     1      -9.302   4.934  73.590  1.00  0.00    -0.125 C  
ENDBRANCH   6  10
BRANCH   8  19
HETATM   19  C   UNL     1      -9.248   8.588  69.555  1.00  0.00    -0.150 C  
BRANCH  19  20
HETATM   20  C   UNL     1      -9.611   7.449  68.608  1.00  0.00    -0.146 A  
HETATM   21  C   UNL     1     -10.653   6.760  66.513  1.00  0.00    -0.060 A  
HETATM   22  C   UNL     1      -9.964   9.088  66.764  1.00  0.00    -0.263 C  
HETATM   23  N   UNL     1      -9.886  10.167  66.349  1.00  0.00    -0.210 NA 
HETATM   24  C   UNL     1     -10.055   7.754  67.301  1.00  0.00    -0.307 A  
HETATM   25  C   UNL     1     -10.803   5.465  67.005  1.00  0.00    -0.118 A  
HETATM   26  C   UNL     1     -10.290   5.135  68.257  1.00  0.00    -0.140 A  
HETATM   27  C   UNL     1      -9.668   6.110  69.039  1.00  0.00    -0.157 A  
ENDBRANCH  19  20
ENDBRANCH   8  19
TORSDOF 3
ENDMDL
MODEL      189
REMARK 921   NORMALIZED FREE ENERGY PREDICTED BY IDOCK:   -4.35 KCAL/MOL
REMARK 922        TOTAL FREE ENERGY PREDICTED BY IDOCK:   -5.43 KCAL/MOL
REMARK 923 INTER-LIGAND FREE ENERGY PREDICTED BY IDOCK:   -5.98 KCAL/MOL
REMARK 924 INTRA-LIGAND FREE ENERGY PREDICTED BY IDOCK:    0.55 KCAL/MOL
REMARK 927      BINDING AFFINITY PREDICTED BY RF-SCORE:    0.00 PKD
ROOT
HETATM    1  C   UNL     1      -9.984  11.056  64.236  1.00  0.00    -0.317 C  
HETATM    2  N   UNL     1      -9.989  12.194  65.135  1.00  0.00    -0.252 N  
HETATM    3  C   UNL     1     -10.724  13.301  64.808  1.00  0.00    -0.378 C  
HETATM    4  C   UNL     1     -10.781  14.355  65.825  1.00  0.00    -0.312 C  
HETATM    5  O   UNL     1     -11.327  13.459  63.751  1.00  0.00    -0.322 OA 
HETATM    6  C   UNL     1     -10.266  14.224  67.064  1.00  0.00    -0.260 C  
HETATM    7  O   UNL     1      -8.533  11.121  66.519  1.00  0.00    -0.155 OA 
HETATM    8  N   UNL     1      -9.556  13.034  67.310  1.00  0.00    -0.218 N  
HETATM    9  C   UNL     1      -9.298  12.071  66.323  1.00  0.00    -0.223 C  
ENDROOT
BRANCH   6  10
HETATM   10  N   UNL     1     -10.480  15.277  68.001  1.00  0.00    -0.244 NA 
HETATM   11  N   UNL     1      -9.941  17.824  66.401  1.00  0.00    -0.334 NA 
HETATM   12  C   UNL     1      -9.703  15.522  69.224  1.00  0.00    -0.272 C  
HETATM   13  C   UNL     1      -8.895  16.810  69.110  1.00  0.00    -0.105 C  
HETATM   14  H2  UNL     1      -9.147  17.184  66.417  1.00  0.00     0.000 HD 
HETATM   15  H1  UNL     1     -10.544  17.664  65.594  1.00  0.00     0.000 HD 
HETATM   16  C   UNL     1      -9.818  17.997  68.858  1.00  0.00    -0.321 C  
HETATM   17  C   UNL     1     -11.456  16.389  67.787  1.00  0.00     0.068 C  
HETATM   18  C   UNL     1     -10.727  17.756  67.643  1.00  0.00    -0.322 C  
ENDBRANCH   6  10
BRANCH   8  19
HETATM   19  C   UNL     1      -9.280  12.543  68.662  1.00  0.00     0.030 C  
BRANCH  19  20
HETATM   20  C   UNL     1     -10.048  11.317  69.146  1.00  0.00    -0.093 A  
HETATM   21  C   UNL     1     -11.800  10.413  70.582  1.00  0.00    -0.445 A  
HETATM   22  C   UNL     1     -11.855  12.789  70.028  1.00  0.00    -0.281 C  
HETATM   23  N   UNL     1     -12.341  13.837  70.125  1.00  0.00    -0.338 NA 
HETATM   24  C   UNL     1     -11.233  11.497  69.896  1.00  0.00    -0.183 A  
HETATM   25  C   UNL     1     -11.210   9.152  70.520  1.00  0.00    -0.309 A  
HETATM   26  C   UNL     1     -10.093   8.947  69.714  1.00  0.00    -0.205 A  
HETATM   27  C   UNL     1      -9.536  10.013  69.004  1.00  0.00    -0.190 A  
ENDBRANCH  19  20
ENDBRANCH   8  19
TORSDOF 3
ENDMDL
MODEL      190
REMARK 921   NORMALIZED FREE ENERGY PREDICTED BY IDOCK:   -4.35 KCAL/MOL
REMARK 922        TOTAL FREE ENERGY PREDICTED BY IDOCK:   -5.43 KCAL/MOL
REMARK 923 INTER-LIGAND FREE ENERGY PREDICTED BY IDOCK:   -5.70 KCAL/MOL
REMARK 924 INTRA-LIGAND FREE ENERGY PREDICTED BY IDOCK:    0.28 KCAL/MOL
REMARK 927      BINDING AFFINITY PREDICTED BY RF-SCORE:    0.00 PKD
ROOT
HETATM    1  C   UNL     1      -5.448  11.772  67.907  1.00  0.00    -0.051 C  
HETATM    2  N   UNL     1      -6.763  11.228  68.191  1.00  0.00    -0.058 N  
HETATM    3  C   UNL     1      -7.081  10.883  69.476  1.00  0.00    -0.123 C  
HETATM    4  C   UNL     1      -8.467  10.463  69.702  1.00  0.00    -0.068 C  
HETATM    5  O   UNL     1      -6.303  10.910  70.426  1.00  0.00    -0.197 OA 
HETATM    6  C   UNL     1      -9.428  10.524  68.759  1.00  0.00    -0.180 C  
HETATM    7  O   UNL     1      -7.295  11.333  65.979  1.00  0.00    -0.025 OA 
HETATM    8  N   UNL     1      -9.004  10.922  67.478  1.00  0.00    -0.136 N  
HETATM    9  C   UNL     1      -7.660  11.152  67.145  1.00  0.00    -0.125 C  
ENDROOT
BRANCH   6  10
HETATM   10  N   UNL     1     -10.763  10.191  69.130  1.00  0.00    -0.214 NA 
HETATM   11  N   UNL     1     -11.763  12.663  70.623  1.00  0.00    -0.403 NA 
HETATM   12  C   UNL     1     -11.169   9.110  70.038  1.00  0.00    -0.150 C  
HETATM   13  C   UNL     1     -11.756   9.670  71.329  1.00  0.00    -0.458 C  
HETATM   14  H2  UNL     1     -10.926  12.255  71.038  1.00  0.00     0.000 HD 
HETATM   15  H1  UNL     1     -11.537  13.391  69.945  1.00  0.00     0.000 HD 
HETATM   16  C   UNL     1     -12.965  10.547  71.027  1.00  0.00    -0.475 C  
HETATM   17  C   UNL     1     -11.955  11.010  68.750  1.00  0.00    -0.225 C  
HETATM   18  C   UNL     1     -12.624  11.643  70.005  1.00  0.00     0.019 C  
ENDBRANCH   6  10
BRANCH   8  19
HETATM   19  C   UNL     1      -9.929  11.423  66.458  1.00  0.00    -0.211 C  
BRANCH  19  20
HETATM   20  C   UNL     1      -9.989  12.929  66.227  1.00  0.00    -0.271 A  
HETATM   21  C   UNL     1     -10.859  14.781  64.900  1.00  0.00    -0.433 A  
HETATM   22  C   UNL     1     -12.027  12.639  64.823  1.00  0.00    -0.402 C  
HETATM   23  N   UNL     1     -12.879  11.969  64.414  1.00  0.00    -0.555 NA 
HETATM   24  C   UNL     1     -10.958  13.454  65.341  1.00  0.00    -0.297 A  
HETATM   25  C   UNL     1      -9.817  15.595  65.339  1.00  0.00    -0.253 A  
HETATM   26  C   UNL     1      -8.909  15.114  66.279  1.00  0.00    -0.211 A  
HETATM   27  C   UNL     1      -9.014  13.802  66.747  1.00  0.00    -0.202 A  
ENDBRANCH  19  20
ENDBRANCH   8  19
TORSDOF 3
ENDMDL
MODEL      191
REMARK 921   NORMALIZED FREE ENERGY PREDICTED BY IDOCK:   -4.34 KCAL/MOL
REMARK 922        TOTAL FREE ENERGY PREDICTED BY IDOCK:   -5.42 KCAL/MOL
REMARK 923 INTER-LIGAND FREE ENERGY PREDICTED BY IDOCK:   -5.55 KCAL/MOL
REMARK 924 INTRA-LIGAND FREE ENERGY PREDICTED BY IDOCK:    0.13 KCAL/MOL
REMARK 927      BINDING AFFINITY PREDICTED BY RF-SCORE:    0.00 PKD
ROOT
HETATM    1  C   UNL     1     -12.551  14.026  64.844  1.00  0.00    -0.342 C  
HETATM    2  N   UNL     1     -11.208  14.374  65.267  1.00  0.00    -0.329 N  
HETATM    3  C   UNL     1     -10.728  15.629  65.006  1.00  0.00    -0.436 C  
HETATM    4  C   UNL     1      -9.415  15.944  65.576  1.00  0.00    -0.089 C  
HETATM    5  O   UNL     1     -11.315  16.485  64.350  1.00  0.00    -0.921 OA 
HETATM    6  C   UNL     1      -8.752  15.126  66.417  1.00  0.00    -0.184 C  
HETATM    7  O   UNL     1     -10.904  12.266  66.072  1.00  0.00    -0.258 OA 
HETATM    8  N   UNL     1      -9.345  13.870  66.646  1.00  0.00    -0.277 N  
HETATM    9  C   UNL     1     -10.500  13.430  65.982  1.00  0.00    -0.294 C  
ENDROOT
BRANCH   6  10
HETATM   10  N   UNL     1      -7.533  15.589  66.993  1.00  0.00    -0.205 NA 
HETATM   11  N   UNL     1      -7.941  15.223  70.000  1.00  0.00    -0.188 NA 
HETATM   12  C   UNL     1      -7.008  16.960  66.928  1.00  0.00    -0.216 C  
HETATM   13  C   UNL     1      -7.026  17.619  68.302  1.00  0.00    -0.220 C  
HETATM   14  H2  UNL     1      -8.645  15.822  69.569  1.00  0.00     0.000 HD 
HETATM   15  H1  UNL     1      -8.235  14.246  70.026  1.00  0.00     0.000 HD 
HETATM   16  C   UNL     1      -6.192  16.811  69.291  1.00  0.00    -0.201 C  
HETATM   17  C   UNL     1      -6.673  14.757  67.889  1.00  0.00    -0.163 C  
HETATM   18  C   UNL     1      -6.635  15.341  69.331  1.00  0.00    -0.152 C  
ENDBRANCH   6  10
BRANCH   8  19
HETATM   19  C   UNL     1      -9.003  13.031  67.797  1.00  0.00    -0.191 C  
BRANCH  19  20
HETATM   20  C   UNL     1      -8.337  11.686  67.525  1.00  0.00    -0.151 A  
HETATM   21  C   UNL     1      -7.854   9.427  68.308  1.00  0.00    -0.090 A  
HETATM   22  C   UNL     1      -9.726  10.633  69.306  1.00  0.00    -0.160 C  
HETATM   23  N   UNL     1     -10.599  10.690  70.066  1.00  0.00    -0.180 NA 
HETATM   24  C   UNL     1      -8.645  10.584  68.356  1.00  0.00    -0.132 A  
HETATM   25  C   UNL     1      -6.770   9.349  67.436  1.00  0.00    -0.068 A  
HETATM   26  C   UNL     1      -6.513  10.395  66.553  1.00  0.00    -0.089 A  
HETATM   27  C   UNL     1      -7.311  11.541  66.572  1.00  0.00    -0.012 A  
ENDBRANCH  19  20
ENDBRANCH   8  19
TORSDOF 3
ENDMDL
MODEL      192
REMARK 921   NORMALIZED FREE ENERGY PREDICTED BY IDOCK:   -4.34 KCAL/MOL
REMARK 922        TOTAL FREE ENERGY PREDICTED BY IDOCK:   -5.42 KCAL/MOL
REMARK 923 INTER-LIGAND FREE ENERGY PREDICTED BY IDOCK:   -5.00 KCAL/MOL
REMARK 924 INTRA-LIGAND FREE ENERGY PREDICTED BY IDOCK:   -0.42 KCAL/MOL
REMARK 927      BINDING AFFINITY PREDICTED BY RF-SCORE:    0.00 PKD
ROOT
HETATM    1  C   UNL     1     -10.536   5.428  69.577  1.00  0.00    -0.246 C  
HETATM    2  N   UNL     1      -9.756   6.637  69.391  1.00  0.00    -0.148 N  
HETATM    3  C   UNL     1      -8.700   6.886  70.225  1.00  0.00    -0.144 C  
HETATM    4  C   UNL     1      -7.885   8.058  69.894  1.00  0.00    -0.102 C  
HETATM    5  O   UNL     1      -8.397   6.205  71.201  1.00  0.00    -0.121 OA 
HETATM    6  C   UNL     1      -8.053   8.790  68.775  1.00  0.00    -0.115 C  
HETATM    7  O   UNL     1     -11.122   7.270  67.683  1.00  0.00    -0.139 OA 
HETATM    8  N   UNL     1      -9.148   8.432  67.967  1.00  0.00    -0.137 N  
HETATM    9  C   UNL     1     -10.081   7.447  68.323  1.00  0.00    -0.177 C  
ENDROOT
BRANCH   6  10
HETATM   10  N   UNL     1      -7.127   9.841  68.508  1.00  0.00    -0.068 NA 
HETATM   11  N   UNL     1      -8.820  12.382  68.647  1.00  0.00    -0.378 NA 
HETATM   12  C   UNL     1      -6.383  10.046  67.258  1.00  0.00    -0.067 C  
HETATM   13  C   UNL     1      -6.857  11.305  66.539  1.00  0.00    -0.101 C  
HETATM   14  H2  UNL     1      -9.156  11.713  67.955  1.00  0.00     0.000 HD 
HETATM   15  H1  UNL     1      -9.270  12.252  69.553  1.00  0.00     0.000 HD 
HETATM   16  C   UNL     1      -6.678  12.527  67.432  1.00  0.00    -0.147 C  
HETATM   17  C   UNL     1      -6.890  10.990  69.434  1.00  0.00    -0.119 C  
HETATM   18  C   UNL     1      -7.357  12.331  68.797  1.00  0.00    -0.083 C  
ENDBRANCH   6  10
BRANCH   8  19
HETATM   19  C   UNL     1      -9.256   8.828  66.560  1.00  0.00    -0.179 C  
BRANCH  19  20
HETATM   20  C   UNL     1     -10.175   9.995  66.216  1.00  0.00    -0.285 A  
HETATM   21  C   UNL     1     -10.702  11.830  64.699  1.00  0.00    -0.363 A  
HETATM   22  C   UNL     1      -9.295  10.010  63.886  1.00  0.00    -0.263 C  
HETATM   23  N   UNL     1      -8.659   9.524  63.047  1.00  0.00    -0.202 NA 
HETATM   24  C   UNL     1     -10.077  10.599  64.942  1.00  0.00    -0.402 A  
HETATM   25  C   UNL     1     -11.434  12.461  65.704  1.00  0.00    -0.412 A  
HETATM   26  C   UNL     1     -11.609  11.831  66.934  1.00  0.00    -0.310 A  
HETATM   27  C   UNL     1     -11.014  10.591  67.178  1.00  0.00    -0.294 A  
ENDBRANCH  19  20
ENDBRANCH   8  19
TORSDOF 3
ENDMDL
MODEL      193
REMARK 921   NORMALIZED FREE ENERGY PREDICTED BY IDOCK:   -4.33 KCAL/MOL
REMARK 922        TOTAL FREE ENERGY PREDICTED BY IDOCK:   -5.41 KCAL/MOL
REMARK 923 INTER-LIGAND FREE ENERGY PREDICTED BY IDOCK:   -4.58 KCAL/MOL
REMARK 924 INTRA-LIGAND FREE ENERGY PREDICTED BY IDOCK:   -0.82 KCAL/MOL
REMARK 927      BINDING AFFINITY PREDICTED BY RF-SCORE:    0.00 PKD
ROOT
HETATM    1  C   UNL     1     -10.541   4.490  65.298  1.00  0.00    -0.133 C  
HETATM    2  N   UNL     1     -10.145   4.700  66.678  1.00  0.00    -0.235 N  
HETATM    3  C   UNL     1      -9.371   3.760  67.301  1.00  0.00    -0.197 C  
HETATM    4  C   UNL     1      -8.907   4.104  68.649  1.00  0.00    -0.141 C  
HETATM    5  O   UNL     1      -9.042   2.682  66.815  1.00  0.00    -0.151 OA 
HETATM    6  C   UNL     1      -9.100   5.310  69.218  1.00  0.00    -0.108 C  
HETATM    7  O   UNL     1     -11.334   6.641  66.735  1.00  0.00    -0.270 OA 
HETATM    8  N   UNL     1      -9.883   6.218  68.481  1.00  0.00    -0.135 N  
HETATM    9  C   UNL     1     -10.518   5.886  67.274  1.00  0.00    -0.262 C  
ENDROOT
BRANCH   6  10
HETATM   10  N   UNL     1      -8.507   5.562  70.490  1.00  0.00    -0.121 NA 
HETATM   11  N   UNL     1      -5.551   4.901  70.080  1.00  0.00    -0.014 NA 
HETATM   12  C   UNL     1      -8.801   4.851  71.741  1.00  0.00    -0.128 C  
HETATM   13  C   UNL     1      -7.605   4.021  72.194  1.00  0.00    -0.070 C  
HETATM   14  H2  UNL     1      -6.171   4.118  69.872  1.00  0.00     0.000 HD 
HETATM   15  H1  UNL     1      -5.352   5.461  69.251  1.00  0.00     0.000 HD 
HETATM   16  C   UNL     1      -6.386   4.913  72.401  1.00  0.00    -0.031 C  
HETATM   17  C   UNL     1      -7.370   6.510  70.699  1.00  0.00    -0.079 C  
HETATM   18  C   UNL     1      -6.086   5.756  71.152  1.00  0.00    -0.034 C  
ENDBRANCH   6  10
BRANCH   8  19
HETATM   19  C   UNL     1      -9.869   7.661  68.732  1.00  0.00    -0.164 C  
BRANCH  19  20
HETATM   20  C   UNL     1     -10.902   8.225  69.703  1.00  0.00    -0.154 A  
HETATM   21  C   UNL     1     -11.963  10.196  70.672  1.00  0.00    -0.423 A  
HETATM   22  C   UNL     1     -10.806  10.424  68.536  1.00  0.00    -0.237 C  
HETATM   23  N   UNL     1     -10.447  11.077  67.647  1.00  0.00    -0.193 NA 
HETATM   24  C   UNL     1     -11.239   9.596  69.632  1.00  0.00    -0.176 A  
HETATM   25  C   UNL     1     -12.367   9.445  71.775  1.00  0.00    -0.471 A  
HETATM   26  C   UNL     1     -12.115   8.076  71.811  1.00  0.00    -0.344 A  
HETATM   27  C   UNL     1     -11.419   7.462  70.768  1.00  0.00    -0.313 A  
ENDBRANCH  19  20
ENDBRANCH   8  19
TORSDOF 3
ENDMDL
MODEL      194
REMARK 921   NORMALIZED FREE ENERGY PREDICTED BY IDOCK:   -4.30 KCAL/MOL
REMARK 922        TOTAL FREE ENERGY PREDICTED BY IDOCK:   -5.38 KCAL/MOL
REMARK 923 INTER-LIGAND FREE ENERGY PREDICTED BY IDOCK:   -4.20 KCAL/MOL
REMARK 924 INTRA-LIGAND FREE ENERGY PREDICTED BY IDOCK:   -1.18 KCAL/MOL
REMARK 927      BINDING AFFINITY PREDICTED BY RF-SCORE:    0.00 PKD
ROOT
HETATM    1  C   UNL     1     -10.076   4.449  65.491  1.00  0.00    -0.236 C  
HETATM    2  N   UNL     1     -10.141   4.526  66.938  1.00  0.00    -0.197 N  
HETATM    3  C   UNL     1      -9.639   3.496  67.685  1.00  0.00    -0.127 C  
HETATM    4  C   UNL     1      -9.625   3.704  69.136  1.00  0.00    -0.172 C  
HETATM    5  O   UNL     1      -9.205   2.441  67.230  1.00  0.00    -0.157 OA 
HETATM    6  C   UNL     1      -9.954   4.871  69.724  1.00  0.00    -0.244 C  
HETATM    7  O   UNL     1     -11.223   6.524  66.794  1.00  0.00    -0.334 OA 
HETATM    8  N   UNL     1     -10.428   5.879  68.864  1.00  0.00    -0.230 N  
HETATM    9  C   UNL     1     -10.649   5.682  67.492  1.00  0.00    -0.221 C  
ENDROOT
BRANCH   6  10
HETATM   10  N   UNL     1      -9.796   4.987  71.137  1.00  0.00    -0.177 NA 
HETATM   11  N   UNL     1      -7.632   2.938  71.816  1.00  0.00    -0.047 NA 
HETATM   12  C   UNL     1     -10.816   4.691  72.152  1.00  0.00     0.033 C  
HETATM   13  C   UNL     1     -10.434   3.464  72.971  1.00  0.00    -0.253 C  
HETATM   14  H2  UNL     1      -8.443   2.528  71.354  1.00  0.00     0.000 HD 
HETATM   15  H1  UNL     1      -6.908   3.209  71.150  1.00  0.00     0.000 HD 
HETATM   16  C   UNL     1      -9.091   3.681  73.660  1.00  0.00    -0.096 C  
HETATM   17  C   UNL     1      -8.491   5.292  71.800  1.00  0.00    -0.126 C  
HETATM   18  C   UNL     1      -8.002   4.088  72.656  1.00  0.00    -0.086 C  
ENDBRANCH   6  10
BRANCH   8  19
HETATM   19  C   UNL     1     -10.451   7.295  69.241  1.00  0.00    -0.216 C  
BRANCH  19  20
HETATM   20  C   UNL     1      -9.116   8.022  69.364  1.00  0.00    -0.148 A  
HETATM   21  C   UNL     1      -7.754   9.645  70.572  1.00  0.00    -0.152 A  
HETATM   22  C   UNL     1      -9.668   8.648  71.712  1.00  0.00    -0.291 C  
HETATM   23  N   UNL     1     -10.350   8.556  72.644  1.00  0.00    -0.250 NA 
HETATM   24  C   UNL     1      -8.834   8.751  70.542  1.00  0.00    -0.200 A  
HETATM   25  C   UNL     1      -6.944   9.811  69.449  1.00  0.00    -0.059 A  
HETATM   26  C   UNL     1      -7.162   9.032  68.316  1.00  0.00    -0.078 A  
HETATM   27  C   UNL     1      -8.218   8.119  68.284  1.00  0.00    -0.129 A  
ENDBRANCH  19  20
ENDBRANCH   8  19
TORSDOF 3
ENDMDL
MODEL      195
REMARK 921   NORMALIZED FREE ENERGY PREDICTED BY IDOCK:   -4.28 KCAL/MOL
REMARK 922        TOTAL FREE ENERGY PREDICTED BY IDOCK:   -5.35 KCAL/MOL
REMARK 923 INTER-LIGAND FREE ENERGY PREDICTED BY IDOCK:   -4.60 KCAL/MOL
REMARK 924 INTRA-LIGAND FREE ENERGY PREDICTED BY IDOCK:   -0.75 KCAL/MOL
REMARK 927      BINDING AFFINITY PREDICTED BY RF-SCORE:    0.00 PKD
ROOT
HETATM    1  C   UNL     1     -11.726   8.630  72.677  1.00  0.00    -0.136 C  
HETATM    2  N   UNL     1     -10.955   7.716  71.855  1.00  0.00    -0.234 N  
HETATM    3  C   UNL     1     -11.547   6.573  71.391  1.00  0.00    -0.318 C  
HETATM    4  C   UNL     1     -10.745   5.767  70.465  1.00  0.00    -0.361 C  
HETATM    5  O   UNL     1     -12.677   6.194  71.686  1.00  0.00     0.072 OA 
HETATM    6  C   UNL     1      -9.552   6.160  69.977  1.00  0.00    -0.160 C  
HETATM    7  O   UNL     1      -9.122   9.048  72.075  1.00  0.00    -0.375 OA 
HETATM    8  N   UNL     1      -9.045   7.367  70.494  1.00  0.00    -0.156 N  
HETATM    9  C   UNL     1      -9.669   8.088  71.524  1.00  0.00    -0.167 C  
ENDROOT
BRANCH   6  10
HETATM   10  N   UNL     1      -8.917   5.340  68.998  1.00  0.00    -0.105 NA 
HETATM   11  N   UNL     1     -10.983   5.118  66.757  1.00  0.00    -0.325 NA 
HETATM   12  C   UNL     1      -8.511   3.939  69.170  1.00  0.00    -0.076 C  
HETATM   13  C   UNL     1      -9.354   3.014  68.299  1.00  0.00    -0.253 C  
HETATM   14  H2  UNL     1     -11.330   4.786  67.657  1.00  0.00     0.000 HD 
HETATM   15  H1  UNL     1     -11.196   6.104  66.606  1.00  0.00     0.000 HD 
HETATM   16  C   UNL     1      -9.218   3.397  66.829  1.00  0.00    -0.194 C  
HETATM   17  C   UNL     1      -8.706   5.761  67.580  1.00  0.00    -0.107 C  
HETATM   18  C   UNL     1      -9.539   4.882  66.603  1.00  0.00    -0.163 C  
ENDBRANCH   6  10
BRANCH   8  19
HETATM   19  C   UNL     1      -7.998   8.138  69.821  1.00  0.00    -0.111 C  
BRANCH  19  20
HETATM   20  C   UNL     1      -8.431   9.245  68.865  1.00  0.00    -0.129 A  
HETATM   21  C   UNL     1      -8.545  11.635  68.391  1.00  0.00    -0.156 A  
HETATM   22  C   UNL     1      -6.905  10.844  70.016  1.00  0.00    -0.088 C  
HETATM   23  N   UNL     1      -6.061  11.055  70.782  1.00  0.00    -0.351 NA 
HETATM   24  C   UNL     1      -7.955  10.560  69.072  1.00  0.00    -0.136 A  
HETATM   25  C   UNL     1      -9.593  11.415  67.499  1.00  0.00    -0.176 A  
HETATM   26  C   UNL     1     -10.009  10.115  67.224  1.00  0.00    -0.241 A  
HETATM   27  C   UNL     1      -9.410   9.035  67.876  1.00  0.00    -0.155 A  
ENDBRANCH  19  20
ENDBRANCH   8  19
TORSDOF 3
ENDMDL
MODEL      196
REMARK 921   NORMALIZED FREE ENERGY PREDICTED BY IDOCK:   -4.27 KCAL/MOL
REMARK 922        TOTAL FREE ENERGY PREDICTED BY IDOCK:   -5.33 KCAL/MOL
REMARK 923 INTER-LIGAND FREE ENERGY PREDICTED BY IDOCK:   -4.83 KCAL/MOL
REMARK 924 INTRA-LIGAND FREE ENERGY PREDICTED BY IDOCK:   -0.50 KCAL/MOL
REMARK 927      BINDING AFFINITY PREDICTED BY RF-SCORE:    0.00 PKD
ROOT
HETATM    1  C   UNL     1     -10.551   8.269  67.258  1.00  0.00    -0.265 C  
HETATM    2  N   UNL     1     -10.574   7.530  68.506  1.00  0.00    -0.174 N  
HETATM    3  C   UNL     1     -10.324   6.185  68.491  1.00  0.00    -0.207 C  
HETATM    4  C   UNL     1     -10.240   5.534  69.801  1.00  0.00    -0.336 C  
HETATM    5  O   UNL     1     -10.163   5.509  67.478  1.00  0.00    -0.168 OA 
HETATM    6  C   UNL     1     -10.270   6.205  70.969  1.00  0.00    -0.196 C  
HETATM    7  O   UNL     1     -11.146   9.425  69.631  1.00  0.00    -0.222 OA 
HETATM    8  N   UNL     1     -10.500   7.590  70.875  1.00  0.00    -0.212 N  
HETATM    9  C   UNL     1     -10.782   8.245  69.667  1.00  0.00    -0.194 C  
ENDROOT
BRANCH   6  10
HETATM   10  N   UNL     1     -10.069   5.473  72.177  1.00  0.00    -0.181 NA 
HETATM   11  N   UNL     1      -9.682   2.588  71.246  1.00  0.00    -0.153 NA 
HETATM   12  C   UNL     1     -11.042   5.309  73.265  1.00  0.00    -0.316 C  
HETATM   13  C   UNL     1     -11.518   3.863  73.359  1.00  0.00    -0.185 C  
HETATM   14  H2  UNL     1     -10.572   2.990  70.951  1.00  0.00     0.000 HD 
HETATM   15  H1  UNL     1      -8.953   2.718  70.544  1.00  0.00     0.000 HD 
HETATM   16  C   UNL     1     -10.337   2.929  73.600  1.00  0.00    -0.220 C  
HETATM   17  C   UNL     1      -8.862   4.632  72.442  1.00  0.00    -0.118 C  
HETATM   18  C   UNL     1      -9.239   3.126  72.543  1.00  0.00    -0.097 C  
ENDBRANCH   6  10
BRANCH   8  19
HETATM   19  C   UNL     1     -10.177   8.522  71.958  1.00  0.00    -0.321 C  
BRANCH  19  20
HETATM   20  C   UNL     1      -8.850   8.336  72.686  1.00  0.00    -0.304 A  
HETATM   21  C   UNL     1      -6.428   8.086  72.531  1.00  0.00    -0.074 A  
HETATM   22  C   UNL     1      -7.622   9.080  70.649  1.00  0.00    -0.119 C  
HETATM   23  N   UNL     1      -7.624   9.534  69.583  1.00  0.00    -0.091 NA 
HETATM   24  C   UNL     1      -7.641   8.515  71.974  1.00  0.00    -0.132 A  
HETATM   25  C   UNL     1      -6.402   7.494  73.793  1.00  0.00    -0.072 A  
HETATM   26  C   UNL     1      -7.575   7.393  74.537  1.00  0.00    -0.164 A  
HETATM   27  C   UNL     1      -8.784   7.842  74.003  1.00  0.00    -0.305 A  
ENDBRANCH  19  20
ENDBRANCH   8  19
TORSDOF 3
ENDMDL
MODEL      197
REMARK 921   NORMALIZED FREE ENERGY PREDICTED BY IDOCK:   -4.25 KCAL/MOL
REMARK 922        TOTAL FREE ENERGY PREDICTED BY IDOCK:   -5.32 KCAL/MOL
REMARK 923 INTER-LIGAND FREE ENERGY PREDICTED BY IDOCK:   -4.33 KCAL/MOL
REMARK 924 INTRA-LIGAND FREE ENERGY PREDICTED BY IDOCK:   -0.99 KCAL/MOL
REMARK 927      BINDING AFFINITY PREDICTED BY RF-SCORE:    0.00 PKD
ROOT
HETATM    1  C   UNL     1     -11.398   4.424  73.363  1.00  0.00    -0.261 C  
HETATM    2  N   UNL     1     -10.395   5.330  72.837  1.00  0.00    -0.185 N  
HETATM    3  C   UNL     1      -9.124   5.287  73.342  1.00  0.00    -0.128 C  
HETATM    4  C   UNL     1      -8.139   6.142  72.673  1.00  0.00    -0.103 C  
HETATM    5  O   UNL     1      -8.765   4.591  74.288  1.00  0.00    -0.106 OA 
HETATM    6  C   UNL     1      -8.399   6.839  71.550  1.00  0.00    -0.115 C  
HETATM    7  O   UNL     1     -11.948   6.268  71.461  1.00  0.00    -0.303 OA 
HETATM    8  N   UNL     1      -9.730   6.792  71.093  1.00  0.00    -0.174 N  
HETATM    9  C   UNL     1     -10.764   6.152  71.793  1.00  0.00    -0.242 C  
ENDROOT
BRANCH   6  10
HETATM   10  N   UNL     1      -7.329   7.549  70.930  1.00  0.00    -0.067 NA 
HETATM   11  N   UNL     1      -8.610  10.158  69.986  1.00  0.00    -0.365 NA 
HETATM   12  C   UNL     1      -6.589   7.129  69.732  1.00  0.00    -0.044 C  
HETATM   13  C   UNL     1      -6.879   8.056  68.556  1.00  0.00    -0.067 C  
HETATM   14  H2  UNL     1      -9.058   9.328  69.599  1.00  0.00     0.000 HD 
HETATM   15  H1  UNL     1      -9.056  10.466  70.850  1.00  0.00     0.000 HD 
HETATM   16  C   UNL     1      -6.497   9.491  68.903  1.00  0.00    -0.046 C  
HETATM   17  C   UNL     1      -6.901   8.921  71.338  1.00  0.00    -0.083 C  
HETATM   18  C   UNL     1      -7.169   9.954  70.205  1.00  0.00    -0.155 C  
ENDBRANCH   6  10
BRANCH   8  19
HETATM   19  C   UNL     1     -10.108   7.138  69.721  1.00  0.00    -0.195 C  
BRANCH  19  20
HETATM   20  C   UNL     1      -9.830   6.114  68.625  1.00  0.00    -0.160 A  
HETATM   21  C   UNL     1     -10.096   5.468  66.288  1.00  0.00    -0.185 A  
HETATM   22  C   UNL     1     -10.367   7.818  66.888  1.00  0.00    -0.326 C  
HETATM   23  N   UNL     1     -10.602   8.914  66.593  1.00  0.00    -0.164 NA 
HETATM   24  C   UNL     1     -10.076   6.462  67.277  1.00  0.00    -0.207 A  
HETATM   25  C   UNL     1      -9.863   4.135  66.623  1.00  0.00    -0.210 A  
HETATM   26  C   UNL     1      -9.534   3.796  67.933  1.00  0.00    -0.224 A  
HETATM   27  C   UNL     1      -9.484   4.782  68.921  1.00  0.00    -0.209 A  
ENDBRANCH  19  20
ENDBRANCH   8  19
TORSDOF 3
ENDMDL
MODEL      198
REMARK 921   NORMALIZED FREE ENERGY PREDICTED BY IDOCK:   -4.24 KCAL/MOL
REMARK 922        TOTAL FREE ENERGY PREDICTED BY IDOCK:   -5.30 KCAL/MOL
REMARK 923 INTER-LIGAND FREE ENERGY PREDICTED BY IDOCK:   -5.63 KCAL/MOL
REMARK 924 INTRA-LIGAND FREE ENERGY PREDICTED BY IDOCK:    0.33 KCAL/MOL
REMARK 927      BINDING AFFINITY PREDICTED BY RF-SCORE:    0.00 PKD
ROOT
HETATM    1  C   UNL     1     -13.310   9.017  72.491  1.00  0.00    -0.423 C  
HETATM    2  N   UNL     1     -12.493   9.064  71.293  1.00  0.00    -0.307 N  
HETATM    3  C   UNL     1     -12.150  10.279  70.766  1.00  0.00    -0.353 C  
HETATM    4  C   UNL     1     -11.219  10.245  69.633  1.00  0.00    -0.322 C  
HETATM    5  O   UNL     1     -12.554  11.364  71.174  1.00  0.00    -0.394 OA 
HETATM    6  C   UNL     1     -10.618   9.121  69.197  1.00  0.00    -0.208 C  
HETATM    7  O   UNL     1     -12.487   6.789  71.196  1.00  0.00    -0.367 OA 
HETATM    8  N   UNL     1     -11.016   7.928  69.827  1.00  0.00    -0.199 N  
HETATM    9  C   UNL     1     -12.042   7.865  70.783  1.00  0.00    -0.084 C  
ENDROOT
BRANCH   6  10
HETATM   10  N   UNL     1      -9.648   9.232  68.157  1.00  0.00    -0.141 NA 
HETATM   11  N   UNL     1      -9.885  12.130  67.218  1.00  0.00    -0.195 NA 
HETATM   12  C   UNL     1      -9.655   8.503  66.882  1.00  0.00    -0.197 C  
HETATM   13  C   UNL     1      -9.907   9.449  65.712  1.00  0.00    -0.345 C  
HETATM   14  H2  UNL     1     -10.760  11.611  67.145  1.00  0.00     0.000 HD 
HETATM   15  H1  UNL     1      -9.806  12.619  68.111  1.00  0.00     0.000 HD 
HETATM   16  C   UNL     1      -8.834  10.531  65.663  1.00  0.00    -0.197 C  
HETATM   17  C   UNL     1      -8.542  10.237  68.162  1.00  0.00    -0.119 C  
HETATM   18  C   UNL     1      -8.713  11.266  67.007  1.00  0.00    -0.152 C  
ENDBRANCH   6  10
BRANCH   8  19
HETATM   19  C   UNL     1     -10.216   6.702  69.778  1.00  0.00    -0.187 C  
BRANCH  19  20
HETATM   20  C   UNL     1      -9.867   6.024  71.099  1.00  0.00    -0.214 A  
HETATM   21  C   UNL     1      -8.378   5.907  73.027  1.00  0.00    -0.117 A  
HETATM   22  C   UNL     1      -8.443   7.971  71.726  1.00  0.00    -0.129 C  
HETATM   23  N   UNL     1      -8.068   9.049  71.526  1.00  0.00    -0.339 NA 
HETATM   24  C   UNL     1      -8.920   6.631  71.956  1.00  0.00    -0.139 A  
HETATM   25  C   UNL     1      -8.777   4.593  73.264  1.00  0.00    -0.101 A  
HETATM   26  C   UNL     1      -9.772   4.017  72.478  1.00  0.00    -0.206 A  
HETATM   27  C   UNL     1     -10.339   4.739  71.425  1.00  0.00    -0.192 A  
ENDBRANCH  19  20
ENDBRANCH   8  19
TORSDOF 3
ENDMDL
MODEL      199
REMARK 921   NORMALIZED FREE ENERGY PREDICTED BY IDOCK:   -4.21 KCAL/MOL
REMARK 922        TOTAL FREE ENERGY PREDICTED BY IDOCK:   -5.26 KCAL/MOL
REMARK 923 INTER-LIGAND FREE ENERGY PREDICTED BY IDOCK:   -4.65 KCAL/MOL
REMARK 924 INTRA-LIGAND FREE ENERGY PREDICTED BY IDOCK:   -0.62 KCAL/MOL
REMARK 927      BINDING AFFINITY PREDICTED BY RF-SCORE:    0.00 PKD
ROOT
HETATM    1  C   UNL     1      -6.727  14.712  69.680  1.00  0.00    -0.163 C  
HETATM    2  N   UNL     1      -7.174  13.561  68.917  1.00  0.00    -0.096 N  
HETATM    3  C   UNL     1      -6.382  12.448  68.860  1.00  0.00    -0.085 C  
HETATM    4  C   UNL     1      -6.958  11.285  68.178  1.00  0.00    -0.069 C  
HETATM    5  O   UNL     1      -5.253  12.361  69.336  1.00  0.00    -0.065 OA 
HETATM    6  C   UNL     1      -8.231  11.234  67.740  1.00  0.00    -0.120 C  
HETATM    7  O   UNL     1      -9.048  14.693  68.289  1.00  0.00    -0.177 OA 
HETATM    8  N   UNL     1      -8.974  12.422  67.874  1.00  0.00    -0.176 N  
HETATM    9  C   UNL     1      -8.425  13.627  68.339  1.00  0.00    -0.147 C  
ENDROOT
BRANCH   6  10
HETATM   10  N   UNL     1      -8.711  10.009  67.191  1.00  0.00    -0.128 NA 
HETATM   11  N   UNL     1      -7.450   7.856  68.955  1.00  0.00    -0.095 NA 
HETATM   12  C   UNL     1      -8.431   9.493  65.844  1.00  0.00    -0.125 C  
HETATM   13  C   UNL     1      -7.557   8.245  65.906  1.00  0.00    -0.082 C  
HETATM   14  H2  UNL     1      -6.763   8.463  68.510  1.00  0.00     0.000 HD 
HETATM   15  H1  UNL     1      -7.718   8.196  69.879  1.00  0.00     0.000 HD 
HETATM   16  C   UNL     1      -8.241   7.157  66.726  1.00  0.00    -0.114 C  
HETATM   17  C   UNL     1      -9.462   8.987  67.981  1.00  0.00    -0.142 C  
HETATM   18  C   UNL     1      -8.645   7.670  68.117  1.00  0.00    -0.123 C  
ENDBRANCH   6  10
BRANCH   8  19
HETATM   19  C   UNL     1     -10.438  12.449  67.833  1.00  0.00    -0.215 C  
BRANCH  19  20
HETATM   20  C   UNL     1     -11.107  12.851  66.522  1.00  0.00    -0.318 A  
HETATM   21  C   UNL     1     -12.769  14.232  65.392  1.00  0.00    -0.385 A  
HETATM   22  C   UNL     1     -11.983  14.921  67.597  1.00  0.00    -0.145 C  
HETATM   23  N   UNL     1     -12.014  15.652  68.496  1.00  0.00    -0.238 NA 
HETATM   24  C   UNL     1     -11.931  13.999  66.492  1.00  0.00    -0.470 A  
HETATM   25  C   UNL     1     -12.786  13.344  64.317  1.00  0.00    -0.112 A  
HETATM   26  C   UNL     1     -11.914  12.259  64.300  1.00  0.00    -0.489 A  
HETATM   27  C   UNL     1     -11.055  12.032  65.378  1.00  0.00    -0.369 A  
ENDBRANCH  19  20
ENDBRANCH   8  19
TORSDOF 3
ENDMDL
MODEL      200
REMARK 921   NORMALIZED FREE ENERGY PREDICTED BY IDOCK:   -4.20 KCAL/MOL
REMARK 922        TOTAL FREE ENERGY PREDICTED BY IDOCK:   -5.26 KCAL/MOL
REMARK 923 INTER-LIGAND FREE ENERGY PREDICTED BY IDOCK:   -5.68 KCAL/MOL
REMARK 924 INTRA-LIGAND FREE ENERGY PREDICTED BY IDOCK:    0.42 KCAL/MOL
REMARK 927      BINDING AFFINITY PREDICTED BY RF-SCORE:    0.00 PKD
ROOT
HETATM    1  C   UNL     1     -13.190  10.682  70.629  1.00  0.00    -0.037 C  
HETATM    2  N   UNL     1     -12.194   9.849  71.276  1.00  0.00    -0.358 N  
HETATM    3  C   UNL     1     -12.586   8.973  72.251  1.00  0.00    -0.375 C  
HETATM    4  C   UNL     1     -11.545   8.078  72.764  1.00  0.00    -0.390 C  
HETATM    5  O   UNL     1     -13.724   8.885  72.704  1.00  0.00    -0.444 OA 
HETATM    6  C   UNL     1     -10.304   8.003  72.244  1.00  0.00    -0.271 C  
HETATM    7  O   UNL     1     -10.553  10.836  70.043  1.00  0.00    -0.181 OA 
HETATM    8  N   UNL     1     -10.011   8.926  71.223  1.00  0.00    -0.260 N  
HETATM    9  C   UNL     1     -10.896   9.937  70.818  1.00  0.00    -0.317 C  
ENDROOT
BRANCH   6  10
HETATM   10  N   UNL     1      -9.412   7.016  72.758  1.00  0.00    -0.144 NA 
HETATM   11  N   UNL     1      -6.880   8.582  73.446  1.00  0.00    -0.268 NA 
HETATM   12  C   UNL     1      -8.864   5.872  72.017  1.00  0.00    -0.137 C  
HETATM   13  C   UNL     1      -7.362   6.027  71.803  1.00  0.00    -0.093 C  
HETATM   14  H2  UNL     1      -7.151   8.668  72.467  1.00  0.00     0.000 HD 
HETATM   15  H1  UNL     1      -7.276   9.328  74.018  1.00  0.00     0.000 HD 
HETATM   16  C   UNL     1      -6.643   6.146  73.142  1.00  0.00    -0.073 C  
HETATM   17  C   UNL     1      -8.783   7.095  74.111  1.00  0.00    -0.201 C  
HETATM   18  C   UNL     1      -7.240   7.270  74.004  1.00  0.00    -0.087 C  
ENDBRANCH   6  10
BRANCH   8  19
HETATM   19  C   UNL     1      -8.897   8.745  70.288  1.00  0.00    -0.160 C  
BRANCH  19  20
HETATM   20  C   UNL     1      -9.190   8.874  68.797  1.00  0.00    -0.140 A  
HETATM   21  C   UNL     1     -10.064   7.841  66.768  1.00  0.00    -0.341 A  
HETATM   22  C   UNL     1     -10.745   6.931  68.928  1.00  0.00    -0.222 C  
HETATM   23  N   UNL     1     -11.332   6.153  69.555  1.00  0.00    -0.421 NA 
HETATM   24  C   UNL     1     -10.006   7.906  68.168  1.00  0.00    -0.210 A  
HETATM   25  C   UNL     1      -9.332   8.735  65.989  1.00  0.00    -0.296 A  
HETATM   26  C   UNL     1      -8.596   9.746  66.600  1.00  0.00    -0.134 A  
HETATM   27  C   UNL     1      -8.552   9.838  67.993  1.00  0.00    -0.122 A  
ENDBRANCH  19  20
ENDBRANCH   8  19
TORSDOF 3
ENDMDL
MODEL      201
REMARK 921   NORMALIZED FREE ENERGY PREDICTED BY IDOCK:   -4.17 KCAL/MOL
REMARK 922        TOTAL FREE ENERGY PREDICTED BY IDOCK:   -5.22 KCAL/MOL
REMARK 923 INTER-LIGAND FREE ENERGY PREDICTED BY IDOCK:   -4.72 KCAL/MOL
REMARK 924 INTRA-LIGAND FREE ENERGY PREDICTED BY IDOCK:   -0.50 KCAL/MOL
REMARK 927      BINDING AFFINITY PREDICTED BY RF-SCORE:    0.00 PKD
ROOT
HETATM    1  C   UNL     1      -9.042   3.439  65.592  1.00  0.00    -0.151 C  
HETATM    2  N   UNL     1      -9.076   4.693  66.320  1.00  0.00    -0.117 N  
HETATM    3  C   UNL     1      -8.697   5.845  65.687  1.00  0.00    -0.146 C  
HETATM    4  C   UNL     1      -8.881   7.085  66.447  1.00  0.00    -0.158 C  
HETATM    5  O   UNL     1      -8.233   5.905  64.552  1.00  0.00    -0.133 OA 
HETATM    6  C   UNL     1      -9.502   7.141  67.642  1.00  0.00    -0.126 C  
HETATM    7  O   UNL     1      -9.759   3.597  68.196  1.00  0.00    -0.137 OA 
HETATM    8  N   UNL     1      -9.882   5.903  68.194  1.00  0.00    -0.126 N  
HETATM    9  C   UNL     1      -9.564   4.667  67.611  1.00  0.00    -0.161 C  
ENDROOT
BRANCH   6  10
HETATM   10  N   UNL     1      -9.718   8.420  68.234  1.00  0.00    -0.151 NA 
HETATM   11  N   UNL     1      -9.968  10.314  65.849  1.00  0.00    -0.243 NA 
HETATM   12  C   UNL     1      -8.778   9.148  69.096  1.00  0.00    -0.138 C  
HETATM   13  C   UNL     1      -8.254  10.400  68.401  1.00  0.00    -0.114 C  
HETATM   14  H2  UNL     1      -9.084   9.807  65.868  1.00  0.00     0.000 HD 
HETATM   15  H1  UNL     1     -10.677   9.826  65.301  1.00  0.00     0.000 HD 
HETATM   16  C   UNL     1      -9.408  11.324  68.029  1.00  0.00    -0.166 C  
HETATM   17  C   UNL     1     -10.902   9.280  67.932  1.00  0.00    -0.118 C  
HETATM   18  C   UNL     1     -10.475  10.587  67.203  1.00  0.00    -0.249 C  
ENDBRANCH   6  10
BRANCH   8  19
HETATM   19  C   UNL     1     -10.890   5.784  69.250  1.00  0.00    -0.303 C  
BRANCH  19  20
HETATM   20  C   UNL     1     -10.674   6.578  70.534  1.00  0.00    -0.305 A  
HETATM   21  C   UNL     1      -9.556   6.742  72.696  1.00  0.00    -0.160 A  
HETATM   22  C   UNL     1      -8.596   5.282  70.993  1.00  0.00    -0.123 C  
HETATM   23  N   UNL     1      -7.789   4.522  70.654  1.00  0.00    -0.056 NA 
HETATM   24  C   UNL     1      -9.610   6.222  71.395  1.00  0.00    -0.170 A  
HETATM   25  C   UNL     1     -10.539   7.622  73.145  1.00  0.00    -0.438 A  
HETATM   26  C   UNL     1     -11.541   8.046  72.276  1.00  0.00    -0.424 A  
HETATM   27  C   UNL     1     -11.589   7.556  70.969  1.00  0.00    -0.305 A  
ENDBRANCH  19  20
ENDBRANCH   8  19
TORSDOF 3
ENDMDL
MODEL      202
REMARK 921   NORMALIZED FREE ENERGY PREDICTED BY IDOCK:   -4.09 KCAL/MOL
REMARK 922        TOTAL FREE ENERGY PREDICTED BY IDOCK:   -5.13 KCAL/MOL
REMARK 923 INTER-LIGAND FREE ENERGY PREDICTED BY IDOCK:   -5.21 KCAL/MOL
REMARK 924 INTRA-LIGAND FREE ENERGY PREDICTED BY IDOCK:    0.08 KCAL/MOL
REMARK 927      BINDING AFFINITY PREDICTED BY RF-SCORE:    0.00 PKD
ROOT
HETATM    1  C   UNL     1      -5.161  12.012  68.132  1.00  0.00    -0.052 C  
HETATM    2  N   UNL     1      -6.610  12.063  68.132  1.00  0.00    -0.052 N  
HETATM    3  C   UNL     1      -7.316  11.045  68.712  1.00  0.00    -0.111 C  
HETATM    4  C   UNL     1      -8.768  11.231  68.785  1.00  0.00    -0.105 C  
HETATM    5  O   UNL     1      -6.823  10.017  69.170  1.00  0.00    -0.052 OA 
HETATM    6  C   UNL     1      -9.391  12.374  68.434  1.00  0.00    -0.158 C  
HETATM    7  O   UNL     1      -6.552  14.014  66.959  1.00  0.00    -0.021 OA 
HETATM    8  N   UNL     1      -8.571  13.373  67.877  1.00  0.00    -0.171 N  
HETATM    9  C   UNL     1      -7.208  13.187  67.600  1.00  0.00    -0.159 C  
ENDROOT
BRANCH   6  10
HETATM   10  N   UNL     1     -10.796  12.474  68.653  1.00  0.00    -0.242 NA 
HETATM   11  N   UNL     1     -11.054  14.487  70.938  1.00  0.00    -0.491 NA 
HETATM   12  C   UNL     1     -11.684  11.394  69.105  1.00  0.00    -0.342 C  
HETATM   13  C   UNL     1     -12.211  11.670  70.509  1.00  0.00    -0.451 C  
HETATM   14  H2  UNL     1     -10.484  13.676  71.179  1.00  0.00     0.000 HD 
HETATM   15  H1  UNL     1     -10.490  15.254  70.571  1.00  0.00     0.000 HD 
HETATM   16  C   UNL     1     -12.973  12.990  70.541  1.00  0.00     0.134 C  
HETATM   17  C   UNL     1     -11.552  13.762  68.592  1.00  0.00    -0.334 C  
HETATM   18  C   UNL     1     -12.124  14.144  69.988  1.00  0.00    -0.346 C  
ENDBRANCH   6  10
BRANCH   8  19
HETATM   19  C   UNL     1      -8.973  14.780  67.810  1.00  0.00    -0.182 C  
BRANCH  19  20
HETATM   20  C   UNL     1      -9.670  15.262  66.543  1.00  0.00    -0.287 A  
HETATM   21  C   UNL     1     -10.976  17.003  65.441  1.00  0.00     0.004 A  
HETATM   22  C   UNL     1      -9.703  17.587  67.439  1.00  0.00    -0.274 C  
HETATM   23  N   UNL     1      -9.377  18.363  68.236  1.00  0.00    -0.314 NA 
HETATM   24  C   UNL     1     -10.099  16.607  66.460  1.00  0.00    -0.313 A  
HETATM   25  C   UNL     1     -11.422  16.080  64.496  1.00  0.00    -0.274 A  
HETATM   26  C   UNL     1     -10.936  14.775  64.518  1.00  0.00    -0.227 A  
HETATM   27  C   UNL     1     -10.041  14.377  65.512  1.00  0.00    -0.382 A  
ENDBRANCH  19  20
ENDBRANCH   8  19
TORSDOF 3
ENDMDL
MODEL      203
REMARK 921   NORMALIZED FREE ENERGY PREDICTED BY IDOCK:   -4.09 KCAL/MOL
REMARK 922        TOTAL FREE ENERGY PREDICTED BY IDOCK:   -5.13 KCAL/MOL
REMARK 923 INTER-LIGAND FREE ENERGY PREDICTED BY IDOCK:   -4.80 KCAL/MOL
REMARK 924 INTRA-LIGAND FREE ENERGY PREDICTED BY IDOCK:   -0.32 KCAL/MOL
REMARK 927      BINDING AFFINITY PREDICTED BY RF-SCORE:    0.00 PKD
ROOT
HETATM    1  C   UNL     1      -6.685   7.735  70.481  1.00  0.00    -0.038 C  
HETATM    2  N   UNL     1      -7.609   8.714  69.941  1.00  0.00    -0.069 N  
HETATM    3  C   UNL     1      -7.343  10.046  70.105  1.00  0.00    -0.163 C  
HETATM    4  C   UNL     1      -8.254  10.970  69.422  1.00  0.00     0.098 C  
HETATM    5  O   UNL     1      -6.413  10.504  70.763  1.00  0.00    -0.323 OA 
HETATM    6  C   UNL     1      -9.221  10.571  68.572  1.00  0.00    -0.168 C  
HETATM    7  O   UNL     1      -8.972   7.042  69.214  1.00  0.00    -0.138 OA 
HETATM    8  N   UNL     1      -9.392   9.179  68.448  1.00  0.00    -0.135 N  
HETATM    9  C   UNL     1      -8.686   8.243  69.219  1.00  0.00    -0.139 C  
ENDROOT
BRANCH   6  10
HETATM   10  N   UNL     1      -9.972  11.568  67.883  1.00  0.00    -0.179 NA 
HETATM   11  N   UNL     1      -8.891  14.208  68.981  1.00  0.00    -0.379 NA 
HETATM   12  C   UNL     1     -11.423  11.779  67.973  1.00  0.00    -0.319 C  
HETATM   13  C   UNL     1     -11.742  13.098  68.669  1.00  0.00    -0.362 C  
HETATM   14  H2  UNL     1      -9.266  13.595  69.705  1.00  0.00     0.000 HD 
HETATM   15  H1  UNL     1      -7.890  14.068  68.842  1.00  0.00     0.000 HD 
HETATM   16  C   UNL     1     -11.114  14.264  67.913  1.00  0.00    -0.293 C  
HETATM   17  C   UNL     1      -9.349  12.655  67.068  1.00  0.00    -0.220 C  
HETATM   18  C   UNL     1      -9.607  14.052  67.704  1.00  0.00    -0.221 C  
ENDBRANCH   6  10
BRANCH   8  19
HETATM   19  C   UNL     1     -10.088   8.566  67.315  1.00  0.00    -0.251 C  
BRANCH  19  20
HETATM   20  C   UNL     1      -9.633   8.944  65.909  1.00  0.00    -0.293 A  
HETATM   21  C   UNL     1      -7.877   8.868  64.219  1.00  0.00    -0.134 A  
HETATM   22  C   UNL     1      -7.827   7.231  66.028  1.00  0.00    -0.106 C  
HETATM   23  N   UNL     1      -7.321   6.338  66.566  1.00  0.00    -0.080 NA 
HETATM   24  C   UNL     1      -8.468   8.344  65.377  1.00  0.00    -0.193 A  
HETATM   25  C   UNL     1      -8.437   9.972  63.577  1.00  0.00    -0.187 A  
HETATM   26  C   UNL     1      -9.632  10.513  64.045  1.00  0.00    -0.367 A  
HETATM   27  C   UNL     1     -10.245   9.982  65.182  1.00  0.00    -0.146 A  
ENDBRANCH  19  20
ENDBRANCH   8  19
TORSDOF 3
ENDMDL
MODEL      204
REMARK 921   NORMALIZED FREE ENERGY PREDICTED BY IDOCK:   -4.07 KCAL/MOL
REMARK 922        TOTAL FREE ENERGY PREDICTED BY IDOCK:   -5.11 KCAL/MOL
REMARK 923 INTER-LIGAND FREE ENERGY PREDICTED BY IDOCK:   -4.13 KCAL/MOL
REMARK 924 INTRA-LIGAND FREE ENERGY PREDICTED BY IDOCK:   -0.98 KCAL/MOL
REMARK 927      BINDING AFFINITY PREDICTED BY RF-SCORE:    0.00 PKD
ROOT
HETATM    1  C   UNL     1     -10.932  16.552  67.370  1.00  0.00    -0.121 C  
HETATM    2  N   UNL     1      -9.728  15.760  67.537  1.00  0.00    -0.225 N  
HETATM    3  C   UNL     1      -8.796  16.145  68.461  1.00  0.00    -0.200 C  
HETATM    4  C   UNL     1      -7.672  15.225  68.660  1.00  0.00    -0.135 C  
HETATM    5  O   UNL     1      -8.844  17.180  69.121  1.00  0.00    -0.159 OA 
HETATM    6  C   UNL     1      -7.595  14.009  68.086  1.00  0.00    -0.141 C  
HETATM    7  O   UNL     1     -10.404  14.363  65.870  1.00  0.00    -0.289 OA 
HETATM    8  N   UNL     1      -8.621  13.694  67.175  1.00  0.00    -0.206 N  
HETATM    9  C   UNL     1      -9.619  14.603  66.792  1.00  0.00    -0.253 C  
ENDROOT
BRANCH   6  10
HETATM   10  N   UNL     1      -6.507  13.159  68.442  1.00  0.00    -0.077 NA 
HETATM   11  N   UNL     1      -6.240  11.251  66.069  1.00  0.00    -0.359 NA 
HETATM   12  C   UNL     1      -6.467  12.229  69.579  1.00  0.00    -0.094 C  
HETATM   13  C   UNL     1      -6.453  10.781  69.101  1.00  0.00    -0.059 C  
HETATM   14  H2  UNL     1      -7.163  11.227  66.503  1.00  0.00     0.000 HD 
HETATM   15  H1  UNL     1      -6.197  11.921  65.301  1.00  0.00     0.000 HD 
HETATM   16  C   UNL     1      -5.245  10.528  68.207  1.00  0.00    -0.034 C  
HETATM   17  C   UNL     1      -5.283  12.987  67.602  1.00  0.00    -0.071 C  
HETATM   18  C   UNL     1      -5.180  11.536  67.049  1.00  0.00    -0.098 C  
ENDBRANCH   6  10
BRANCH   8  19
HETATM   19  C   UNL     1      -8.926  12.320  66.770  1.00  0.00    -0.209 C  
BRANCH  19  20
HETATM   20  C   UNL     1      -9.735  11.456  67.732  1.00  0.00    -0.184 A  
HETATM   21  C   UNL     1     -10.944   9.373  68.117  1.00  0.00    -0.102 A  
HETATM   22  C   UNL     1      -9.316   9.459  66.302  1.00  0.00    -0.198 C  
HETATM   23  N   UNL     1      -8.771   8.956  65.411  1.00  0.00    -0.182 NA 
HETATM   24  C   UNL     1      -9.985  10.104  67.403  1.00  0.00    -0.238 A  
HETATM   25  C   UNL     1     -11.649   9.967  69.163  1.00  0.00    -0.016 A  
HETATM   26  C   UNL     1     -11.347  11.270  69.551  1.00  0.00    -0.362 A  
HETATM   27  C   UNL     1     -10.374  11.999  68.864  1.00  0.00    -0.117 A  
ENDBRANCH  19  20
ENDBRANCH   8  19
TORSDOF 3
ENDMDL
MODEL      205
REMARK 921   NORMALIZED FREE ENERGY PREDICTED BY IDOCK:   -4.07 KCAL/MOL
REMARK 922        TOTAL FREE ENERGY PREDICTED BY IDOCK:   -5.10 KCAL/MOL
REMARK 923 INTER-LIGAND FREE ENERGY PREDICTED BY IDOCK:   -5.84 KCAL/MOL
REMARK 924 INTRA-LIGAND FREE ENERGY PREDICTED BY IDOCK:    0.74 KCAL/MOL
REMARK 927      BINDING AFFINITY PREDICTED BY RF-SCORE:    0.00 PKD
ROOT
HETATM    1  C   UNL     1      -8.365   6.321  65.365  1.00  0.00    -0.148 C  
HETATM    2  N   UNL     1      -9.069   6.869  66.509  1.00  0.00    -0.152 N  
HETATM    3  C   UNL     1      -9.470   6.029  67.512  1.00  0.00    -0.112 C  
HETATM    4  C   UNL     1     -10.058   6.673  68.690  1.00  0.00    -0.169 C  
HETATM    5  O   UNL     1      -9.364   4.806  67.492  1.00  0.00    -0.125 OA 
HETATM    6  C   UNL     1     -10.099   8.009  68.867  1.00  0.00    -0.201 C  
HETATM    7  O   UNL     1      -8.994   8.944  65.576  1.00  0.00    -0.190 OA 
HETATM    8  N   UNL     1      -9.632   8.784  67.789  1.00  0.00    -0.145 N  
HETATM    9  C   UNL     1      -9.237   8.237  66.559  1.00  0.00    -0.187 C  
ENDROOT
BRANCH   6  10
HETATM   10  N   UNL     1     -10.597   8.514  70.103  1.00  0.00    -0.228 NA 
HETATM   11  N   UNL     1      -9.045   6.957  72.227  1.00  0.00    -0.135 NA 
HETATM   12  C   UNL     1     -11.976   8.398  70.596  1.00  0.00    -0.026 C  
HETATM   13  C   UNL     1     -12.048   7.480  71.812  1.00  0.00    -0.340 C  
HETATM   14  H2  UNL     1      -9.569   6.356  71.590  1.00  0.00     0.000 HD 
HETATM   15  H1  UNL     1      -8.090   7.112  71.905  1.00  0.00     0.000 HD 
HETATM   16  C   UNL     1     -11.160   8.012  72.932  1.00  0.00    -0.399 C  
HETATM   17  C   UNL     1      -9.729   9.118  71.159  1.00  0.00    -0.290 C  
HETATM   18  C   UNL     1      -9.721   8.245  72.447  1.00  0.00    -0.303 C  
ENDBRANCH   6  10
BRANCH   8  19
HETATM   19  C   UNL     1      -9.231  10.185  67.937  1.00  0.00    -0.138 C  
BRANCH  19  20
HETATM   20  C   UNL     1      -9.905  11.218  67.040  1.00  0.00    -0.217 A  
HETATM   21  C   UNL     1     -11.833  12.656  66.636  1.00  0.00    -0.449 A  
HETATM   22  C   UNL     1     -11.437  11.846  68.903  1.00  0.00    -0.301 C  
HETATM   23  N   UNL     1     -11.746  11.776  70.018  1.00  0.00    -0.323 NA 
HETATM   24  C   UNL     1     -11.036  11.917  67.521  1.00  0.00    -0.332 A  
HETATM   25  C   UNL     1     -11.511  12.720  65.281  1.00  0.00    -0.360 A  
HETATM   26  C   UNL     1     -10.350  12.107  64.815  1.00  0.00    -0.320 A  
HETATM   27  C   UNL     1      -9.534  11.390  65.693  1.00  0.00    -0.253 A  
ENDBRANCH  19  20
ENDBRANCH   8  19
TORSDOF 3
ENDMDL
MODEL      206
REMARK 921   NORMALIZED FREE ENERGY PREDICTED BY IDOCK:   -4.03 KCAL/MOL
REMARK 922        TOTAL FREE ENERGY PREDICTED BY IDOCK:   -5.06 KCAL/MOL
REMARK 923 INTER-LIGAND FREE ENERGY PREDICTED BY IDOCK:   -4.44 KCAL/MOL
REMARK 924 INTRA-LIGAND FREE ENERGY PREDICTED BY IDOCK:   -0.62 KCAL/MOL
REMARK 927      BINDING AFFINITY PREDICTED BY RF-SCORE:    0.00 PKD
ROOT
HETATM    1  C   UNL     1     -11.272  16.090  68.022  1.00  0.00    -0.303 C  
HETATM    2  N   UNL     1     -10.159  15.160  68.022  1.00  0.00    -0.221 N  
HETATM    3  C   UNL     1      -8.881  15.646  67.973  1.00  0.00    -0.169 C  
HETATM    4  C   UNL     1      -7.812  14.652  68.106  1.00  0.00    -0.128 C  
HETATM    5  O   UNL     1      -8.582  16.829  67.836  1.00  0.00    -0.196 OA 
HETATM    6  C   UNL     1      -8.034  13.353  68.390  1.00  0.00    -0.139 C  
HETATM    7  O   UNL     1     -11.612  13.406  68.040  1.00  0.00    -0.293 OA 
HETATM    8  N   UNL     1      -9.384  12.960  68.451  1.00  0.00    -0.185 N  
HETATM    9  C   UNL     1     -10.452  13.817  68.144  1.00  0.00    -0.249 C  
ENDROOT
BRANCH   6  10
HETATM   10  N   UNL     1      -6.908  12.505  68.603  1.00  0.00    -0.083 NA 
HETATM   11  N   UNL     1      -6.604  10.989  65.967  1.00  0.00    -0.315 NA 
HETATM   12  C   UNL     1      -6.814  11.416  69.586  1.00  0.00    -0.068 C  
HETATM   13  C   UNL     1      -6.751  10.059  68.894  1.00  0.00    -0.053 C  
HETATM   14  H2  UNL     1      -7.518  10.862  66.400  1.00  0.00     0.000 HD 
HETATM   15  H1  UNL     1      -6.599  11.769  65.308  1.00  0.00     0.000 HD 
HETATM   16  C   UNL     1      -5.548   9.993  67.960  1.00  0.00    -0.038 C  
HETATM   17  C   UNL     1      -5.691  12.512  67.735  1.00  0.00    -0.116 C  
HETATM   18  C   UNL     1      -5.540  11.166  66.968  1.00  0.00    -0.076 C  
ENDBRANCH   6  10
BRANCH   8  19
HETATM   19  C   UNL     1      -9.821  11.733  69.121  1.00  0.00     0.223 C  
BRANCH  19  20
HETATM   20  C   UNL     1     -10.170  10.531  68.249  1.00  0.00    -0.185 A  
HETATM   21  C   UNL     1     -10.704   8.154  68.129  1.00  0.00    -0.090 A  
HETATM   22  C   UNL     1     -11.010   9.313  70.254  1.00  0.00    -0.247 C  
HETATM   23  N   UNL     1     -11.301   9.303  71.376  1.00  0.00    -0.335 NA 
HETATM   24  C   UNL     1     -10.641   9.347  68.862  1.00  0.00    -0.231 A  
HETATM   25  C   UNL     1     -10.316   8.128  66.790  1.00  0.00    -0.361 A  
HETATM   26  C   UNL     1      -9.934   9.307  66.155  1.00  0.00    -0.348 A  
HETATM   27  C   UNL     1      -9.894  10.506  66.868  1.00  0.00    -0.235 A  
ENDBRANCH  19  20
ENDBRANCH   8  19
TORSDOF 3
ENDMDL
MODEL      207
REMARK 921   NORMALIZED FREE ENERGY PREDICTED BY IDOCK:   -4.02 KCAL/MOL
REMARK 922        TOTAL FREE ENERGY PREDICTED BY IDOCK:   -5.04 KCAL/MOL
REMARK 923 INTER-LIGAND FREE ENERGY PREDICTED BY IDOCK:   -4.61 KCAL/MOL
REMARK 924 INTRA-LIGAND FREE ENERGY PREDICTED BY IDOCK:   -0.43 KCAL/MOL
REMARK 927      BINDING AFFINITY PREDICTED BY RF-SCORE:    0.00 PKD
ROOT
HETATM    1  C   UNL     1     -10.942   6.579  67.055  1.00  0.00    -0.396 C  
HETATM    2  N   UNL     1      -9.856   7.504  67.316  1.00  0.00    -0.163 N  
HETATM    3  C   UNL     1      -8.651   7.018  67.744  1.00  0.00    -0.122 C  
HETATM    4  C   UNL     1      -7.569   7.999  67.862  1.00  0.00    -0.112 C  
HETATM    5  O   UNL     1      -8.424   5.843  68.020  1.00  0.00    -0.111 OA 
HETATM    6  C   UNL     1      -7.679   9.281  67.460  1.00  0.00    -0.092 C  
HETATM    7  O   UNL     1     -11.214   9.259  66.804  1.00  0.00     0.311 OA 
HETATM    8  N   UNL     1      -8.951   9.674  67.005  1.00  0.00    -0.134 N  
HETATM    9  C   UNL     1     -10.078   8.839  67.048  1.00  0.00    -0.265 C  
ENDROOT
BRANCH   6  10
HETATM   10  N   UNL     1      -6.522  10.112  67.525  1.00  0.00    -0.066 NA 
HETATM   11  N   UNL     1      -6.887  11.701  70.110  1.00  0.00    -0.443 NA 
HETATM   12  C   UNL     1      -6.160  11.170  66.573  1.00  0.00    -0.144 C  
HETATM   13  C   UNL     1      -6.255  12.547  67.221  1.00  0.00    -0.124 C  
HETATM   14  H2  UNL     1      -7.656  11.824  69.451  1.00  0.00     0.000 HD 
HETATM   15  H1  UNL     1      -7.066  10.942  70.767  1.00  0.00     0.000 HD 
HETATM   16  C   UNL     1      -5.334  12.629  68.434  1.00  0.00    -0.058 C  
HETATM   17  C   UNL     1      -5.572  10.119  68.679  1.00  0.00    -0.038 C  
HETATM   18  C   UNL     1      -5.604  11.485  69.424  1.00  0.00    -0.056 C  
ENDBRANCH   6  10
BRANCH   8  19
HETATM   19  C   UNL     1      -9.163  10.864  66.178  1.00  0.00    -0.184 C  
BRANCH  19  20
HETATM   20  C   UNL     1     -10.026  11.984  66.748  1.00  0.00    -0.218 A  
HETATM   21  C   UNL     1     -11.554  13.836  66.316  1.00  0.00    -0.369 A  
HETATM   22  C   UNL     1     -11.266  12.134  64.592  1.00  0.00    -0.323 C  
HETATM   23  N   UNL     1     -11.504  11.716  63.537  1.00  0.00    -0.399 NA 
HETATM   24  C   UNL     1     -10.954  12.637  65.904  1.00  0.00    -0.310 A  
HETATM   25  C   UNL     1     -11.251  14.386  67.561  1.00  0.00    -0.329 A  
HETATM   26  C   UNL     1     -10.405  13.705  68.433  1.00  0.00    -0.248 A  
HETATM   27  C   UNL     1      -9.824  12.496  68.044  1.00  0.00    -0.214 A  
ENDBRANCH  19  20
ENDBRANCH   8  19
TORSDOF 3
ENDMDL
MODEL      208
REMARK 921   NORMALIZED FREE ENERGY PREDICTED BY IDOCK:   -3.98 KCAL/MOL
REMARK 922        TOTAL FREE ENERGY PREDICTED BY IDOCK:   -5.00 KCAL/MOL
REMARK 923 INTER-LIGAND FREE ENERGY PREDICTED BY IDOCK:   -4.34 KCAL/MOL
REMARK 924 INTRA-LIGAND FREE ENERGY PREDICTED BY IDOCK:   -0.66 KCAL/MOL
REMARK 927      BINDING AFFINITY PREDICTED BY RF-SCORE:    0.00 PKD
ROOT
HETATM    1  C   UNL     1     -11.764  11.627  63.483  1.00  0.00    -0.279 C  
HETATM    2  N   UNL     1     -10.582  11.666  64.324  1.00  0.00    -0.313 N  
HETATM    3  C   UNL     1     -10.499  12.602  65.318  1.00  0.00    -0.289 C  
HETATM    4  C   UNL     1      -9.336  12.494  66.204  1.00  0.00    -0.136 C  
HETATM    5  O   UNL     1     -11.317  13.496  65.514  1.00  0.00    -0.295 OA 
HETATM    6  C   UNL     1      -8.455  11.476  66.157  1.00  0.00    -0.060 C  
HETATM    7  O   UNL     1      -9.661   9.962  63.126  1.00  0.00    -0.087 OA 
HETATM    8  N   UNL     1      -8.648  10.547  65.117  1.00  0.00    -0.179 N  
HETATM    9  C   UNL     1      -9.623  10.696  64.119  1.00  0.00    -0.300 C  
ENDROOT
BRANCH   6  10
HETATM   10  N   UNL     1      -7.427  11.423  67.142  1.00  0.00    -0.130 NA 
HETATM   11  N   UNL     1      -7.565  14.150  68.515  1.00  0.00    -0.123 NA 
HETATM   12  C   UNL     1      -5.986  11.290  66.888  1.00  0.00    -0.116 C  
HETATM   13  C   UNL     1      -5.242  12.564  67.271  1.00  0.00    -0.025 C  
HETATM   14  H2  UNL     1      -7.405  14.214  67.509  1.00  0.00     0.000 HD 
HETATM   15  H1  UNL     1      -8.559  14.188  68.746  1.00  0.00     0.000 HD 
HETATM   16  C   UNL     1      -5.461  12.885  68.745  1.00  0.00    -0.071 C  
HETATM   17  C   UNL     1      -7.667  11.648  68.600  1.00  0.00    -0.134 C  
HETATM   18  C   UNL     1      -6.956  12.942  69.093  1.00  0.00    -0.015 C  
ENDBRANCH   6  10
BRANCH   8  19
HETATM   19  C   UNL     1      -8.065   9.203  65.139  1.00  0.00    -0.130 C  
BRANCH  19  20
HETATM   20  C   UNL     1      -8.811   8.115  65.904  1.00  0.00    -0.194 A  
HETATM   21  C   UNL     1      -9.379   5.751  66.102  1.00  0.00    -0.160 A  
HETATM   22  C   UNL     1      -7.406   6.373  64.808  1.00  0.00    -0.076 C  
HETATM   23  N   UNL     1      -6.501   6.081  64.145  1.00  0.00    -0.032 NA 
HETATM   24  C   UNL     1      -8.527   6.758  65.626  1.00  0.00    -0.142 A  
HETATM   25  C   UNL     1     -10.501   6.078  66.862  1.00  0.00    -0.344 A  
HETATM   26  C   UNL     1     -10.739   7.404  67.214  1.00  0.00    -0.379 A  
HETATM   27  C   UNL     1      -9.882   8.412  66.768  1.00  0.00    -0.329 A  
ENDBRANCH  19  20
ENDBRANCH   8  19
TORSDOF 3
ENDMDL
MODEL      209
REMARK 921   NORMALIZED FREE ENERGY PREDICTED BY IDOCK:   -3.96 KCAL/MOL
REMARK 922        TOTAL FREE ENERGY PREDICTED BY IDOCK:   -4.98 KCAL/MOL
REMARK 923 INTER-LIGAND FREE ENERGY PREDICTED BY IDOCK:   -3.98 KCAL/MOL
REMARK 924 INTRA-LIGAND FREE ENERGY PREDICTED BY IDOCK:   -0.99 KCAL/MOL
REMARK 927      BINDING AFFINITY PREDICTED BY RF-SCORE:    0.00 PKD
ROOT
HETATM    1  C   UNL     1     -11.980  11.895  70.269  1.00  0.00    -0.330 C  
HETATM    2  N   UNL     1     -11.143  11.612  69.118  1.00  0.00    -0.241 N  
HETATM    3  C   UNL     1     -10.591  12.651  68.421  1.00  0.00    -0.243 C  
HETATM    4  C   UNL     1      -9.658  12.282  67.352  1.00  0.00    -0.179 C  
HETATM    5  O   UNL     1     -10.816  13.840  68.632  1.00  0.00    -0.249 OA 
HETATM    6  C   UNL     1      -9.245  11.019  67.128  1.00  0.00    -0.152 C  
HETATM    7  O   UNL     1     -11.516   9.381  69.383  1.00  0.00     0.015 OA 
HETATM    8  N   UNL     1      -9.849  10.026  67.921  1.00  0.00    -0.143 N  
HETATM    9  C   UNL     1     -10.889  10.287  68.826  1.00  0.00    -0.230 C  
ENDROOT
BRANCH   6  10
HETATM   10  N   UNL     1      -8.250  10.799  66.130  1.00  0.00    -0.160 NA 
HETATM   11  N   UNL     1      -8.974   8.078  64.940  1.00  0.00    -0.347 NA 
HETATM   12  C   UNL     1      -6.807  10.649  66.361  1.00  0.00    -0.129 C  
HETATM   13  C   UNL     1      -6.348   9.228  66.054  1.00  0.00    -0.068 C  
HETATM   14  H2  UNL     1      -8.807   8.045  65.946  1.00  0.00     0.000 HD 
HETATM   15  H1  UNL     1      -9.960   8.231  64.722  1.00  0.00     0.000 HD 
HETATM   16  C   UNL     1      -6.662   8.868  64.606  1.00  0.00    -0.073 C  
HETATM   17  C   UNL     1      -8.565  10.538  64.692  1.00  0.00    -0.161 C  
HETATM   18  C   UNL     1      -8.146   9.098  64.278  1.00  0.00    -0.148 C  
ENDBRANCH   6  10
BRANCH   8  19
HETATM   19  C   UNL     1      -9.265   8.695  68.104  1.00  0.00    -0.137 C  
BRANCH  19  20
HETATM   20  C   UNL     1      -8.432   8.448  69.357  1.00  0.00    -0.125 A  
HETATM   21  C   UNL     1      -8.116   7.161  71.404  1.00  0.00    -0.106 A  
HETATM   22  C   UNL     1      -9.494   6.210  69.629  1.00  0.00    -0.145 C  
HETATM   23  N   UNL     1     -10.169   5.361  69.221  1.00  0.00    -0.230 NA 
HETATM   24  C   UNL     1      -8.660   7.278  70.118  1.00  0.00    -0.140 A  
HETATM   25  C   UNL     1      -7.338   8.187  71.938  1.00  0.00    -0.099 A  
HETATM   26  C   UNL     1      -7.036   9.304  71.163  1.00  0.00    -0.058 A  
HETATM   27  C   UNL     1      -7.550   9.419  69.870  1.00  0.00    -0.109 A  
ENDBRANCH  19  20
ENDBRANCH   8  19
TORSDOF 3
ENDMDL
MODEL      210
REMARK 921   NORMALIZED FREE ENERGY PREDICTED BY IDOCK:   -3.94 KCAL/MOL
REMARK 922        TOTAL FREE ENERGY PREDICTED BY IDOCK:   -4.95 KCAL/MOL
REMARK 923 INTER-LIGAND FREE ENERGY PREDICTED BY IDOCK:   -4.00 KCAL/MOL
REMARK 924 INTRA-LIGAND FREE ENERGY PREDICTED BY IDOCK:   -0.95 KCAL/MOL
REMARK 927      BINDING AFFINITY PREDICTED BY RF-SCORE:    0.00 PKD
ROOT
HETATM    1  C   UNL     1     -12.534   6.862  71.178  1.00  0.00    -0.349 C  
HETATM    2  N   UNL     1     -11.290   7.472  70.748  1.00  0.00    -0.277 N  
HETATM    3  C   UNL     1     -10.698   8.414  71.543  1.00  0.00    -0.247 C  
HETATM    4  C   UNL     1      -9.383   8.889  71.104  1.00  0.00    -0.326 C  
HETATM    5  O   UNL     1     -11.181   8.869  72.577  1.00  0.00    -0.200 OA 
HETATM    6  C   UNL     1      -8.710   8.361  70.062  1.00  0.00    -0.133 C  
HETATM    7  O   UNL     1     -11.356   6.271  68.815  1.00  0.00    -0.356 OA 
HETATM    8  N   UNL     1      -9.394   7.375  69.327  1.00  0.00    -0.154 N  
HETATM    9  C   UNL     1     -10.727   7.012  69.576  1.00  0.00    -0.241 C  
ENDROOT
BRANCH   6  10
HETATM   10  N   UNL     1      -7.391   8.833  69.798  1.00  0.00    -0.051 NA 
HETATM   11  N   UNL     1      -6.198   9.310  72.571  1.00  0.00    -0.296 NA 
HETATM   12  C   UNL     1      -7.037  10.078  69.103  1.00  0.00    -0.069 C  
HETATM   13  C   UNL     1      -6.385  11.072  70.058  1.00  0.00    -0.146 C  
HETATM   14  H2  UNL     1      -7.051   9.843  72.404  1.00  0.00     0.000 HD 
HETATM   15  H1  UNL     1      -6.392   8.409  73.011  1.00  0.00     0.000 HD 
HETATM   16  C   UNL     1      -5.129  10.471  70.677  1.00  0.00    -0.065 C  
HETATM   17  C   UNL     1      -6.157   8.181  70.334  1.00  0.00    -0.028 C  
HETATM   18  C   UNL     1      -5.420   9.115  71.338  1.00  0.00    -0.051 C  
ENDBRANCH   6  10
BRANCH   8  19
HETATM   19  C   UNL     1      -8.709   6.429  68.444  1.00  0.00    -0.113 C  
BRANCH  19  20
HETATM   20  C   UNL     1      -8.715   6.719  66.946  1.00  0.00    -0.117 A  
HETATM   21  C   UNL     1      -8.207   5.941  64.691  1.00  0.00    -0.120 A  
HETATM   22  C   UNL     1      -8.455   4.287  66.468  1.00  0.00    -0.108 C  
HETATM   23  N   UNL     1      -8.436   3.187  66.832  1.00  0.00    -0.099 NA 
HETATM   24  C   UNL     1      -8.480   5.661  66.038  1.00  0.00    -0.132 A  
HETATM   25  C   UNL     1      -8.177   7.259  64.236  1.00  0.00     0.025 A  
HETATM   26  C   UNL     1      -8.494   8.300  65.105  1.00  0.00    -0.164 A  
HETATM   27  C   UNL     1      -8.794   8.031  66.442  1.00  0.00    -0.183 A  
ENDBRANCH  19  20
ENDBRANCH   8  19
TORSDOF 3
ENDMDL
MODEL      211
REMARK 921   NORMALIZED FREE ENERGY PREDICTED BY IDOCK:   -3.92 KCAL/MOL
REMARK 922        TOTAL FREE ENERGY PREDICTED BY IDOCK:   -4.93 KCAL/MOL
REMARK 923 INTER-LIGAND FREE ENERGY PREDICTED BY IDOCK:   -4.59 KCAL/MOL
REMARK 924 INTRA-LIGAND FREE ENERGY PREDICTED BY IDOCK:   -0.33 KCAL/MOL
REMARK 927      BINDING AFFINITY PREDICTED BY RF-SCORE:    0.00 PKD
ROOT
HETATM    1  C   UNL     1     -11.157   8.528  72.430  1.00  0.00    -0.327 C  
HETATM    2  N   UNL     1     -10.792   8.146  71.079  1.00  0.00    -0.231 N  
HETATM    3  C   UNL     1     -11.564   7.235  70.411  1.00  0.00    -0.219 C  
HETATM    4  C   UNL     1     -11.206   6.998  69.009  1.00  0.00    -0.054 C  
HETATM    5  O   UNL     1     -12.515   6.627  70.894  1.00  0.00    -0.325 OA 
HETATM    6  C   UNL     1     -10.268   7.706  68.350  1.00  0.00    -0.198 C  
HETATM    7  O   UNL     1      -8.955   9.487  71.184  1.00  0.00    -0.249 OA 
HETATM    8  N   UNL     1      -9.552   8.642  69.120  1.00  0.00    -0.161 N  
HETATM    9  C   UNL     1      -9.710   8.783  70.507  1.00  0.00    -0.190 C  
ENDROOT
BRANCH   6  10
HETATM   10  N   UNL     1     -10.085   7.457  66.958  1.00  0.00    -0.232 NA 
HETATM   11  N   UNL     1      -7.520   5.800  66.826  1.00  0.00    -0.083 NA 
HETATM   12  C   UNL     1      -9.842   8.467  65.919  1.00  0.00     0.059 C  
HETATM   13  C   UNL     1      -8.431   8.343  65.354  1.00  0.00    -0.193 C  
HETATM   14  H2  UNL     1      -7.391   6.706  67.276  1.00  0.00     0.000 HD 
HETATM   15  H1  UNL     1      -7.742   5.067  67.500  1.00  0.00     0.000 HD 
HETATM   16  C   UNL     1      -8.216   6.955  64.761  1.00  0.00    -0.051 C  
HETATM   17  C   UNL     1      -9.968   6.087  66.372  1.00  0.00    -0.093 C  
HETATM   18  C   UNL     1      -8.550   5.851  65.776  1.00  0.00    -0.154 C  
ENDBRANCH   6  10
BRANCH   8  19
HETATM   19  C   UNL     1      -8.804   9.750  68.523  1.00  0.00    -0.121 C  
BRANCH  19  20
HETATM   20  C   UNL     1      -9.587  10.981  68.076  1.00  0.00    -0.175 A  
HETATM   21  C   UNL     1      -9.535  13.311  67.356  1.00  0.00    -0.218 A  
HETATM   22  C   UNL     1      -7.500  11.980  67.150  1.00  0.00    -0.138 C  
HETATM   23  N   UNL     1      -6.381  11.886  66.863  1.00  0.00    -0.141 NA 
HETATM   24  C   UNL     1      -8.890  12.076  67.516  1.00  0.00    -0.172 A  
HETATM   25  C   UNL     1     -10.868  13.465  67.736  1.00  0.00    -0.267 A  
HETATM   26  C   UNL     1     -11.586  12.369  68.208  1.00  0.00    -0.384 A  
HETATM   27  C   UNL     1     -10.961  11.127  68.345  1.00  0.00    -0.277 A  
ENDBRANCH  19  20
ENDBRANCH   8  19
TORSDOF 3
ENDMDL
MODEL      212
REMARK 921   NORMALIZED FREE ENERGY PREDICTED BY IDOCK:   -3.91 KCAL/MOL
REMARK 922        TOTAL FREE ENERGY PREDICTED BY IDOCK:   -4.91 KCAL/MOL
REMARK 923 INTER-LIGAND FREE ENERGY PREDICTED BY IDOCK:   -5.32 KCAL/MOL
REMARK 924 INTRA-LIGAND FREE ENERGY PREDICTED BY IDOCK:    0.41 KCAL/MOL
REMARK 927      BINDING AFFINITY PREDICTED BY RF-SCORE:    0.00 PKD
ROOT
HETATM    1  C   UNL     1      -9.359  11.731  66.539  1.00  0.00    -0.210 C  
HETATM    2  N   UNL     1      -9.808  10.955  67.679  1.00  0.00    -0.169 N  
HETATM    3  C   UNL     1     -11.121  11.021  68.058  1.00  0.00    -0.286 C  
HETATM    4  C   UNL     1     -11.524  10.112  69.135  1.00  0.00    -0.155 C  
HETATM    5  O   UNL     1     -11.961  11.767  67.563  1.00  0.00    -0.607 OA 
HETATM    6  C   UNL     1     -10.715   9.166  69.653  1.00  0.00    -0.225 C  
HETATM    7  O   UNL     1      -7.687  10.197  68.011  1.00  0.00    -0.088 OA 
HETATM    8  N   UNL     1      -9.393   9.160  69.172  1.00  0.00    -0.150 N  
HETATM    9  C   UNL     1      -8.889  10.124  68.285  1.00  0.00    -0.124 C  
ENDROOT
BRANCH   6  10
HETATM   10  N   UNL     1     -11.255   8.269  70.621  1.00  0.00    -0.259 NA 
HETATM   11  N   UNL     1      -9.226   8.326  72.906  1.00  0.00    -0.265 NA 
HETATM   12  C   UNL     1     -11.466   6.826  70.444  1.00  0.00    -0.365 C  
HETATM   13  C   UNL     1     -10.525   6.022  71.336  1.00  0.00    -0.282 C  
HETATM   14  H2  UNL     1      -8.820   8.043  72.014  1.00  0.00     0.000 HD 
HETATM   15  H1  UNL     1      -9.151   9.332  73.058  1.00  0.00     0.000 HD 
HETATM   16  C   UNL     1     -10.743   6.383  72.801  1.00  0.00    -0.267 C  
HETATM   17  C   UNL     1     -11.552   8.657  72.033  1.00  0.00    -0.370 C  
HETATM   18  C   UNL     1     -10.629   7.898  73.030  1.00  0.00    -0.339 C  
ENDBRANCH   6  10
BRANCH   8  19
HETATM   19  C   UNL     1      -8.508   8.000  69.305  1.00  0.00    -0.136 C  
BRANCH  19  20
HETATM   20  C   UNL     1      -7.807   7.491  68.050  1.00  0.00    -0.121 A  
HETATM   21  C   UNL     1      -7.902   6.083  66.060  1.00  0.00    -0.105 A  
HETATM   22  C   UNL     1      -9.997   6.746  67.122  1.00  0.00    -0.167 C  
HETATM   23  N   UNL     1     -11.154   6.714  67.177  1.00  0.00    -0.400 NA 
HETATM   24  C   UNL     1      -8.558   6.795  67.074  1.00  0.00    -0.114 A  
HETATM   25  C   UNL     1      -6.509   6.065  65.998  1.00  0.00    -0.046 A  
HETATM   26  C   UNL     1      -5.765   6.818  66.902  1.00  0.00    -0.014 A  
HETATM   27  C   UNL     1      -6.408   7.554  67.899  1.00  0.00    -0.053 A  
ENDBRANCH  19  20
ENDBRANCH   8  19
TORSDOF 3
ENDMDL
MODEL      213
REMARK 921   NORMALIZED FREE ENERGY PREDICTED BY IDOCK:   -3.90 KCAL/MOL
REMARK 922        TOTAL FREE ENERGY PREDICTED BY IDOCK:   -4.91 KCAL/MOL
REMARK 923 INTER-LIGAND FREE ENERGY PREDICTED BY IDOCK:   -3.70 KCAL/MOL
REMARK 924 INTRA-LIGAND FREE ENERGY PREDICTED BY IDOCK:   -1.21 KCAL/MOL
REMARK 927      BINDING AFFINITY PREDICTED BY RF-SCORE:    0.00 PKD
ROOT
HETATM    1  C   UNL     1      -5.855   4.618  65.287  1.00  0.00    -0.018 C  
HETATM    2  N   UNL     1      -6.806   5.249  66.182  1.00  0.00    -0.057 N  
HETATM    3  C   UNL     1      -7.642   4.466  66.930  1.00  0.00    -0.085 C  
HETATM    4  C   UNL     1      -8.483   5.171  67.902  1.00  0.00    -0.104 C  
HETATM    5  O   UNL     1      -7.724   3.243  66.847  1.00  0.00    -0.078 OA 
HETATM    6  C   UNL     1      -8.374   6.489  68.163  1.00  0.00    -0.116 C  
HETATM    7  O   UNL     1      -6.108   7.304  65.493  1.00  0.00    -0.036 OA 
HETATM    8  N   UNL     1      -7.463   7.200  67.360  1.00  0.00    -0.098 N  
HETATM    9  C   UNL     1      -6.769   6.624  66.284  1.00  0.00    -0.049 C  
ENDROOT
BRANCH   6  10
HETATM   10  N   UNL     1      -9.172   7.040  69.208  1.00  0.00    -0.140 NA 
HETATM   11  N   UNL     1      -9.335   4.803  71.284  1.00  0.00    -0.142 NA 
HETATM   12  C   UNL     1     -10.578   7.453  69.102  1.00  0.00    -0.204 C  
HETATM   13  C   UNL     1     -11.480   6.540  69.925  1.00  0.00    -0.467 C  
HETATM   14  H2  UNL     1      -9.687   4.528  70.367  1.00  0.00     0.000 HD 
HETATM   15  H1  UNL     1      -8.345   4.583  71.394  1.00  0.00     0.000 HD 
HETATM   16  C   UNL     1     -11.062   6.561  71.391  1.00  0.00    -0.315 C  
HETATM   17  C   UNL     1      -8.718   7.142  70.628  1.00  0.00    -0.148 C  
HETATM   18  C   UNL     1      -9.571   6.230  71.557  1.00  0.00    -0.155 C  
ENDBRANCH   6  10
BRANCH   8  19
HETATM   19  C   UNL     1      -6.924   8.507  67.742  1.00  0.00    -0.075 C  
BRANCH  19  20
HETATM   20  C   UNL     1      -7.792   9.736  67.493  1.00  0.00    -0.095 A  
HETATM   21  C   UNL     1      -9.023  11.620  68.434  1.00  0.00    -0.176 A  
HETATM   22  C   UNL     1      -7.284  10.569  69.786  1.00  0.00    -0.149 C  
HETATM   23  N   UNL     1      -6.684  10.491  70.774  1.00  0.00    -0.302 NA 
HETATM   24  C   UNL     1      -8.020  10.647  68.550  1.00  0.00    -0.122 A  
HETATM   25  C   UNL     1      -9.791  11.707  67.275  1.00  0.00    -0.203 A  
HETATM   26  C   UNL     1      -9.515  10.871  66.195  1.00  0.00    -0.230 A  
HETATM   27  C   UNL     1      -8.501   9.916  66.289  1.00  0.00    -0.133 A  
ENDBRANCH  19  20
ENDBRANCH   8  19
TORSDOF 3
ENDMDL
MODEL      214
REMARK 921   NORMALIZED FREE ENERGY PREDICTED BY IDOCK:   -3.90 KCAL/MOL
REMARK 922        TOTAL FREE ENERGY PREDICTED BY IDOCK:   -4.90 KCAL/MOL
REMARK 923 INTER-LIGAND FREE ENERGY PREDICTED BY IDOCK:   -3.94 KCAL/MOL
REMARK 924 INTRA-LIGAND FREE ENERGY PREDICTED BY IDOCK:   -0.97 KCAL/MOL
REMARK 927      BINDING AFFINITY PREDICTED BY RF-SCORE:    0.00 PKD
ROOT
HETATM    1  C   UNL     1      -8.005   6.014  65.744  1.00  0.00    -0.113 C  
HETATM    2  N   UNL     1      -8.789   6.583  66.825  1.00  0.00    -0.125 N  
HETATM    3  C   UNL     1      -8.980   5.854  67.967  1.00  0.00    -0.118 C  
HETATM    4  C   UNL     1      -9.672   6.545  69.059  1.00  0.00    -0.140 C  
HETATM    5  O   UNL     1      -8.614   4.694  68.133  1.00  0.00    -0.100 OA 
HETATM    6  C   UNL     1      -9.997   7.853  69.026  1.00  0.00    -0.187 C  
HETATM    7  O   UNL     1      -9.180   8.445  65.575  1.00  0.00    -0.120 OA 
HETATM    8  N   UNL     1      -9.728   8.521  67.816  1.00  0.00    -0.156 N  
HETATM    9  C   UNL     1      -9.247   7.874  66.668  1.00  0.00    -0.177 C  
ENDROOT
BRANCH   6  10
HETATM   10  N   UNL     1     -10.569   8.439  70.193  1.00  0.00    -0.229 NA 
HETATM   11  N   UNL     1      -9.572   6.675  72.481  1.00  0.00    -0.154 NA 
HETATM   12  C   UNL     1     -12.002   8.543  70.498  1.00  0.00     0.061 C  
HETATM   13  C   UNL     1     -12.375   7.657  71.682  1.00  0.00    -0.354 C  
HETATM   14  H2  UNL     1     -10.094   6.159  71.774  1.00  0.00     0.000 HD 
HETATM   15  H1  UNL     1      -8.569   6.677  72.289  1.00  0.00     0.000 HD 
HETATM   16  C   UNL     1     -11.571   8.052  72.916  1.00  0.00    -0.281 C  
HETATM   17  C   UNL     1      -9.764   8.909  71.361  1.00  0.00    -0.300 C  
HETATM   18  C   UNL     1     -10.062   8.055  72.628  1.00  0.00    -0.301 C  
ENDBRANCH   6  10
BRANCH   8  19
HETATM   19  C   UNL     1      -9.636   9.980  67.722  1.00  0.00    -0.148 C  
BRANCH  19  20
HETATM   20  C   UNL     1      -8.379  10.652  68.264  1.00  0.00    -0.122 A  
HETATM   21  C   UNL     1      -7.137  12.719  68.627  1.00  0.00    -0.100 A  
HETATM   22  C   UNL     1      -9.544  12.855  68.251  1.00  0.00    -0.212 C  
HETATM   23  N   UNL     1     -10.512  13.480  68.126  1.00  0.00    -0.238 NA 
HETATM   24  C   UNL     1      -8.353  12.059  68.399  1.00  0.00    -0.151 A  
HETATM   25  C   UNL     1      -5.950  11.996  68.735  1.00  0.00    -0.056 A  
HETATM   26  C   UNL     1      -5.980  10.604  68.691  1.00  0.00    -0.040 A  
HETATM   27  C   UNL     1      -7.189   9.934  68.492  1.00  0.00    -0.076 A  
ENDBRANCH  19  20
ENDBRANCH   8  19
TORSDOF 3
ENDMDL
MODEL      215
REMARK 921   NORMALIZED FREE ENERGY PREDICTED BY IDOCK:   -3.90 KCAL/MOL
REMARK 922        TOTAL FREE ENERGY PREDICTED BY IDOCK:   -4.90 KCAL/MOL
REMARK 923 INTER-LIGAND FREE ENERGY PREDICTED BY IDOCK:   -3.83 KCAL/MOL
REMARK 924 INTRA-LIGAND FREE ENERGY PREDICTED BY IDOCK:   -1.07 KCAL/MOL
REMARK 927      BINDING AFFINITY PREDICTED BY RF-SCORE:    0.00 PKD
ROOT
HETATM    1  C   UNL     1      -6.140   5.704  65.355  1.00  0.00    -0.026 C  
HETATM    2  N   UNL     1      -7.069   6.507  66.127  1.00  0.00    -0.065 N  
HETATM    3  C   UNL     1      -7.577   6.007  67.294  1.00  0.00    -0.093 C  
HETATM    4  C   UNL     1      -8.406   6.926  68.079  1.00  0.00    -0.121 C  
HETATM    5  O   UNL     1      -7.381   4.871  67.718  1.00  0.00    -0.072 OA 
HETATM    6  C   UNL     1      -8.573   8.227  67.770  1.00  0.00    -0.131 C  
HETATM    7  O   UNL     1      -6.983   8.144  64.546  1.00  0.00    -0.072 OA 
HETATM    8  N   UNL     1      -7.983   8.651  66.564  1.00  0.00    -0.098 N  
HETATM    9  C   UNL     1      -7.342   7.781  65.670  1.00  0.00    -0.073 C  
ENDROOT
BRANCH   6  10
HETATM   10  N   UNL     1      -9.314   9.047  68.670  1.00  0.00    -0.137 NA 
HETATM   11  N   UNL     1      -8.548   8.002  71.438  1.00  0.00    -0.124 NA 
HETATM   12  C   UNL     1     -10.777   9.121  68.774  1.00  0.00    -0.131 C  
HETATM   13  C   UNL     1     -11.263   8.542  70.098  1.00  0.00    -0.139 C  
HETATM   14  H2  UNL     1      -8.953   7.285  70.836  1.00  0.00     0.000 HD 
HETATM   15  H1  UNL     1      -7.530   8.027  71.367  1.00  0.00     0.000 HD 
HETATM   16  C   UNL     1     -10.641   9.295  71.268  1.00  0.00    -0.417 C  
HETATM   17  C   UNL     1      -8.686   9.857  69.759  1.00  0.00    -0.212 C  
HETATM   18  C   UNL     1      -9.108   9.334  71.162  1.00  0.00    -0.127 C  
ENDBRANCH   6  10
BRANCH   8  19
HETATM   19  C   UNL     1      -7.717  10.061  66.267  1.00  0.00    -0.105 C  
BRANCH  19  20
HETATM   20  C   UNL     1      -8.913  10.987  66.075  1.00  0.00    -0.209 A  
HETATM   21  C   UNL     1     -10.058  13.041  66.724  1.00  0.00    -0.247 A  
HETATM   22  C   UNL     1      -7.676  12.829  67.209  1.00  0.00    -0.127 C  
HETATM   23  N   UNL     1      -6.697  13.254  67.661  1.00  0.00    -0.158 NA 
HETATM   24  C   UNL     1      -8.882  12.281  66.645  1.00  0.00    -0.167 A  
HETATM   25  C   UNL     1     -11.260  12.535  66.231  1.00  0.00    -0.359 A  
HETATM   26  C   UNL     1     -11.281  11.299  65.589  1.00  0.00    -0.074 A  
HETATM   27  C   UNL     1     -10.111  10.545  65.481  1.00  0.00    -0.349 A  
ENDBRANCH  19  20
ENDBRANCH   8  19
TORSDOF 3
ENDMDL
MODEL      216
REMARK 921   NORMALIZED FREE ENERGY PREDICTED BY IDOCK:   -3.89 KCAL/MOL
REMARK 922        TOTAL FREE ENERGY PREDICTED BY IDOCK:   -4.88 KCAL/MOL
REMARK 923 INTER-LIGAND FREE ENERGY PREDICTED BY IDOCK:   -3.92 KCAL/MOL
REMARK 924 INTRA-LIGAND FREE ENERGY PREDICTED BY IDOCK:   -0.97 KCAL/MOL
REMARK 927      BINDING AFFINITY PREDICTED BY RF-SCORE:    0.00 PKD
ROOT
HETATM    1  C   UNL     1     -12.475  10.694  70.719  1.00  0.00    -0.385 C  
HETATM    2  N   UNL     1     -11.587   9.577  70.460  1.00  0.00    -0.267 N  
HETATM    3  C   UNL     1     -11.302   8.701  71.471  1.00  0.00    -0.289 C  
HETATM    4  C   UNL     1     -10.502   7.530  71.098  1.00  0.00    -0.216 C  
HETATM    5  O   UNL     1     -11.669   8.825  72.636  1.00  0.00    -0.267 OA 
HETATM    6  C   UNL     1     -10.163   7.234  69.828  1.00  0.00    -0.210 C  
HETATM    7  O   UNL     1     -11.284  10.300  68.322  1.00  0.00    -0.276 OA 
HETATM    8  N   UNL     1     -10.531   8.184  68.857  1.00  0.00    -0.209 N  
HETATM    9  C   UNL     1     -11.126   9.416  69.169  1.00  0.00    -0.013 C  
ENDROOT
BRANCH   6  10
HETATM   10  N   UNL     1      -9.476   6.009  69.578  1.00  0.00    -0.138 NA 
HETATM   11  N   UNL     1     -10.109   4.286  72.022  1.00  0.00    -0.182 NA 
HETATM   12  C   UNL     1      -8.022   5.838  69.460  1.00  0.00    -0.097 C  
HETATM   13  C   UNL     1      -7.469   5.030  70.629  1.00  0.00    -0.069 C  
HETATM   14  H2  UNL     1      -9.656   5.169  72.259  1.00  0.00     0.000 HD 
HETATM   15  H1  UNL     1     -11.126   4.362  72.040  1.00  0.00     0.000 HD 
HETATM   16  C   UNL     1      -8.131   3.658  70.688  1.00  0.00    -0.061 C  
HETATM   17  C   UNL     1     -10.150   4.676  69.547  1.00  0.00    -0.142 C  
HETATM   18  C   UNL     1      -9.663   3.773  70.717  1.00  0.00    -0.165 C  
ENDBRANCH   6  10
BRANCH   8  19
HETATM   19  C   UNL     1     -10.610   7.867  67.429  1.00  0.00    -0.272 C  
BRANCH  19  20
HETATM   20  C   UNL     1      -9.309   7.562  66.694  1.00  0.00    -0.222 A  
HETATM   21  C   UNL     1      -7.822   5.880  65.741  1.00  0.00    -0.103 A  
HETATM   22  C   UNL     1     -10.161   5.294  66.113  1.00  0.00    -0.172 C  
HETATM   23  N   UNL     1     -11.026   4.523  66.076  1.00  0.00     0.211 NA 
HETATM   24  C   UNL     1      -9.100   6.266  66.169  1.00  0.00    -0.153 A  
HETATM   25  C   UNL     1      -6.753   6.772  65.817  1.00  0.00    -0.052 A  
HETATM   26  C   UNL     1      -6.968   8.078  66.251  1.00  0.00    -0.063 A  
HETATM   27  C   UNL     1      -8.243   8.481  66.654  1.00  0.00    -0.108 A  
ENDBRANCH  19  20
ENDBRANCH   8  19
TORSDOF 3
ENDMDL
MODEL      217
REMARK 921   NORMALIZED FREE ENERGY PREDICTED BY IDOCK:   -3.88 KCAL/MOL
REMARK 922        TOTAL FREE ENERGY PREDICTED BY IDOCK:   -4.88 KCAL/MOL
REMARK 923 INTER-LIGAND FREE ENERGY PREDICTED BY IDOCK:   -4.46 KCAL/MOL
REMARK 924 INTRA-LIGAND FREE ENERGY PREDICTED BY IDOCK:   -0.42 KCAL/MOL
REMARK 927      BINDING AFFINITY PREDICTED BY RF-SCORE:    0.00 PKD
ROOT
HETATM    1  C   UNL     1      -7.556  10.141  63.563  1.00  0.00    -0.138 C  
HETATM    2  N   UNL     1      -8.018   9.260  64.619  1.00  0.00    -0.118 N  
HETATM    3  C   UNL     1      -8.039   7.909  64.402  1.00  0.00    -0.103 C  
HETATM    4  C   UNL     1      -8.396   7.080  65.556  1.00  0.00    -0.135 C  
HETATM    5  O   UNL     1      -7.778   7.363  63.333  1.00  0.00    -0.114 OA 
HETATM    6  C   UNL     1      -8.570   7.570  66.800  1.00  0.00    -0.127 C  
HETATM    7  O   UNL     1      -8.459  11.060  65.942  1.00  0.00    -0.167 OA 
HETATM    8  N   UNL     1      -8.496   8.970  66.923  1.00  0.00    -0.118 N  
HETATM    9  C   UNL     1      -8.351   9.835  65.828  1.00  0.00    -0.129 C  
ENDROOT
BRANCH   6  10
HETATM   10  N   UNL     1      -8.807   6.650  67.863  1.00  0.00    -0.116 NA 
HETATM   11  N   UNL     1      -7.425   4.081  66.951  1.00  0.00    -0.072 NA 
HETATM   12  C   UNL     1     -10.115   6.146  68.300  1.00  0.00    -0.158 C  
HETATM   13  C   UNL     1     -10.260   4.659  67.994  1.00  0.00    -0.008 C  
HETATM   14  H2  UNL     1      -8.135   4.409  66.297  1.00  0.00     0.000 HD 
HETATM   15  H1  UNL     1      -6.499   4.443  66.722  1.00  0.00     0.000 HD 
HETATM   16  C   UNL     1      -9.161   3.864  68.690  1.00  0.00    -0.193 C  
HETATM   17  C   UNL     1      -7.717   5.943  68.603  1.00  0.00    -0.094 C  
HETATM   18  C   UNL     1      -7.766   4.409  68.345  1.00  0.00    -0.075 C  
ENDBRANCH   6  10
BRANCH   8  19
HETATM   19  C   UNL     1      -8.263   9.640  68.205  1.00  0.00    -0.106 C  
BRANCH  19  20
HETATM   20  C   UNL     1      -9.207   9.319  69.359  1.00  0.00    -0.159 A  
HETATM   21  C   UNL     1     -11.285   9.830  70.529  1.00  0.00    -0.381 A  
HETATM   22  C   UNL     1     -11.040  10.559  68.214  1.00  0.00    -0.284 C  
HETATM   23  N   UNL     1     -11.454  11.105  67.279  1.00  0.00    -0.501 NA 
HETATM   24  C   UNL     1     -10.505   9.879  69.365  1.00  0.00    -0.250 A  
HETATM   25  C   UNL     1     -10.793   9.220  71.683  1.00  0.00    -0.418 A  
HETATM   26  C   UNL     1      -9.552   8.590  71.659  1.00  0.00    -0.319 A  
HETATM   27  C   UNL     1      -8.778   8.608  70.497  1.00  0.00    -0.178 A  
ENDBRANCH  19  20
ENDBRANCH   8  19
TORSDOF 3
ENDMDL
MODEL      218
REMARK 921   NORMALIZED FREE ENERGY PREDICTED BY IDOCK:   -3.86 KCAL/MOL
REMARK 922        TOTAL FREE ENERGY PREDICTED BY IDOCK:   -4.85 KCAL/MOL
REMARK 923 INTER-LIGAND FREE ENERGY PREDICTED BY IDOCK:   -5.23 KCAL/MOL
REMARK 924 INTRA-LIGAND FREE ENERGY PREDICTED BY IDOCK:    0.38 KCAL/MOL
REMARK 927      BINDING AFFINITY PREDICTED BY RF-SCORE:    0.00 PKD
ROOT
HETATM    1  C   UNL     1      -5.975  11.937  67.631  1.00  0.00    -0.084 C  
HETATM    2  N   UNL     1      -6.592  10.624  67.650  1.00  0.00    -0.061 N  
HETATM    3  C   UNL     1      -6.630   9.920  68.822  1.00  0.00    -0.046 C  
HETATM    4  C   UNL     1      -7.382   8.662  68.789  1.00  0.00    -0.083 C  
HETATM    5  O   UNL     1      -6.096  10.268  69.871  1.00  0.00    -0.047 OA 
HETATM    6  C   UNL     1      -8.111   8.257  67.731  1.00  0.00    -0.127 C  
HETATM    7  O   UNL     1      -7.001  10.773  65.414  1.00  0.00    -0.061 OA 
HETATM    8  N   UNL     1      -8.031   9.069  66.584  1.00  0.00    -0.100 N  
HETATM    9  C   UNL     1      -7.179  10.180  66.483  1.00  0.00    -0.104 C  
ENDROOT
BRANCH   6  10
HETATM   10  N   UNL     1      -8.888   7.068  67.858  1.00  0.00    -0.124 NA 
HETATM   11  N   UNL     1      -8.802   5.817  65.071  1.00  0.00    -0.345 NA 
HETATM   12  C   UNL     1     -10.321   6.997  68.173  1.00  0.00    -0.191 C  
HETATM   13  C   UNL     1     -11.120   6.486  66.979  1.00  0.00    -0.411 C  
HETATM   14  H2  UNL     1      -9.182   6.764  65.075  1.00  0.00     0.000 HD 
HETATM   15  H1  UNL     1      -7.795   5.811  64.905  1.00  0.00     0.000 HD 
HETATM   16  C   UNL     1     -10.630   5.103  66.564  1.00  0.00    -0.320 C  
HETATM   17  C   UNL     1      -8.370   5.704  67.537  1.00  0.00    -0.100 C  
HETATM   18  C   UNL     1      -9.115   5.094  66.314  1.00  0.00    -0.136 C  
ENDBRANCH   6  10
BRANCH   8  19
HETATM   19  C   UNL     1      -9.026   9.023  65.511  1.00  0.00    -0.204 C  
BRANCH  19  20
HETATM   20  C   UNL     1      -9.663  10.337  65.072  1.00  0.00    -0.370 A  
HETATM   21  C   UNL     1     -11.410  12.003  65.424  1.00  0.00    -0.375 A  
HETATM   22  C   UNL     1     -10.833  10.509  67.266  1.00  0.00    -0.279 C  
HETATM   23  N   UNL     1     -10.999  10.133  68.349  1.00  0.00    -0.251 NA 
HETATM   24  C   UNL     1     -10.613  10.959  65.915  1.00  0.00    -0.244 A  
HETATM   25  C   UNL     1     -11.264  12.444  64.110  1.00  0.00    -0.434 A  
HETATM   26  C   UNL     1     -10.272  11.897  63.301  1.00  0.00    -0.428 A  
HETATM   27  C   UNL     1      -9.454  10.875  63.788  1.00  0.00    -0.308 A  
ENDBRANCH  19  20
ENDBRANCH   8  19
TORSDOF 3
ENDMDL
MODEL      219
REMARK 921   NORMALIZED FREE ENERGY PREDICTED BY IDOCK:   -3.83 KCAL/MOL
REMARK 922        TOTAL FREE ENERGY PREDICTED BY IDOCK:   -4.82 KCAL/MOL
REMARK 923 INTER-LIGAND FREE ENERGY PREDICTED BY IDOCK:   -5.10 KCAL/MOL
REMARK 924 INTRA-LIGAND FREE ENERGY PREDICTED BY IDOCK:    0.28 KCAL/MOL
REMARK 927      BINDING AFFINITY PREDICTED BY RF-SCORE:    0.00 PKD
ROOT
HETATM    1  C   UNL     1      -7.471   8.355  63.853  1.00  0.00    -0.116 C  
HETATM    2  N   UNL     1      -7.416   9.311  64.942  1.00  0.00    -0.104 N  
HETATM    3  C   UNL     1      -6.214   9.870  65.282  1.00  0.00    -0.093 C  
HETATM    4  C   UNL     1      -6.261  10.919  66.304  1.00  0.00    -0.134 C  
HETATM    5  O   UNL     1      -5.130   9.562  64.792  1.00  0.00    -0.046 OA 
HETATM    6  C   UNL     1      -7.407  11.420  66.805  1.00  0.00    -0.135 C  
HETATM    7  O   UNL     1      -9.646   9.038  65.310  1.00  0.00    -0.142 OA 
HETATM    8  N   UNL     1      -8.591  10.798  66.368  1.00  0.00    -0.152 N  
HETATM    9  C   UNL     1      -8.607   9.664  65.541  1.00  0.00    -0.147 C  
ENDROOT
BRANCH   6  10
HETATM   10  N   UNL     1      -7.327  12.516  67.714  1.00  0.00    -0.110 NA 
HETATM   11  N   UNL     1      -8.886  14.751  66.330  1.00  0.00    -0.470 NA 
HETATM   12  C   UNL     1      -6.103  13.216  68.125  1.00  0.00    -0.103 C  
HETATM   13  C   UNL     1      -6.081  14.643  67.588  1.00  0.00    -0.078 C  
HETATM   14  H2  UNL     1      -8.107  14.399  65.773  1.00  0.00     0.000 HD 
HETATM   15  H1  UNL     1      -9.757  14.262  66.119  1.00  0.00     0.000 HD 
HETATM   16  C   UNL     1      -7.293  15.419  68.091  1.00  0.00    -0.122 C  
HETATM   17  C   UNL     1      -8.524  13.213  68.276  1.00  0.00    -0.161 C  
HETATM   18  C   UNL     1      -8.604  14.684  67.773  1.00  0.00    -0.173 C  
ENDBRANCH   6  10
BRANCH   8  19
HETATM   19  C   UNL     1      -9.906  11.434  66.478  1.00  0.00    -0.208 C  
BRANCH  19  20
HETATM   20  C   UNL     1     -10.749  11.119  67.709  1.00  0.00    -0.267 A  
HETATM   21  C   UNL     1     -12.172  11.956  69.504  1.00  0.00    -0.197 A  
HETATM   22  C   UNL     1     -11.870  13.337  67.515  1.00  0.00    -0.358 C  
HETATM   23  N   UNL     1     -12.071  14.314  66.926  1.00  0.00    -0.440 NA 
HETATM   24  C   UNL     1     -11.604  12.116  68.233  1.00  0.00    -0.382 A  
HETATM   25  C   UNL     1     -11.910  10.811  70.255  1.00  0.00    -0.438 A  
HETATM   26  C   UNL     1     -11.140   9.786  69.712  1.00  0.00    -0.272 A  
HETATM   27  C   UNL     1     -10.592   9.923  68.434  1.00  0.00    -0.258 A  
ENDBRANCH  19  20
ENDBRANCH   8  19
TORSDOF 3
ENDMDL
MODEL      220
REMARK 921   NORMALIZED FREE ENERGY PREDICTED BY IDOCK:   -3.81 KCAL/MOL
REMARK 922        TOTAL FREE ENERGY PREDICTED BY IDOCK:   -4.80 KCAL/MOL
REMARK 923 INTER-LIGAND FREE ENERGY PREDICTED BY IDOCK:   -3.85 KCAL/MOL
REMARK 924 INTRA-LIGAND FREE ENERGY PREDICTED BY IDOCK:   -0.95 KCAL/MOL
REMARK 927      BINDING AFFINITY PREDICTED BY RF-SCORE:    0.00 PKD
ROOT
HETATM    1  C   UNL     1     -10.542   6.983  72.426  1.00  0.00    -0.223 C  
HETATM    2  N   UNL     1      -9.949   7.944  71.516  1.00  0.00    -0.170 N  
HETATM    3  C   UNL     1      -8.812   8.606  71.891  1.00  0.00    -0.205 C  
HETATM    4  C   UNL     1      -8.204   9.463  70.869  1.00  0.00    -0.103 C  
HETATM    5  O   UNL     1      -8.280   8.524  72.994  1.00  0.00    -0.357 OA 
HETATM    6  C   UNL     1      -8.632   9.520  69.593  1.00  0.00    -0.183 C  
HETATM    7  O   UNL     1     -11.634   7.589  70.026  1.00  0.00    -0.112 OA 
HETATM    8  N   UNL     1      -9.791   8.777  69.301  1.00  0.00    -0.176 N  
HETATM    9  C   UNL     1     -10.534   8.091  70.275  1.00  0.00    -0.222 C  
ENDROOT
BRANCH   6  10
HETATM   10  N   UNL     1      -7.892  10.308  68.663  1.00  0.00    -0.096 NA 
HETATM   11  N   UNL     1      -5.233  10.830  70.078  1.00  0.00    -0.043 NA 
HETATM   12  C   UNL     1      -8.246  11.652  68.188  1.00  0.00    -0.151 C  
HETATM   13  C   UNL     1      -7.257  12.693  68.701  1.00  0.00    -0.108 C  
HETATM   14  H2  UNL     1      -6.041  11.160  70.606  1.00  0.00     0.000 HD 
HETATM   15  H1  UNL     1      -4.973   9.877  70.335  1.00  0.00     0.000 HD 
HETATM   16  C   UNL     1      -5.843  12.356  68.239  1.00  0.00    -0.059 C  
HETATM   17  C   UNL     1      -6.544   9.924  68.144  1.00  0.00    -0.056 C  
HETATM   18  C   UNL     1      -5.451  10.922  68.626  1.00  0.00    -0.040 C  
ENDBRANCH   6  10
BRANCH   8  19
HETATM   19  C   UNL     1     -10.167   8.398  67.937  1.00  0.00    -0.217 C  
BRANCH  19  20
HETATM   20  C   UNL     1      -9.084   7.816  67.035  1.00  0.00    -0.162 A  
HETATM   21  C   UNL     1      -8.154   7.621  64.789  1.00  0.00    -0.121 A  
HETATM   22  C   UNL     1      -9.633   9.498  65.280  1.00  0.00    -0.243 C  
HETATM   23  N   UNL     1     -10.199  10.452  64.943  1.00  0.00    -0.319 NA 
HETATM   24  C   UNL     1      -8.940   8.314  65.720  1.00  0.00    -0.185 A  
HETATM   25  C   UNL     1      -7.499   6.446  65.155  1.00  0.00    -0.083 A  
HETATM   26  C   UNL     1      -7.564   5.996  66.471  1.00  0.00    -0.094 A  
HETATM   27  C   UNL     1      -8.322   6.694  67.413  1.00  0.00    -0.121 A  
ENDBRANCH  19  20
ENDBRANCH   8  19
TORSDOF 3
ENDMDL
MODEL      221
REMARK 921   NORMALIZED FREE ENERGY PREDICTED BY IDOCK:   -3.80 KCAL/MOL
REMARK 922        TOTAL FREE ENERGY PREDICTED BY IDOCK:   -4.79 KCAL/MOL
REMARK 923 INTER-LIGAND FREE ENERGY PREDICTED BY IDOCK:   -4.17 KCAL/MOL
REMARK 924 INTRA-LIGAND FREE ENERGY PREDICTED BY IDOCK:   -0.62 KCAL/MOL
REMARK 927      BINDING AFFINITY PREDICTED BY RF-SCORE:    0.00 PKD
ROOT
HETATM    1  C   UNL     1     -11.219  12.579  68.597  1.00  0.00    -0.278 C  
HETATM    2  N   UNL     1     -10.612  11.275  68.407  1.00  0.00    -0.187 N  
HETATM    3  C   UNL     1     -10.224  10.896  67.152  1.00  0.00    -0.210 C  
HETATM    4  C   UNL     1      -9.504   9.622  67.061  1.00  0.00    -0.195 C  
HETATM    5  O   UNL     1     -10.427  11.540  66.126  1.00  0.00    -0.236 OA 
HETATM    6  C   UNL     1      -9.117   8.907  68.136  1.00  0.00    -0.140 C  
HETATM    7  O   UNL     1     -10.884  10.814  70.620  1.00  0.00     0.040 OA 
HETATM    8  N   UNL     1      -9.540   9.400  69.385  1.00  0.00    -0.166 N  
HETATM    9  C   UNL     1     -10.393  10.505  69.530  1.00  0.00    -0.221 C  
ENDROOT
BRANCH   6  10
HETATM   10  N   UNL     1      -8.327   7.739  67.925  1.00  0.00    -0.122 NA 
HETATM   11  N   UNL     1     -10.330   5.438  68.111  1.00  0.00    -0.168 NA 
HETATM   12  C   UNL     1      -7.240   7.259  68.788  1.00  0.00    -0.090 C  
HETATM   13  C   UNL     1      -7.623   5.953  69.477  1.00  0.00    -0.088 C  
HETATM   14  H2  UNL     1     -10.302   6.015  68.951  1.00  0.00     0.000 HD 
HETATM   15  H1  UNL     1     -11.039   5.760  67.451  1.00  0.00     0.000 HD 
HETATM   16  C   UNL     1      -7.951   4.882  68.442  1.00  0.00    -0.085 C  
HETATM   17  C   UNL     1      -8.601   6.740  66.848  1.00  0.00    -0.116 C  
HETATM   18  C   UNL     1      -9.018   5.366  67.449  1.00  0.00    -0.108 C  
ENDBRANCH   6  10
BRANCH   8  19
HETATM   19  C   UNL     1      -8.906   9.009  70.646  1.00  0.00    -0.219 C  
BRANCH  19  20
HETATM   20  C   UNL     1      -9.593   7.939  71.487  1.00  0.00    -0.189 A  
HETATM   21  C   UNL     1      -9.383   6.184  73.169  1.00  0.00    -0.138 A  
HETATM   22  C   UNL     1      -7.632   7.878  73.023  1.00  0.00    -0.120 C  
HETATM   23  N   UNL     1      -6.620   8.316  73.381  1.00  0.00    -0.109 NA 
HETATM   24  C   UNL     1      -8.889   7.348  72.562  1.00  0.00    -0.159 A  
HETATM   25  C   UNL     1     -10.574   5.609  72.728  1.00  0.00    -0.266 A  
HETATM   26  C   UNL     1     -11.318   6.233  71.730  1.00  0.00    -0.346 A  
HETATM   27  C   UNL     1     -10.850   7.408  71.137  1.00  0.00    -0.258 A  
ENDBRANCH  19  20
ENDBRANCH   8  19
TORSDOF 3
ENDMDL
MODEL      222
REMARK 921   NORMALIZED FREE ENERGY PREDICTED BY IDOCK:   -3.80 KCAL/MOL
REMARK 922        TOTAL FREE ENERGY PREDICTED BY IDOCK:   -4.79 KCAL/MOL
REMARK 923 INTER-LIGAND FREE ENERGY PREDICTED BY IDOCK:   -3.90 KCAL/MOL
REMARK 924 INTRA-LIGAND FREE ENERGY PREDICTED BY IDOCK:   -0.89 KCAL/MOL
REMARK 927      BINDING AFFINITY PREDICTED BY RF-SCORE:    0.00 PKD
ROOT
HETATM    1  C   UNL     1      -9.396   9.717  68.345  1.00  0.00    -0.133 C  
HETATM    2  N   UNL     1      -9.939  11.028  68.042  1.00  0.00    -0.169 N  
HETATM    3  C   UNL     1     -11.120  11.411  68.616  1.00  0.00    -0.236 C  
HETATM    4  C   UNL     1     -11.537  12.794  68.361  1.00  0.00    -0.365 C  
HETATM    5  O   UNL     1     -11.829  10.694  69.316  1.00  0.00    -0.282 OA 
HETATM    6  C   UNL     1     -10.770  13.697  67.719  1.00  0.00    -0.246 C  
HETATM    7  O   UNL     1      -8.206  11.428  66.620  1.00  0.00    -0.159 OA 
HETATM    8  N   UNL     1      -9.558  13.209  67.195  1.00  0.00    -0.228 N  
HETATM    9  C   UNL     1      -9.189  11.856  67.233  1.00  0.00    -0.179 C  
ENDROOT
BRANCH   6  10
HETATM   10  N   UNL     1     -11.237  15.041  67.629  1.00  0.00    -0.317 NA 
HETATM   11  N   UNL     1      -9.908  16.126  65.101  1.00  0.00    -0.330 NA 
HETATM   12  C   UNL     1     -10.973  16.118  68.592  1.00  0.00    -0.336 C  
HETATM   13  C   UNL     1     -10.076  17.190  67.981  1.00  0.00    -0.311 C  
HETATM   14  H2  UNL     1      -9.239  15.788  65.793  1.00  0.00     0.000 HD 
HETATM   15  H1  UNL     1     -10.166  15.400  64.432  1.00  0.00     0.000 HD 
HETATM   16  C   UNL     1     -10.726  17.781  66.736  1.00  0.00    -0.142 C  
HETATM   17  C   UNL     1     -11.957  15.587  66.439  1.00  0.00     0.606 C  
HETATM   18  C   UNL     1     -11.114  16.687  65.730  1.00  0.00     0.168 C  
ENDBRANCH   6  10
BRANCH   8  19
HETATM   19  C   UNL     1      -8.443  14.088  66.832  1.00  0.00    -0.078 C  
BRANCH  19  20
HETATM   20  C   UNL     1      -7.449  14.466  67.925  1.00  0.00    -0.160 A  
HETATM   21  C   UNL     1      -5.550  15.838  68.602  1.00  0.00    -0.102 A  
HETATM   22  C   UNL     1      -6.901  16.569  66.706  1.00  0.00    -0.190 C  
HETATM   23  N   UNL     1      -7.115  17.321  65.850  1.00  0.00    -0.247 NA 
HETATM   24  C   UNL     1      -6.651  15.621  67.762  1.00  0.00    -0.183 A  
HETATM   25  C   UNL     1      -5.241  14.926  69.611  1.00  0.00    -0.089 A  
HETATM   26  C   UNL     1      -6.073  13.832  69.834  1.00  0.00    -0.140 A  
HETATM   27  C   UNL     1      -7.188  13.621  69.021  1.00  0.00    -0.049 A  
ENDBRANCH  19  20
ENDBRANCH   8  19
TORSDOF 3
ENDMDL
MODEL      223
REMARK 921   NORMALIZED FREE ENERGY PREDICTED BY IDOCK:   -3.80 KCAL/MOL
REMARK 922        TOTAL FREE ENERGY PREDICTED BY IDOCK:   -4.79 KCAL/MOL
REMARK 923 INTER-LIGAND FREE ENERGY PREDICTED BY IDOCK:   -5.40 KCAL/MOL
REMARK 924 INTRA-LIGAND FREE ENERGY PREDICTED BY IDOCK:    0.61 KCAL/MOL
REMARK 927      BINDING AFFINITY PREDICTED BY RF-SCORE:    0.00 PKD
ROOT
HETATM    1  C   UNL     1     -13.125  15.308  71.060  1.00  0.00    -0.482 C  
HETATM    2  N   UNL     1     -12.300  14.226  70.557  1.00  0.00    -0.338 N  
HETATM    3  C   UNL     1     -12.739  12.936  70.684  1.00  0.00    -0.081 C  
HETATM    4  C   UNL     1     -11.913  11.912  70.039  1.00  0.00    -0.409 C  
HETATM    5  O   UNL     1     -13.755  12.593  71.282  1.00  0.00     0.292 OA 
HETATM    6  C   UNL     1     -10.857  12.194  69.251  1.00  0.00    -0.051 C  
HETATM    7  O   UNL     1     -10.699  15.720  69.934  1.00  0.00    -0.276 OA 
HETATM    8  N   UNL     1     -10.506  13.554  69.159  1.00  0.00    -0.049 N  
HETATM    9  C   UNL     1     -11.133  14.565  69.904  1.00  0.00    -0.163 C  
ENDROOT
BRANCH   6  10
HETATM   10  N   UNL     1     -10.198  11.116  68.590  1.00  0.00    -0.198 NA 
HETATM   11  N   UNL     1     -11.436   8.611  69.826  1.00  0.00    -0.432 NA 
HETATM   12  C   UNL     1      -8.764  10.804  68.655  1.00  0.00    -0.152 C  
HETATM   13  C   UNL     1      -8.521   9.496  69.400  1.00  0.00    -0.146 C  
HETATM   14  H2  UNL     1     -11.000   9.225  70.514  1.00  0.00     0.000 HD 
HETATM   15  H1  UNL     1     -12.427   8.818  69.704  1.00  0.00     0.000 HD 
HETATM   16  C   UNL     1      -9.251   8.349  68.711  1.00  0.00    -0.143 C  
HETATM   17  C   UNL     1     -10.918  10.044  67.837  1.00  0.00    -0.252 C  
HETATM   18  C   UNL     1     -10.745   8.660  68.528  1.00  0.00    -0.043 C  
ENDBRANCH   6  10
BRANCH   8  19
HETATM   19  C   UNL     1      -9.675  14.085  68.076  1.00  0.00    -0.221 C  
BRANCH  19  20
HETATM   20  C   UNL     1     -10.304  15.097  67.125  1.00  0.00    -0.263 A  
HETATM   21  C   UNL     1     -11.588  15.496  65.090  1.00  0.00    -0.060 A  
HETATM   22  C   UNL     1     -11.730  13.302  66.149  1.00  0.00    -0.374 C  
HETATM   23  N   UNL     1     -12.135  12.216  66.169  1.00  0.00    -0.590 NA 
HETATM   24  C   UNL     1     -11.213  14.646  66.140  1.00  0.00    -0.341 A  
HETATM   25  C   UNL     1     -11.080  16.792  65.014  1.00  0.00    -0.063 A  
HETATM   26  C   UNL     1     -10.254  17.273  66.027  1.00  0.00    -0.314 A  
HETATM   27  C   UNL     1      -9.896  16.444  67.093  1.00  0.00    -0.249 A  
ENDBRANCH  19  20
ENDBRANCH   8  19
TORSDOF 3
ENDMDL
MODEL      224
REMARK 921   NORMALIZED FREE ENERGY PREDICTED BY IDOCK:   -3.78 KCAL/MOL
REMARK 922        TOTAL FREE ENERGY PREDICTED BY IDOCK:   -4.76 KCAL/MOL
REMARK 923 INTER-LIGAND FREE ENERGY PREDICTED BY IDOCK:   -4.86 KCAL/MOL
REMARK 924 INTRA-LIGAND FREE ENERGY PREDICTED BY IDOCK:    0.09 KCAL/MOL
REMARK 927      BINDING AFFINITY PREDICTED BY RF-SCORE:    0.00 PKD
ROOT
HETATM    1  C   UNL     1     -11.773  14.229  66.575  1.00  0.00    -0.394 C  
HETATM    2  N   UNL     1     -10.587  13.457  66.894  1.00  0.00    -0.271 N  
HETATM    3  C   UNL     1      -9.471  14.103  67.349  1.00  0.00    -0.220 C  
HETATM    4  C   UNL     1      -8.360  13.245  67.770  1.00  0.00    -0.171 C  
HETATM    5  O   UNL     1      -9.347  15.322  67.433  1.00  0.00    -0.195 OA 
HETATM    6  C   UNL     1      -8.442  11.902  67.842  1.00  0.00    -0.154 C  
HETATM    7  O   UNL     1     -11.640  11.548  66.236  1.00  0.00    -0.382 OA 
HETATM    8  N   UNL     1      -9.645  11.336  67.380  1.00  0.00    -0.169 N  
HETATM    9  C   UNL     1     -10.672  12.084  66.785  1.00  0.00    -0.243 C  
ENDROOT
BRANCH   6  10
HETATM   10  N   UNL     1      -7.331  11.182  68.371  1.00  0.00    -0.088 NA 
HETATM   11  N   UNL     1      -8.439   9.831  70.878  1.00  0.00    -0.350 NA 
HETATM   12  C   UNL     1      -6.079  11.764  68.874  1.00  0.00    -0.054 C  
HETATM   13  C   UNL     1      -5.953  11.571  70.381  1.00  0.00    -0.138 C  
HETATM   14  H2  UNL     1      -8.535  10.846  70.893  1.00  0.00     0.000 HD 
HETATM   15  H1  UNL     1      -9.266   9.375  70.490  1.00  0.00     0.000 HD 
HETATM   16  C   UNL     1      -5.991  10.088  70.733  1.00  0.00    -0.095 C  
HETATM   17  C   UNL     1      -7.346   9.709  68.627  1.00  0.00    -0.074 C  
HETATM   18  C   UNL     1      -7.235   9.402  70.148  1.00  0.00    -0.096 C  
ENDBRANCH   6  10
BRANCH   8  19
HETATM   19  C   UNL     1     -10.071   9.980  67.738  1.00  0.00    -0.183 C  
BRANCH  19  20
HETATM   20  C   UNL     1      -9.680   8.840  66.804  1.00  0.00    -0.286 A  
HETATM   21  C   UNL     1      -9.180   6.468  66.540  1.00  0.00    -0.179 A  
HETATM   22  C   UNL     1     -10.453   7.181  68.495  1.00  0.00    -0.204 C  
HETATM   23  N   UNL     1     -10.993   6.938  69.491  1.00  0.00    -0.256 NA 
HETATM   24  C   UNL     1      -9.784   7.506  67.261  1.00  0.00    -0.217 A  
HETATM   25  C   UNL     1      -8.484   6.738  65.362  1.00  0.00    -0.102 A  
HETATM   26  C   UNL     1      -8.451   8.036  64.859  1.00  0.00    -0.066 A  
HETATM   27  C   UNL     1      -9.073   9.074  65.555  1.00  0.00    -0.271 A  
ENDBRANCH  19  20
ENDBRANCH   8  19
TORSDOF 3
ENDMDL
MODEL      225
REMARK 921   NORMALIZED FREE ENERGY PREDICTED BY IDOCK:   -3.78 KCAL/MOL
REMARK 922        TOTAL FREE ENERGY PREDICTED BY IDOCK:   -4.76 KCAL/MOL
REMARK 923 INTER-LIGAND FREE ENERGY PREDICTED BY IDOCK:   -3.84 KCAL/MOL
REMARK 924 INTRA-LIGAND FREE ENERGY PREDICTED BY IDOCK:   -0.92 KCAL/MOL
REMARK 927      BINDING AFFINITY PREDICTED BY RF-SCORE:    0.00 PKD
ROOT
HETATM    1  C   UNL     1     -12.381   8.600  72.630  1.00  0.00    -0.212 C  
HETATM    2  N   UNL     1     -11.578   7.609  71.939  1.00  0.00    -0.270 N  
HETATM    3  C   UNL     1     -12.115   6.935  70.877  1.00  0.00    -0.373 C  
HETATM    4  C   UNL     1     -11.201   6.046  70.154  1.00  0.00    -0.412 C  
HETATM    5  O   UNL     1     -13.279   7.031  70.497  1.00  0.00     0.127 OA 
HETATM    6  C   UNL     1      -9.879   5.970  70.407  1.00  0.00    -0.179 C  
HETATM    7  O   UNL     1      -9.867   7.962  73.400  1.00  0.00    -0.304 OA 
HETATM    8  N   UNL     1      -9.420   6.728  71.501  1.00  0.00    -0.157 N  
HETATM    9  C   UNL     1     -10.272   7.447  72.353  1.00  0.00    -0.199 C  
ENDROOT
BRANCH   6  10
HETATM   10  N   UNL     1      -9.074   5.150  69.564  1.00  0.00    -0.105 NA 
HETATM   11  N   UNL     1     -10.422   5.339  66.828  1.00  0.00    -0.270 NA 
HETATM   12  C   UNL     1      -8.872   3.701  69.698  1.00  0.00    -0.089 C  
HETATM   13  C   UNL     1      -9.516   2.949  68.538  1.00  0.00    -0.200 C  
HETATM   14  H2  UNL     1     -11.043   4.990  67.558  1.00  0.00     0.000 HD 
HETATM   15  H1  UNL     1     -10.486   6.352  66.725  1.00  0.00     0.000 HD 
HETATM   16  C   UNL     1      -8.928   3.415  67.211  1.00  0.00    -0.172 C  
HETATM   17  C   UNL     1      -8.424   5.640  68.310  1.00  0.00    -0.105 C  
HETATM   18  C   UNL     1      -9.024   4.940  67.056  1.00  0.00    -0.109 C  
ENDBRANCH   6  10
BRANCH   8  19
HETATM   19  C   UNL     1      -8.011   7.084  71.681  1.00  0.00    -0.099 C  
BRANCH  19  20
HETATM   20  C   UNL     1      -7.212   6.324  72.735  1.00  0.00    -0.087 A  
HETATM   21  C   UNL     1      -5.205   6.205  74.114  1.00  0.00    -0.037 A  
HETATM   22  C   UNL     1      -5.862   8.367  73.193  1.00  0.00    -0.075 C  
HETATM   23  N   UNL     1      -5.672   9.501  73.048  1.00  0.00    -0.303 NA 
HETATM   24  C   UNL     1      -6.114   6.959  73.359  1.00  0.00    -0.058 A  
HETATM   25  C   UNL     1      -5.382   4.831  74.267  1.00  0.00    -0.013 A  
HETATM   26  C   UNL     1      -6.508   4.213  73.729  1.00  0.00    -0.050 A  
HETATM   27  C   UNL     1      -7.435   4.959  72.998  1.00  0.00    -0.091 A  
ENDBRANCH  19  20
ENDBRANCH   8  19
TORSDOF 3
ENDMDL
MODEL      226
REMARK 921   NORMALIZED FREE ENERGY PREDICTED BY IDOCK:   -3.76 KCAL/MOL
REMARK 922        TOTAL FREE ENERGY PREDICTED BY IDOCK:   -4.74 KCAL/MOL
REMARK 923 INTER-LIGAND FREE ENERGY PREDICTED BY IDOCK:   -3.98 KCAL/MOL
REMARK 924 INTRA-LIGAND FREE ENERGY PREDICTED BY IDOCK:   -0.76 KCAL/MOL
REMARK 927      BINDING AFFINITY PREDICTED BY RF-SCORE:    0.00 PKD
ROOT
HETATM    1  C   UNL     1     -12.237  16.004  68.819  1.00  0.00     0.287 C  
HETATM    2  N   UNL     1     -10.870  15.538  68.959  1.00  0.00    -0.236 N  
HETATM    3  C   UNL     1     -10.637  14.207  69.173  1.00  0.00    -0.158 C  
HETATM    4  C   UNL     1      -9.230  13.796  69.176  1.00  0.00     0.394 C  
HETATM    5  O   UNL     1     -11.507  13.358  69.350  1.00  0.00    -0.272 OA 
HETATM    6  C   UNL     1      -8.212  14.621  68.862  1.00  0.00    -0.145 C  
HETATM    7  O   UNL     1     -10.108  17.673  68.751  1.00  0.00    -0.348 OA 
HETATM    8  N   UNL     1      -8.561  15.964  68.627  1.00  0.00    -0.186 N  
HETATM    9  C   UNL     1      -9.861  16.464  68.798  1.00  0.00    -0.250 C  
ENDROOT
BRANCH   6  10
HETATM   10  N   UNL     1      -6.896  14.077  68.793  1.00  0.00    -0.097 NA 
HETATM   11  N   UNL     1      -7.137  11.788  66.782  1.00  0.00    -0.328 NA 
HETATM   12  C   UNL     1      -6.163  13.434  69.892  1.00  0.00    -0.102 C  
HETATM   13  C   UNL     1      -5.975  11.944  69.626  1.00  0.00    -0.114 C  
HETATM   14  H2  UNL     1      -7.765  11.691  67.580  1.00  0.00     0.000 HD 
HETATM   15  H1  UNL     1      -7.581  12.276  66.004  1.00  0.00     0.000 HD 
HETATM   16  C   UNL     1      -5.212  11.729  68.324  1.00  0.00    -0.043 C  
HETATM   17  C   UNL     1      -6.118  13.955  67.523  1.00  0.00     0.033 C  
HETATM   18  C   UNL     1      -5.881  12.462  67.151  1.00  0.00    -0.070 C  
ENDBRANCH   6  10
BRANCH   8  19
HETATM   19  C   UNL     1      -7.690  16.893  67.904  1.00  0.00    -0.173 C  
BRANCH  19  20
HETATM   20  C   UNL     1      -6.994  17.988  68.706  1.00  0.00    -0.264 A  
HETATM   21  C   UNL     1      -6.164  20.280  68.782  1.00  0.00    -0.352 A  
HETATM   22  C   UNL     1      -7.860  19.707  67.124  1.00  0.00    -0.268 C  
HETATM   23  N   UNL     1      -8.543  20.003  66.236  1.00  0.00    -0.324 NA 
HETATM   24  C   UNL     1      -7.017  19.317  68.225  1.00  0.00    -0.306 A  
HETATM   25  C   UNL     1      -5.299  19.940  69.821  1.00  0.00    -0.243 A  
HETATM   26  C   UNL     1      -5.332  18.656  70.359  1.00  0.00    -0.237 A  
HETATM   27  C   UNL     1      -6.197  17.696  69.830  1.00  0.00    -0.178 A  
ENDBRANCH  19  20
ENDBRANCH   8  19
TORSDOF 3
ENDMDL
MODEL      227
REMARK 921   NORMALIZED FREE ENERGY PREDICTED BY IDOCK:   -3.75 KCAL/MOL
REMARK 922        TOTAL FREE ENERGY PREDICTED BY IDOCK:   -4.72 KCAL/MOL
REMARK 923 INTER-LIGAND FREE ENERGY PREDICTED BY IDOCK:   -5.04 KCAL/MOL
REMARK 924 INTRA-LIGAND FREE ENERGY PREDICTED BY IDOCK:    0.32 KCAL/MOL
REMARK 927      BINDING AFFINITY PREDICTED BY RF-SCORE:    0.00 PKD
ROOT
HETATM    1  C   UNL     1      -7.095   7.081  70.512  1.00  0.00    -0.064 C  
HETATM    2  N   UNL     1      -8.148   7.965  70.051  1.00  0.00    -0.115 N  
HETATM    3  C   UNL     1      -8.013   9.315  70.227  1.00  0.00    -0.146 C  
HETATM    4  C   UNL     1      -9.056  10.148  69.622  1.00  0.00    -0.195 C  
HETATM    5  O   UNL     1      -7.095   9.858  70.837  1.00  0.00    -0.323 OA 
HETATM    6  C   UNL     1     -10.029   9.662  68.826  1.00  0.00    -0.173 C  
HETATM    7  O   UNL     1      -9.374   6.170  69.374  1.00  0.00    -0.138 OA 
HETATM    8  N   UNL     1     -10.062   8.263  68.683  1.00  0.00    -0.192 N  
HETATM    9  C   UNL     1      -9.214   7.394  69.387  1.00  0.00    -0.145 C  
ENDROOT
BRANCH   6  10
HETATM   10  N   UNL     1     -10.922  10.585  68.207  1.00  0.00    -0.243 NA 
HETATM   11  N   UNL     1      -9.125  12.906  67.354  1.00  0.00    -0.188 NA 
HETATM   12  C   UNL     1     -12.032  11.292  68.861  1.00  0.00    -0.310 C  
HETATM   13  C   UNL     1     -11.752  12.788  68.950  1.00  0.00    -0.370 C  
HETATM   14  H2  UNL     1      -9.088  12.716  68.356  1.00  0.00     0.000 HD 
HETATM   15  H1  UNL     1      -8.403  12.399  66.842  1.00  0.00     0.000 HD 
HETATM   16  C   UNL     1     -11.538  13.373  67.559  1.00  0.00    -0.382 C  
HETATM   17  C   UNL     1     -10.756  11.084  66.808  1.00  0.00    -0.266 C  
HETATM   18  C   UNL     1     -10.450  12.610  66.788  1.00  0.00    -0.240 C  
ENDBRANCH   6  10
BRANCH   8  19
HETATM   19  C   UNL     1     -10.762   7.596  67.582  1.00  0.00    -0.175 C  
BRANCH  19  20
HETATM   20  C   UNL     1      -9.993   6.557  66.774  1.00  0.00    -0.224 A  
HETATM   21  C   UNL     1      -8.389   6.099  64.994  1.00  0.00    -0.112 A  
HETATM   22  C   UNL     1      -8.401   8.316  66.012  1.00  0.00    -0.128 C  
HETATM   23  N   UNL     1      -7.993   9.399  66.076  1.00  0.00    -0.109 NA 
HETATM   24  C   UNL     1      -8.926   6.976  65.946  1.00  0.00    -0.092 A  
HETATM   25  C   UNL     1      -8.892   4.805  64.863  1.00  0.00    -0.153 A  
HETATM   26  C   UNL     1      -9.883   4.356  65.732  1.00  0.00    -0.232 A  
HETATM   27  C   UNL     1     -10.406   5.212  66.703  1.00  0.00    -0.325 A  
ENDBRANCH  19  20
ENDBRANCH   8  19
TORSDOF 3
ENDMDL
MODEL      228
REMARK 921   NORMALIZED FREE ENERGY PREDICTED BY IDOCK:   -3.72 KCAL/MOL
REMARK 922        TOTAL FREE ENERGY PREDICTED BY IDOCK:   -4.69 KCAL/MOL
REMARK 923 INTER-LIGAND FREE ENERGY PREDICTED BY IDOCK:   -5.17 KCAL/MOL
REMARK 924 INTRA-LIGAND FREE ENERGY PREDICTED BY IDOCK:    0.48 KCAL/MOL
REMARK 927      BINDING AFFINITY PREDICTED BY RF-SCORE:    0.00 PKD
ROOT
HETATM    1  C   UNL     1     -12.778  11.518  70.290  1.00  0.00    -0.010 C  
HETATM    2  N   UNL     1     -11.382  11.340  69.938  1.00  0.00    -0.272 N  
HETATM    3  C   UNL     1     -10.731  10.205  70.336  1.00  0.00    -0.266 C  
HETATM    4  C   UNL     1      -9.364  10.040  69.833  1.00  0.00    -0.207 C  
HETATM    5  O   UNL     1     -11.208   9.336  71.061  1.00  0.00    -0.268 OA 
HETATM    6  C   UNL     1      -8.798  10.866  68.930  1.00  0.00    -0.138 C  
HETATM    7  O   UNL     1     -11.366  13.382  68.930  1.00  0.00    -0.254 OA 
HETATM    8  N   UNL     1      -9.564  11.987  68.561  1.00  0.00    -0.180 N  
HETATM    9  C   UNL     1     -10.797  12.308  69.148  1.00  0.00    -0.099 C  
ENDROOT
BRANCH   6  10
HETATM   10  N   UNL     1      -7.502  10.540  68.434  1.00  0.00    -0.088 NA 
HETATM   11  N   UNL     1      -6.092  13.242  68.197  1.00  0.00    -0.094 NA 
HETATM   12  C   UNL     1      -7.198   9.930  67.133  1.00  0.00    -0.086 C  
HETATM   13  C   UNL     1      -6.469  10.914  66.223  1.00  0.00    -0.129 C  
HETATM   14  H2  UNL     1      -6.953  13.189  67.654  1.00  0.00     0.000 HD 
HETATM   15  H1  UNL     1      -6.254  13.615  69.133  1.00  0.00     0.000 HD 
HETATM   16  C   UNL     1      -5.170  11.377  66.873  1.00  0.00    -0.100 C  
HETATM   17  C   UNL     1      -6.232  10.919  69.127  1.00  0.00    -0.047 C  
HETATM   18  C   UNL     1      -5.414  11.938  68.282  1.00  0.00    -0.043 C  
ENDBRANCH   6  10
BRANCH   8  19
HETATM   19  C   UNL     1      -9.305  12.753  67.339  1.00  0.00    -0.193 C  
BRANCH  19  20
HETATM   20  C   UNL     1     -10.463  12.958  66.367  1.00  0.00    -0.278 A  
HETATM   21  C   UNL     1     -11.737  12.110  64.468  1.00  0.00    -0.410 A  
HETATM   22  C   UNL     1     -10.389  10.541  65.763  1.00  0.00    -0.200 C  
HETATM   23  N   UNL     1      -9.986   9.470  65.946  1.00  0.00    -0.294 NA 
HETATM   24  C   UNL     1     -10.876  11.880  65.551  1.00  0.00    -0.343 A  
HETATM   25  C   UNL     1     -12.201  13.397  64.196  1.00  0.00    -0.457 A  
HETATM   26  C   UNL     1     -11.868  14.448  65.047  1.00  0.00    -0.400 A  
HETATM   27  C   UNL     1     -11.034  14.225  66.144  1.00  0.00    -0.313 A  
ENDBRANCH  19  20
ENDBRANCH   8  19
TORSDOF 3
ENDMDL
MODEL      229
REMARK 921   NORMALIZED FREE ENERGY PREDICTED BY IDOCK:   -3.71 KCAL/MOL
REMARK 922        TOTAL FREE ENERGY PREDICTED BY IDOCK:   -4.68 KCAL/MOL
REMARK 923 INTER-LIGAND FREE ENERGY PREDICTED BY IDOCK:   -4.50 KCAL/MOL
REMARK 924 INTRA-LIGAND FREE ENERGY PREDICTED BY IDOCK:   -0.17 KCAL/MOL
REMARK 927      BINDING AFFINITY PREDICTED BY RF-SCORE:    0.00 PKD
ROOT
HETATM    1  C   UNL     1      -7.361   9.686  62.729  1.00  0.00    -0.105 C  
HETATM    2  N   UNL     1      -7.834   9.086  63.962  1.00  0.00    -0.125 N  
HETATM    3  C   UNL     1      -7.765   7.728  64.115  1.00  0.00    -0.125 C  
HETATM    4  C   UNL     1      -8.143   7.212  65.434  1.00  0.00    -0.137 C  
HETATM    5  O   UNL     1      -7.411   6.938  63.244  1.00  0.00    -0.067 OA 
HETATM    6  C   UNL     1      -8.418   8.001  66.491  1.00  0.00    -0.136 C  
HETATM    7  O   UNL     1      -8.454  11.137  64.733  1.00  0.00     0.054 OA 
HETATM    8  N   UNL     1      -8.431   9.385  66.237  1.00  0.00    -0.124 N  
HETATM    9  C   UNL     1      -8.271   9.936  64.957  1.00  0.00    -0.143 C  
ENDROOT
BRANCH   6  10
HETATM   10  N   UNL     1      -8.665   7.382  67.752  1.00  0.00    -0.126 NA 
HETATM   11  N   UNL     1     -10.879   5.356  67.169  1.00  0.00    -0.326 NA 
HETATM   12  C   UNL     1      -9.177   8.044  68.959  1.00  0.00    -0.148 C  
HETATM   13  C   UNL     1     -10.581   7.556  69.298  1.00  0.00    -0.215 C  
HETATM   14  H2  UNL     1     -11.137   6.314  66.931  1.00  0.00     0.000 HD 
HETATM   15  H1  UNL     1     -10.470   4.862  66.376  1.00  0.00     0.000 HD 
HETATM   16  C   UNL     1     -10.582   6.048  69.518  1.00  0.00    -0.363 C  
HETATM   17  C   UNL     1      -8.573   5.908  67.981  1.00  0.00    -0.113 C  
HETATM   18  C   UNL     1      -9.966   5.304  68.323  1.00  0.00    -0.156 C  
ENDBRANCH   6  10
BRANCH   8  19
HETATM   19  C   UNL     1      -8.314  10.386  67.300  1.00  0.00    -0.122 C  
BRANCH  19  20
HETATM   20  C   UNL     1      -9.413  11.436  67.415  1.00  0.00    -0.174 A  
HETATM   21  C   UNL     1     -10.043  13.703  68.057  1.00  0.00    -0.250 A  
HETATM   22  C   UNL     1      -7.691  13.226  67.613  1.00  0.00    -0.171 C  
HETATM   23  N   UNL     1      -6.585  13.568  67.561  1.00  0.00    -0.218 NA 
HETATM   24  C   UNL     1      -9.059  12.780  67.674  1.00  0.00    -0.193 A  
HETATM   25  C   UNL     1     -11.375  13.309  68.173  1.00  0.00    -0.323 A  
HETATM   26  C   UNL     1     -11.745  12.009  67.835  1.00  0.00    -0.393 A  
HETATM   27  C   UNL     1     -10.778  11.089  67.426  1.00  0.00    -0.303 A  
ENDBRANCH  19  20
ENDBRANCH   8  19
TORSDOF 3
ENDMDL
MODEL      230
REMARK 921   NORMALIZED FREE ENERGY PREDICTED BY IDOCK:   -3.69 KCAL/MOL
REMARK 922        TOTAL FREE ENERGY PREDICTED BY IDOCK:   -4.66 KCAL/MOL
REMARK 923 INTER-LIGAND FREE ENERGY PREDICTED BY IDOCK:   -3.89 KCAL/MOL
REMARK 924 INTRA-LIGAND FREE ENERGY PREDICTED BY IDOCK:   -0.77 KCAL/MOL
REMARK 927      BINDING AFFINITY PREDICTED BY RF-SCORE:    0.00 PKD
ROOT
HETATM    1  C   UNL     1     -13.153  15.447  70.079  1.00  0.00     0.162 C  
HETATM    2  N   UNL     1     -12.022  14.637  69.665  1.00  0.00    -0.309 N  
HETATM    3  C   UNL     1     -12.122  13.274  69.717  1.00  0.00    -0.290 C  
HETATM    4  C   UNL     1     -10.989  12.526  69.163  1.00  0.00    -0.198 C  
HETATM    5  O   UNL     1     -13.077  12.653  70.178  1.00  0.00     0.473 OA 
HETATM    6  C   UNL     1      -9.958  13.107  68.517  1.00  0.00    -0.180 C  
HETATM    7  O   UNL     1     -10.804  16.520  69.270  1.00  0.00    -0.309 OA 
HETATM    8  N   UNL     1      -9.966  14.514  68.491  1.00  0.00    -0.233 N  
HETATM    9  C   UNL     1     -10.916  15.294  69.167  1.00  0.00    -0.251 C  
ENDROOT
BRANCH   6  10
HETATM   10  N   UNL     1      -8.970  12.267  67.926  1.00  0.00    -0.178 NA 
HETATM   11  N   UNL     1     -10.292   9.513  67.825  1.00  0.00    -0.224 NA 
HETATM   12  C   UNL     1      -7.653  11.945  68.491  1.00  0.00    -0.127 C  
HETATM   13  C   UNL     1      -7.573  10.476  68.892  1.00  0.00    -0.108 C  
HETATM   14  H2  UNL     1     -10.239   9.899  68.767  1.00  0.00     0.000 HD 
HETATM   15  H1  UNL     1     -11.171   9.750  67.365  1.00  0.00     0.000 HD 
HETATM   16  C   UNL     1      -7.831   9.581  67.685  1.00  0.00    -0.102 C  
HETATM   17  C   UNL     1      -9.202  11.462  66.688  1.00  0.00    -0.181 C  
HETATM   18  C   UNL     1      -9.155   9.937  66.992  1.00  0.00    -0.138 C  
ENDBRANCH   6  10
BRANCH   8  19
HETATM   19  C   UNL     1      -9.182  15.292  67.528  1.00  0.00    -0.199 C  
BRANCH  19  20
HETATM   20  C   UNL     1      -7.957  16.038  68.045  1.00  0.00    -0.142 A  
HETATM   21  C   UNL     1      -6.574  18.046  67.958  1.00  0.00    -0.196 A  
HETATM   22  C   UNL     1      -8.872  18.175  67.147  1.00  0.00    -0.259 C  
HETATM   23  N   UNL     1      -9.741  18.774  66.669  1.00  0.00    -0.328 NA 
HETATM   24  C   UNL     1      -7.805  17.410  67.739  1.00  0.00    -0.205 A  
HETATM   25  C   UNL     1      -5.498  17.337  68.488  1.00  0.00    -0.145 A  
HETATM   26  C   UNL     1      -5.665  16.009  68.874  1.00  0.00    -0.112 A  
HETATM   27  C   UNL     1      -6.894  15.373  68.686  1.00  0.00    -0.106 A  
ENDBRANCH  19  20
ENDBRANCH   8  19
TORSDOF 3
ENDMDL
MODEL      231
REMARK 921   NORMALIZED FREE ENERGY PREDICTED BY IDOCK:   -3.69 KCAL/MOL
REMARK 922        TOTAL FREE ENERGY PREDICTED BY IDOCK:   -4.65 KCAL/MOL
REMARK 923 INTER-LIGAND FREE ENERGY PREDICTED BY IDOCK:   -4.98 KCAL/MOL
REMARK 924 INTRA-LIGAND FREE ENERGY PREDICTED BY IDOCK:    0.33 KCAL/MOL
REMARK 927      BINDING AFFINITY PREDICTED BY RF-SCORE:    0.00 PKD
ROOT
HETATM    1  C   UNL     1      -8.884  10.464  67.305  1.00  0.00    -0.132 C  
HETATM    2  N   UNL     1      -8.869   9.173  66.644  1.00  0.00    -0.126 N  
HETATM    3  C   UNL     1      -7.881   8.897  65.739  1.00  0.00    -0.099 C  
HETATM    4  C   UNL     1      -7.859   7.530  65.211  1.00  0.00    -0.120 C  
HETATM    5  O   UNL     1      -7.031   9.697  65.357  1.00  0.00    -0.087 OA 
HETATM    6  C   UNL     1      -8.660   6.544  65.662  1.00  0.00    -0.126 C  
HETATM    7  O   UNL     1     -10.782   8.583  67.729  1.00  0.00    -0.201 OA 
HETATM    8  N   UNL     1      -9.622   6.925  66.617  1.00  0.00    -0.174 N  
HETATM    9  C   UNL     1      -9.825   8.253  67.021  1.00  0.00    -0.232 C  
ENDROOT
BRANCH   6  10
HETATM   10  N   UNL     1      -8.471   5.228  65.147  1.00  0.00    -0.144 NA 
HETATM   11  N   UNL     1     -11.306   4.220  64.609  1.00  0.00    -0.955 NA 
HETATM   12  C   UNL     1      -7.881   4.091  65.867  1.00  0.00    -0.090 C  
HETATM   13  C   UNL     1      -8.927   3.016  66.142  1.00  0.00    -0.150 C  
HETATM   14  H2  UNL     1     -11.153   4.493  65.580  1.00  0.00     0.000 HD 
HETATM   15  H1  UNL     1     -11.670   4.991  64.049  1.00  0.00     0.000 HD 
HETATM   16  C   UNL     1      -9.535   2.519  64.836  1.00  0.00    -0.076 C  
HETATM   17  C   UNL     1      -8.992   4.776  63.822  1.00  0.00    -0.074 C  
HETATM   18  C   UNL     1     -10.084   3.680  63.992  1.00  0.00    -0.207 C  
ENDBRANCH   6  10
BRANCH   8  19
HETATM   19  C   UNL     1     -10.291   5.960  67.493  1.00  0.00    -0.215 C  
BRANCH  19  20
HETATM   20  C   UNL     1     -10.315   6.254  68.989  1.00  0.00    -0.251 A  
HETATM   21  C   UNL     1      -9.137   6.191  71.124  1.00  0.00    -0.151 A  
HETATM   22  C   UNL     1      -7.829   6.097  69.066  1.00  0.00    -0.100 C  
HETATM   23  N   UNL     1      -6.809   6.012  68.522  1.00  0.00    -0.067 NA 
HETATM   24  C   UNL     1      -9.107   6.201  69.723  1.00  0.00    -0.144 A  
HETATM   25  C   UNL     1     -10.352   6.246  71.805  1.00  0.00    -0.240 A  
HETATM   26  C   UNL     1     -11.540   6.387  71.092  1.00  0.00    -0.378 A  
HETATM   27  C   UNL     1     -11.520   6.425  69.696  1.00  0.00    -0.446 A  
ENDBRANCH  19  20
ENDBRANCH   8  19
TORSDOF 3
ENDMDL
MODEL      232
REMARK 921   NORMALIZED FREE ENERGY PREDICTED BY IDOCK:   -3.69 KCAL/MOL
REMARK 922        TOTAL FREE ENERGY PREDICTED BY IDOCK:   -4.65 KCAL/MOL
REMARK 923 INTER-LIGAND FREE ENERGY PREDICTED BY IDOCK:   -4.09 KCAL/MOL
REMARK 924 INTRA-LIGAND FREE ENERGY PREDICTED BY IDOCK:   -0.56 KCAL/MOL
REMARK 927      BINDING AFFINITY PREDICTED BY RF-SCORE:    0.00 PKD
ROOT
HETATM    1  C   UNL     1      -5.310  15.302  67.832  1.00  0.00    -0.113 C  
HETATM    2  N   UNL     1      -6.448  14.434  68.069  1.00  0.00    -0.136 N  
HETATM    3  C   UNL     1      -7.513  14.907  68.786  1.00  0.00    -0.132 C  
HETATM    4  C   UNL     1      -8.674  14.017  68.872  1.00  0.00     0.063 C  
HETATM    5  O   UNL     1      -7.559  16.002  69.340  1.00  0.00    -0.232 OA 
HETATM    6  C   UNL     1      -8.776  12.857  68.194  1.00  0.00    -0.190 C  
HETATM    7  O   UNL     1      -5.395  12.737  66.974  1.00  0.00    -0.343 OA 
HETATM    8  N   UNL     1      -7.638  12.475  67.459  1.00  0.00    -0.145 N  
HETATM    9  C   UNL     1      -6.426  13.182  67.489  1.00  0.00    -0.147 C  
ENDROOT
BRANCH   6  10
HETATM   10  N   UNL     1     -10.000  12.131  68.273  1.00  0.00    -0.208 NA 
HETATM   11  N   UNL     1     -11.551  13.520  70.510  1.00  0.00    -0.517 NA 
HETATM   12  C   UNL     1     -10.148  10.716  68.640  1.00  0.00    -0.183 C  
HETATM   13  C   UNL     1     -10.855  10.571  69.984  1.00  0.00    -0.320 C  
HETATM   14  H2  UNL     1     -10.644  13.165  70.810  1.00  0.00     0.000 HD 
HETATM   15  H1  UNL     1     -11.496  14.490  70.195  1.00  0.00     0.000 HD 
HETATM   16  C   UNL     1     -12.233  11.221  69.933  1.00  0.00    -0.358 C  
HETATM   17  C   UNL     1     -11.347  12.763  68.130  1.00  0.00    -0.288 C  
HETATM   18  C   UNL     1     -12.150  12.681  69.460  1.00  0.00    -0.192 C  
ENDBRANCH   6  10
BRANCH   8  19
HETATM   19  C   UNL     1      -7.690  11.493  66.374  1.00  0.00     0.003 C  
BRANCH  19  20
HETATM   20  C   UNL     1      -7.043  10.132  66.612  1.00  0.00    -0.101 A  
HETATM   21  C   UNL     1      -6.592   7.886  65.774  1.00  0.00    -0.045 A  
HETATM   22  C   UNL     1      -7.184   9.632  64.175  1.00  0.00    -0.122 C  
HETATM   23  N   UNL     1      -7.402   9.973  63.089  1.00  0.00    -0.132 NA 
HETATM   24  C   UNL     1      -6.921   9.228  65.532  1.00  0.00    -0.082 A  
HETATM   25  C   UNL     1      -6.370   7.438  67.075  1.00  0.00    -0.052 A  
HETATM   26  C   UNL     1      -6.402   8.341  68.135  1.00  0.00    -0.055 A  
HETATM   27  C   UNL     1      -6.702   9.684  67.903  1.00  0.00    -0.066 A  
ENDBRANCH  19  20
ENDBRANCH   8  19
TORSDOF 3
ENDMDL
MODEL      233
REMARK 921   NORMALIZED FREE ENERGY PREDICTED BY IDOCK:   -3.66 KCAL/MOL
REMARK 922        TOTAL FREE ENERGY PREDICTED BY IDOCK:   -4.62 KCAL/MOL
REMARK 923 INTER-LIGAND FREE ENERGY PREDICTED BY IDOCK:   -5.35 KCAL/MOL
REMARK 924 INTRA-LIGAND FREE ENERGY PREDICTED BY IDOCK:    0.73 KCAL/MOL
REMARK 927      BINDING AFFINITY PREDICTED BY RF-SCORE:    0.00 PKD
ROOT
HETATM    1  C   UNL     1     -12.685  13.400  70.115  1.00  0.00     0.040 C  
HETATM    2  N   UNL     1     -11.656  12.544  69.555  1.00  0.00    -0.291 N  
HETATM    3  C   UNL     1     -11.727  11.193  69.756  1.00  0.00    -0.345 C  
HETATM    4  C   UNL     1     -10.724  10.387  69.054  1.00  0.00    -0.260 C  
HETATM    5  O   UNL     1     -12.558  10.628  70.462  1.00  0.00    -0.332 OA 
HETATM    6  C   UNL     1      -9.856  10.894  68.156  1.00  0.00    -0.175 C  
HETATM    7  O   UNL     1     -10.567  14.370  68.738  1.00  0.00    -0.242 OA 
HETATM    8  N   UNL     1      -9.885  12.292  67.998  1.00  0.00    -0.198 N  
HETATM    9  C   UNL     1     -10.684  13.141  68.779  1.00  0.00    -0.225 C  
ENDROOT
BRANCH   6  10
HETATM   10  N   UNL     1      -9.002   9.993  67.456  1.00  0.00    -0.134 NA 
HETATM   11  N   UNL     1      -6.319  11.452  67.329  1.00  0.00    -0.085 NA 
HETATM   12  C   UNL     1      -9.164   9.546  66.066  1.00  0.00    -0.196 C  
HETATM   13  C   UNL     1      -8.051  10.095  65.180  1.00  0.00    -0.148 C  
HETATM   14  H2  UNL     1      -7.083  11.978  66.905  1.00  0.00     0.000 HD 
HETATM   15  H1  UNL     1      -6.194  11.689  68.314  1.00  0.00     0.000 HD 
HETATM   16  C   UNL     1      -6.690   9.643  65.695  1.00  0.00    -0.086 C  
HETATM   17  C   UNL     1      -7.710   9.481  68.007  1.00  0.00    -0.087 C  
HETATM   18  C   UNL     1      -6.500  10.000  67.177  1.00  0.00    -0.069 C  
ENDBRANCH   6  10
BRANCH   8  19
HETATM   19  C   UNL     1      -9.326  12.967  66.824  1.00  0.00    -0.244 C  
BRANCH  19  20
HETATM   20  C   UNL     1      -8.740  14.362  67.016  1.00  0.00    -0.244 A  
HETATM   21  C   UNL     1      -8.620  16.674  66.247  1.00  0.00    -0.359 A  
HETATM   22  C   UNL     1     -10.540  15.322  65.585  1.00  0.00    -0.362 C  
HETATM   23  N   UNL     1     -11.537  15.201  65.006  1.00  0.00    -0.331 NA 
HETATM   24  C   UNL     1      -9.301  15.450  66.307  1.00  0.00    -0.351 A  
HETATM   25  C   UNL     1      -7.396  16.833  66.895  1.00  0.00    -0.257 A  
HETATM   26  C   UNL     1      -6.879  15.795  67.667  1.00  0.00    -0.198 A  
HETATM   27  C   UNL     1      -7.562  14.581  67.756  1.00  0.00    -0.171 A  
ENDBRANCH  19  20
ENDBRANCH   8  19
TORSDOF 3
ENDMDL
MODEL      234
REMARK 921   NORMALIZED FREE ENERGY PREDICTED BY IDOCK:   -3.61 KCAL/MOL
REMARK 922        TOTAL FREE ENERGY PREDICTED BY IDOCK:   -4.56 KCAL/MOL
REMARK 923 INTER-LIGAND FREE ENERGY PREDICTED BY IDOCK:   -3.63 KCAL/MOL
REMARK 924 INTRA-LIGAND FREE ENERGY PREDICTED BY IDOCK:   -0.93 KCAL/MOL
REMARK 927      BINDING AFFINITY PREDICTED BY RF-SCORE:    0.00 PKD
ROOT
HETATM    1  C   UNL     1      -8.238   9.252  63.351  1.00  0.00    -0.176 C  
HETATM    2  N   UNL     1      -8.612  10.256  64.329  1.00  0.00    -0.183 N  
HETATM    3  C   UNL     1      -9.481  11.249  63.970  1.00  0.00    -0.180 C  
HETATM    4  C   UNL     1      -9.908  12.148  65.046  1.00  0.00    -0.182 C  
HETATM    5  O   UNL     1      -9.919  11.426  62.836  1.00  0.00    -0.315 OA 
HETATM    6  C   UNL     1      -9.591  11.961  66.342  1.00  0.00    -0.225 C  
HETATM    7  O   UNL     1      -7.227   9.294  65.860  1.00  0.00    -0.088 OA 
HETATM    8  N   UNL     1      -8.717  10.891  66.611  1.00  0.00    -0.150 N  
HETATM    9  C   UNL     1      -8.118  10.113  65.609  1.00  0.00    -0.149 C  
ENDROOT
BRANCH   6  10
HETATM   10  N   UNL     1     -10.156  12.840  67.312  1.00  0.00    -0.224 NA 
HETATM   11  N   UNL     1     -12.895  13.558  66.163  1.00  0.00    -0.205 NA 
HETATM   12  C   UNL     1      -9.637  14.160  67.695  1.00  0.00    -0.216 C  
HETATM   13  C   UNL     1     -10.582  15.270  67.247  1.00  0.00    -0.290 C  
HETATM   14  H2  UNL     1     -12.123  13.798  65.541  1.00  0.00     0.000 HD 
HETATM   15  H1  UNL     1     -13.264  12.626  65.972  1.00  0.00     0.000 HD 
HETATM   16  C   UNL     1     -11.961  15.077  67.867  1.00  0.00    -0.140 C  
HETATM   17  C   UNL     1     -11.469  12.595  67.984  1.00  0.00    -0.318 C  
HETATM   18  C   UNL     1     -12.516  13.673  67.580  1.00  0.00     0.156 C  
ENDBRANCH   6  10
BRANCH   8  19
HETATM   19  C   UNL     1      -8.580  10.297  67.943  1.00  0.00    -0.118 C  
BRANCH  19  20
HETATM   20  C   UNL     1      -7.451  10.801  68.836  1.00  0.00    -0.116 A  
HETATM   21  C   UNL     1      -6.215  10.573  70.927  1.00  0.00     0.061 A  
HETATM   22  C   UNL     1      -7.506   8.665  70.120  1.00  0.00    -0.054 C  
HETATM   23  N   UNL     1      -7.889   7.579  70.250  1.00  0.00    -0.092 NA 
HETATM   24  C   UNL     1      -7.044  10.018  69.941  1.00  0.00    -0.130 A  
HETATM   25  C   UNL     1      -5.777  11.892  70.820  1.00  0.00    -0.074 A  
HETATM   26  C   UNL     1      -6.102  12.641  69.692  1.00  0.00    -0.128 A  
HETATM   27  C   UNL     1      -6.904  12.090  68.691  1.00  0.00    -0.091 A  
ENDBRANCH  19  20
ENDBRANCH   8  19
TORSDOF 3
ENDMDL
MODEL      235
REMARK 921   NORMALIZED FREE ENERGY PREDICTED BY IDOCK:   -3.58 KCAL/MOL
REMARK 922        TOTAL FREE ENERGY PREDICTED BY IDOCK:   -4.52 KCAL/MOL
REMARK 923 INTER-LIGAND FREE ENERGY PREDICTED BY IDOCK:   -3.42 KCAL/MOL
REMARK 924 INTRA-LIGAND FREE ENERGY PREDICTED BY IDOCK:   -1.10 KCAL/MOL
REMARK 927      BINDING AFFINITY PREDICTED BY RF-SCORE:    0.00 PKD
ROOT
HETATM    1  C   UNL     1      -7.802   3.067  66.435  1.00  0.00    -0.077 C  
HETATM    2  N   UNL     1      -7.773   4.124  67.429  1.00  0.00    -0.083 N  
HETATM    3  C   UNL     1      -7.002   5.231  67.205  1.00  0.00    -0.065 C  
HETATM    4  C   UNL     1      -7.126   6.308  68.192  1.00  0.00    -0.082 C  
HETATM    5  O   UNL     1      -6.240   5.379  66.254  1.00  0.00    -0.032 OA 
HETATM    6  C   UNL     1      -8.027   6.299  69.195  1.00  0.00    -0.110 C  
HETATM    7  O   UNL     1      -9.161   2.914  68.769  1.00  0.00    -0.122 OA 
HETATM    8  N   UNL     1      -8.795   5.126  69.319  1.00  0.00    -0.095 N  
HETATM    9  C   UNL     1      -8.593   3.984  68.530  1.00  0.00    -0.094 C  
ENDROOT
BRANCH   6  10
HETATM   10  N   UNL     1      -8.127   7.454  70.026  1.00  0.00    -0.126 NA 
HETATM   11  N   UNL     1      -6.912   9.695  68.341  1.00  0.00    -0.065 NA 
HETATM   12  C   UNL     1      -7.456   7.654  71.317  1.00  0.00    -0.079 C  
HETATM   13  C   UNL     1      -6.398   8.748  71.221  1.00  0.00    -0.058 C  
HETATM   14  H2  UNL     1      -6.270   8.919  68.499  1.00  0.00     0.000 HD 
HETATM   15  H1  UNL     1      -7.443   9.582  67.476  1.00  0.00     0.000 HD 
HETATM   16  C   UNL     1      -7.030  10.062  70.777  1.00  0.00     0.058 C  
HETATM   17  C   UNL     1      -8.829   8.708  69.617  1.00  0.00    -0.137 C  
HETATM   18  C   UNL     1      -7.828   9.891  69.475  1.00  0.00    -0.140 C  
ENDBRANCH   6  10
BRANCH   8  19
HETATM   19  C   UNL     1     -10.057   5.082  70.061  1.00  0.00    -0.272 C  
BRANCH  19  20
HETATM   20  C   UNL     1      -9.988   4.930  71.577  1.00  0.00    -0.260 A  
HETATM   21  C   UNL     1     -10.681   5.749  73.767  1.00  0.00    -0.247 A  
HETATM   22  C   UNL     1     -12.021   6.350  71.818  1.00  0.00    -0.316 C  
HETATM   23  N   UNL     1     -12.920   6.908  71.346  1.00  0.00    -0.329 NA 
HETATM   24  C   UNL     1     -10.896   5.652  72.385  1.00  0.00    -0.298 A  
HETATM   25  C   UNL     1      -9.582   5.127  74.356  1.00  0.00    -0.155 A  
HETATM   26  C   UNL     1      -8.731   4.342  73.581  1.00  0.00    -0.094 A  
HETATM   27  C   UNL     1      -8.951   4.215  72.208  1.00  0.00    -0.139 A  
ENDBRANCH  19  20
ENDBRANCH   8  19
TORSDOF 3
ENDMDL
MODEL      236
REMARK 921   NORMALIZED FREE ENERGY PREDICTED BY IDOCK:   -3.56 KCAL/MOL
REMARK 922        TOTAL FREE ENERGY PREDICTED BY IDOCK:   -4.51 KCAL/MOL
REMARK 923 INTER-LIGAND FREE ENERGY PREDICTED BY IDOCK:   -3.32 KCAL/MOL
REMARK 924 INTRA-LIGAND FREE ENERGY PREDICTED BY IDOCK:   -1.19 KCAL/MOL
REMARK 927      BINDING AFFINITY PREDICTED BY RF-SCORE:    0.00 PKD
ROOT
HETATM    1  C   UNL     1      -9.005   6.109  73.893  1.00  0.00    -0.128 C  
HETATM    2  N   UNL     1      -9.096   6.361  72.467  1.00  0.00    -0.137 N  
HETATM    3  C   UNL     1      -9.685   7.515  72.028  1.00  0.00    -0.159 C  
HETATM    4  C   UNL     1      -9.624   7.757  70.584  1.00  0.00    -0.166 C  
HETATM    5  O   UNL     1     -10.241   8.341  72.748  1.00  0.00    -0.300 OA 
HETATM    6  C   UNL     1      -8.926   6.983  69.728  1.00  0.00    -0.141 C  
HETATM    7  O   UNL     1      -8.118   4.350  72.039  1.00  0.00    -0.094 OA 
HETATM    8  N   UNL     1      -8.329   5.837  70.286  1.00  0.00    -0.115 N  
HETATM    9  C   UNL     1      -8.510   5.443  71.620  1.00  0.00    -0.127 C  
ENDROOT
BRANCH   6  10
HETATM   10  N   UNL     1      -8.851   7.382  68.362  1.00  0.00    -0.123 NA 
HETATM   11  N   UNL     1      -9.231  10.414  68.446  1.00  0.00    -0.141 NA 
HETATM   12  C   UNL     1      -9.780   6.995  67.292  1.00  0.00    -0.149 C  
HETATM   13  C   UNL     1     -10.591   8.193  66.809  1.00  0.00    -0.223 C  
HETATM   14  H2  UNL     1     -10.009   9.900  68.860  1.00  0.00     0.000 HD 
HETATM   15  H1  UNL     1      -8.528  10.667  69.141  1.00  0.00     0.000 HD 
HETATM   16  C   UNL     1      -9.665   9.289  66.294  1.00  0.00    -0.340 C  
HETATM   17  C   UNL     1      -7.876   8.392  67.848  1.00  0.00    -0.107 C  
HETATM   18  C   UNL     1      -8.606   9.670  67.341  1.00  0.00    -0.125 C  
ENDBRANCH   6  10
BRANCH   8  19
HETATM   19  C   UNL     1      -7.235   5.117  69.629  1.00  0.00    -0.056 C  
BRANCH  19  20
HETATM   20  C   UNL     1      -7.595   4.124  68.529  1.00  0.00    -0.063 A  
HETATM   21  C   UNL     1      -7.681   3.630  66.142  1.00  0.00    -0.088 A  
HETATM   22  C   UNL     1      -6.175   5.387  66.917  1.00  0.00    -0.035 C  
HETATM   23  N   UNL     1      -5.398   6.218  66.698  1.00  0.00    -0.012 NA 
HETATM   24  C   UNL     1      -7.143   4.362  67.210  1.00  0.00    -0.068 A  
HETATM   25  C   UNL     1      -8.652   2.657  66.371  1.00  0.00    -0.112 A  
HETATM   26  C   UNL     1      -9.039   2.356  67.675  1.00  0.00    -0.215 A  
HETATM   27  C   UNL     1      -8.489   3.059  68.749  1.00  0.00    -0.096 A  
ENDBRANCH  19  20
ENDBRANCH   8  19
TORSDOF 3
ENDMDL
MODEL      237
REMARK 921   NORMALIZED FREE ENERGY PREDICTED BY IDOCK:   -3.55 KCAL/MOL
REMARK 922        TOTAL FREE ENERGY PREDICTED BY IDOCK:   -4.50 KCAL/MOL
REMARK 923 INTER-LIGAND FREE ENERGY PREDICTED BY IDOCK:   -3.95 KCAL/MOL
REMARK 924 INTRA-LIGAND FREE ENERGY PREDICTED BY IDOCK:   -0.54 KCAL/MOL
REMARK 927      BINDING AFFINITY PREDICTED BY RF-SCORE:    0.00 PKD
ROOT
HETATM    1  C   UNL     1      -9.113   2.884  66.895  1.00  0.00    -0.159 C  
HETATM    2  N   UNL     1      -8.945   4.324  66.851  1.00  0.00    -0.117 N  
HETATM    3  C   UNL     1      -8.571   4.918  65.676  1.00  0.00    -0.131 C  
HETATM    4  C   UNL     1      -8.547   6.384  65.679  1.00  0.00    -0.138 C  
HETATM    5  O   UNL     1      -8.271   4.318  64.648  1.00  0.00    -0.099 OA 
HETATM    6  C   UNL     1      -8.984   7.134  66.709  1.00  0.00    -0.137 C  
HETATM    7  O   UNL     1      -9.435   4.460  69.070  1.00  0.00    -0.142 OA 
HETATM    8  N   UNL     1      -9.377   6.426  67.860  1.00  0.00    -0.116 N  
HETATM    9  C   UNL     1      -9.243   5.036  67.995  1.00  0.00    -0.119 C  
ENDROOT
BRANCH   6  10
HETATM   10  N   UNL     1      -9.013   8.551  66.551  1.00  0.00    -0.151 NA 
HETATM   11  N   UNL     1      -6.523   9.520  68.035  1.00  0.00    -0.061 NA 
HETATM   12  C   UNL     1     -10.042   9.461  67.070  1.00  0.00    -0.240 C  
HETATM   13  C   UNL     1      -9.480  10.355  68.170  1.00  0.00    -0.152 C  
HETATM   14  H2  UNL     1      -7.161   8.987  68.626  1.00  0.00     0.000 HD 
HETATM   15  H1  UNL     1      -5.812   8.925  67.608  1.00  0.00     0.000 HD 
HETATM   16  C   UNL     1      -8.308  11.175  67.641  1.00  0.00    -0.122 C  
HETATM   17  C   UNL     1      -7.895   9.338  65.946  1.00  0.00    -0.099 C  
HETATM   18  C   UNL     1      -7.238  10.279  66.998  1.00  0.00    -0.091 C  
ENDBRANCH   6  10
BRANCH   8  19
HETATM   19  C   UNL     1     -10.229   7.012  68.897  1.00  0.00    -0.180 C  
BRANCH  19  20
HETATM   20  C   UNL     1      -9.596   7.323  70.249  1.00  0.00    -0.165 A  
HETATM   21  C   UNL     1      -9.919   7.940  72.586  1.00  0.00    -0.330 A  
HETATM   22  C   UNL     1     -11.793   6.962  71.368  1.00  0.00    -0.330 C  
HETATM   23  N   UNL     1     -12.898   6.614  71.326  1.00  0.00    -0.179 NA 
HETATM   24  C   UNL     1     -10.419   7.391  71.397  1.00  0.00    -0.218 A  
HETATM   25  C   UNL     1      -8.608   8.409  72.651  1.00  0.00    -0.241 A  
HETATM   26  C   UNL     1      -7.765   8.265  71.552  1.00  0.00    -0.114 A  
HETATM   27  C   UNL     1      -8.244   7.695  70.371  1.00  0.00    -0.122 A  
ENDBRANCH  19  20
ENDBRANCH   8  19
TORSDOF 3
ENDMDL
MODEL      238
REMARK 921   NORMALIZED FREE ENERGY PREDICTED BY IDOCK:   -3.52 KCAL/MOL
REMARK 922        TOTAL FREE ENERGY PREDICTED BY IDOCK:   -4.46 KCAL/MOL
REMARK 923 INTER-LIGAND FREE ENERGY PREDICTED BY IDOCK:   -4.48 KCAL/MOL
REMARK 924 INTRA-LIGAND FREE ENERGY PREDICTED BY IDOCK:    0.02 KCAL/MOL
REMARK 927      BINDING AFFINITY PREDICTED BY RF-SCORE:    0.00 PKD
ROOT
HETATM    1  C   UNL     1     -11.329  16.726  68.043  1.00  0.00     0.009 C  
HETATM    2  N   UNL     1     -10.265  15.790  67.735  1.00  0.00    -0.246 N  
HETATM    3  C   UNL     1      -8.992  16.063  68.155  1.00  0.00    -0.183 C  
HETATM    4  C   UNL     1      -7.999  15.011  67.916  1.00  0.00    -0.146 C  
HETATM    5  O   UNL     1      -8.640  17.100  68.710  1.00  0.00    -0.268 OA 
HETATM    6  C   UNL     1      -8.308  13.790  67.437  1.00  0.00    -0.193 C  
HETATM    7  O   UNL     1     -11.735  14.478  66.594  1.00  0.00    -0.372 OA 
HETATM    8  N   UNL     1      -9.652  13.600  67.064  1.00  0.00    -0.243 N  
HETATM    9  C   UNL     1     -10.611  14.624  67.084  1.00  0.00    -0.282 C  
ENDROOT
BRANCH   6  10
HETATM   10  N   UNL     1      -7.273  12.814  67.351  1.00  0.00    -0.149 NA 
HETATM   11  N   UNL     1      -7.718  11.036  69.797  1.00  0.00    -0.338 NA 
HETATM   12  C   UNL     1      -5.828  13.071  67.428  1.00  0.00    -0.022 C  
HETATM   13  C   UNL     1      -5.235  12.486  68.705  1.00  0.00    -0.055 C  
HETATM   14  H2  UNL     1      -7.574  12.017  70.034  1.00  0.00     0.000 HD 
HETATM   15  H1  UNL     1      -8.707  10.812  69.682  1.00  0.00     0.000 HD 
HETATM   16  C   UNL     1      -5.479  10.982  68.765  1.00  0.00    -0.040 C  
HETATM   17  C   UNL     1      -7.526  11.341  67.317  1.00  0.00    -0.126 C  
HETATM   18  C   UNL     1      -6.968  10.646  68.592  1.00  0.00    -0.072 C  
ENDBRANCH   6  10
BRANCH   8  19
HETATM   19  C   UNL     1     -10.249  12.272  66.908  1.00  0.00    -0.213 C  
BRANCH  19  20
HETATM   20  C   UNL     1     -10.193  11.622  65.529  1.00  0.00    -0.302 A  
HETATM   21  C   UNL     1      -9.836   9.600  64.213  1.00  0.00     0.384 A  
HETATM   22  C   UNL     1     -10.406   9.371  66.575  1.00  0.00    -0.198 C  
HETATM   23  N   UNL     1     -10.601   8.708  67.505  1.00  0.00    -0.256 NA 
HETATM   24  C   UNL     1     -10.163  10.212  65.431  1.00  0.00    -0.281 A  
HETATM   25  C   UNL     1      -9.550  10.374  63.089  1.00  0.00    -0.346 A  
HETATM   26  C   UNL     1      -9.663  11.760  63.154  1.00  0.00    -0.321 A  
HETATM   27  C   UNL     1     -10.016  12.379  64.355  1.00  0.00    -0.220 A  
ENDBRANCH  19  20
ENDBRANCH   8  19
TORSDOF 3
ENDMDL
MODEL      239
REMARK 921   NORMALIZED FREE ENERGY PREDICTED BY IDOCK:   -3.47 KCAL/MOL
REMARK 922        TOTAL FREE ENERGY PREDICTED BY IDOCK:   -4.40 KCAL/MOL
REMARK 923 INTER-LIGAND FREE ENERGY PREDICTED BY IDOCK:   -3.38 KCAL/MOL
REMARK 924 INTRA-LIGAND FREE ENERGY PREDICTED BY IDOCK:   -1.02 KCAL/MOL
REMARK 927      BINDING AFFINITY PREDICTED BY RF-SCORE:    0.00 PKD
ROOT
HETATM    1  C   UNL     1     -10.562   9.635  67.867  1.00  0.00    -0.255 C  
HETATM    2  N   UNL     1     -10.207   8.250  67.619  1.00  0.00    -0.215 N  
HETATM    3  C   UNL     1      -9.505   7.932  66.489  1.00  0.00    -0.214 C  
HETATM    4  C   UNL     1      -9.074   6.536  66.373  1.00  0.00    -0.172 C  
HETATM    5  O   UNL     1      -9.213   8.722  65.594  1.00  0.00    -0.217 OA 
HETATM    6  C   UNL     1      -9.227   5.626  67.356  1.00  0.00    -0.109 C  
HETATM    7  O   UNL     1     -11.297   7.620  69.516  1.00  0.00    -0.005 OA 
HETATM    8  N   UNL     1      -9.935   6.062  68.491  1.00  0.00    -0.133 N  
HETATM    9  C   UNL     1     -10.542   7.324  68.585  1.00  0.00    -0.168 C  
ENDROOT
BRANCH   6  10
HETATM   10  N   UNL     1      -8.669   4.327  67.169  1.00  0.00    -0.104 NA 
HETATM   11  N   UNL     1      -6.425   4.762  65.140  1.00  0.00    -0.035 NA 
HETATM   12  C   UNL     1      -9.359   3.159  66.605  1.00  0.00    -0.110 C  
HETATM   13  C   UNL     1      -8.772   2.777  65.251  1.00  0.00    -0.117 C  
HETATM   14  H2  UNL     1      -7.339   5.057  64.797  1.00  0.00     0.000 HD 
HETATM   15  H1  UNL     1      -5.920   5.527  65.588  1.00  0.00     0.000 HD 
HETATM   16  C   UNL     1      -7.286   2.464  65.384  1.00  0.00    -0.058 C  
HETATM   17  C   UNL     1      -7.226   4.007  67.391  1.00  0.00    -0.067 C  
HETATM   18  C   UNL     1      -6.525   3.616  66.058  1.00  0.00    -0.033 C  
ENDBRANCH   6  10
BRANCH   8  19
HETATM   19  C   UNL     1      -9.858   5.377  69.783  1.00  0.00    -0.201 C  
BRANCH  19  20
HETATM   20  C   UNL     1      -8.855   5.898  70.808  1.00  0.00    -0.140 A  
HETATM   21  C   UNL     1      -8.475   6.909  72.994  1.00  0.00    -0.128 A  
HETATM   22  C   UNL     1     -10.599   5.780  72.583  1.00  0.00    -0.223 C  
HETATM   23  N   UNL     1     -11.654   5.455  72.938  1.00  0.00    -0.289 NA 
HETATM   24  C   UNL     1      -9.294   6.178  72.122  1.00  0.00    -0.155 A  
HETATM   25  C   UNL     1      -7.221   7.353  72.579  1.00  0.00    -0.073 A  
HETATM   26  C   UNL     1      -6.745   7.007  71.316  1.00  0.00    -0.059 A  
HETATM   27  C   UNL     1      -7.541   6.255  70.449  1.00  0.00    -0.096 A  
ENDBRANCH  19  20
ENDBRANCH   8  19
TORSDOF 3
ENDMDL
MODEL      240
REMARK 921   NORMALIZED FREE ENERGY PREDICTED BY IDOCK:   -3.44 KCAL/MOL
REMARK 922        TOTAL FREE ENERGY PREDICTED BY IDOCK:   -4.37 KCAL/MOL
REMARK 923 INTER-LIGAND FREE ENERGY PREDICTED BY IDOCK:   -4.03 KCAL/MOL
REMARK 924 INTRA-LIGAND FREE ENERGY PREDICTED BY IDOCK:   -0.33 KCAL/MOL
REMARK 927      BINDING AFFINITY PREDICTED BY RF-SCORE:    0.00 PKD
ROOT
HETATM    1  C   UNL     1      -6.877  10.093  64.568  1.00  0.00    -0.113 C  
HETATM    2  N   UNL     1      -7.698   9.781  65.722  1.00  0.00    -0.107 N  
HETATM    3  C   UNL     1      -7.756   8.491  66.173  1.00  0.00    -0.093 C  
HETATM    4  C   UNL     1      -8.502   8.279  67.417  1.00  0.00    -0.125 C  
HETATM    5  O   UNL     1      -7.231   7.527  65.621  1.00  0.00    -0.063 OA 
HETATM    6  C   UNL     1      -9.001   9.282  68.166  1.00  0.00    -0.128 C  
HETATM    7  O   UNL     1      -8.375  11.952  65.841  1.00  0.00     0.144 OA 
HETATM    8  N   UNL     1      -8.861  10.576  67.630  1.00  0.00    -0.131 N  
HETATM    9  C   UNL     1      -8.331  10.830  66.356  1.00  0.00    -0.153 C  
ENDROOT
BRANCH   6  10
HETATM   10  N   UNL     1      -9.613   8.957  69.412  1.00  0.00    -0.161 NA 
HETATM   11  N   UNL     1      -7.986   6.586  70.448  1.00  0.00    -0.113 NA 
HETATM   12  C   UNL     1     -10.989   8.482  69.606  1.00  0.00    -0.086 C  
HETATM   13  C   UNL     1     -11.007   7.034  70.083  1.00  0.00    -0.306 C  
HETATM   14  H2  UNL     1      -8.405   6.417  69.533  1.00  0.00     0.000 HD 
HETATM   15  H1  UNL     1      -7.042   6.965  70.371  1.00  0.00     0.000 HD 
HETATM   16  C   UNL     1     -10.242   6.897  71.395  1.00  0.00    -0.212 C  
HETATM   17  C   UNL     1      -8.873   8.915  70.710  1.00  0.00    -0.208 C  
HETATM   18  C   UNL     1      -8.820   7.468  71.280  1.00  0.00    -0.133 C  
ENDBRANCH   6  10
BRANCH   8  19
HETATM   19  C   UNL     1      -8.970  11.787  68.447  1.00  0.00    -0.168 C  
BRANCH  19  20
HETATM   20  C   UNL     1      -9.906  12.890  67.965  1.00  0.00    -0.223 A  
HETATM   21  C   UNL     1     -10.399  15.276  67.854  1.00  0.00    -0.246 A  
HETATM   22  C   UNL     1      -8.107  14.578  68.318  1.00  0.00    -0.140 C  
HETATM   23  N   UNL     1      -7.003  14.836  68.557  1.00  0.00    -0.103 NA 
HETATM   24  C   UNL     1      -9.475  14.235  68.025  1.00  0.00    -0.204 A  
HETATM   25  C   UNL     1     -11.743  14.994  67.612  1.00  0.00    -0.281 A  
HETATM   26  C   UNL     1     -12.159  13.674  67.464  1.00  0.00    -0.352 A  
HETATM   27  C   UNL     1     -11.242  12.630  67.605  1.00  0.00    -0.329 A  
ENDBRANCH  19  20
ENDBRANCH   8  19
TORSDOF 3
ENDMDL
MODEL      241
REMARK 921   NORMALIZED FREE ENERGY PREDICTED BY IDOCK:   -3.34 KCAL/MOL
REMARK 922        TOTAL FREE ENERGY PREDICTED BY IDOCK:   -4.24 KCAL/MOL
REMARK 923 INTER-LIGAND FREE ENERGY PREDICTED BY IDOCK:   -4.67 KCAL/MOL
REMARK 924 INTRA-LIGAND FREE ENERGY PREDICTED BY IDOCK:    0.43 KCAL/MOL
REMARK 927      BINDING AFFINITY PREDICTED BY RF-SCORE:    0.00 PKD
ROOT
HETATM    1  C   UNL     1     -13.869  14.354  71.009  1.00  0.00    -0.076 C  
HETATM    2  N   UNL     1     -12.966  13.218  70.975  1.00  0.00    -0.211 N  
HETATM    3  C   UNL     1     -13.099  12.231  71.912  1.00  0.00    -0.363 C  
HETATM    4  C   UNL     1     -12.236  11.059  71.734  1.00  0.00     0.134 C  
HETATM    5  O   UNL     1     -13.877  12.259  72.861  1.00  0.00     0.114 OA 
HETATM    6  C   UNL     1     -11.446  10.872  70.659  1.00  0.00    -0.130 C  
HETATM    7  O   UNL     1     -11.866  14.133  69.203  1.00  0.00    -0.300 OA 
HETATM    8  N   UNL     1     -11.405  11.934  69.736  1.00  0.00    -0.200 N  
HETATM    9  C   UNL     1     -12.054  13.161  69.942  1.00  0.00    -0.287 C  
ENDROOT
BRANCH   6  10
HETATM   10  N   UNL     1     -10.735   9.641  70.546  1.00  0.00    -0.287 NA 
HETATM   11  N   UNL     1     -12.248   7.732  72.392  1.00  0.00    -0.513 NA 
HETATM   12  C   UNL     1      -9.342   9.402  70.946  1.00  0.00    -0.193 C  
HETATM   13  C   UNL     1      -9.270   8.460  72.143  1.00  0.00    -0.313 C  
HETATM   14  H2  UNL     1     -11.900   8.563  72.871  1.00  0.00     0.000 HD 
HETATM   15  H1  UNL     1     -13.200   7.861  72.048  1.00  0.00     0.000 HD 
HETATM   16  C   UNL     1      -9.930   7.126  71.810  1.00  0.00    -0.186 C  
HETATM   17  C   UNL     1     -11.372   8.354  70.128  1.00  0.00    -0.065 C  
HETATM   18  C   UNL     1     -11.363   7.320  71.291  1.00  0.00    -0.264 C  
ENDBRANCH   6  10
BRANCH   8  19
HETATM   19  C   UNL     1     -10.942  11.766  68.356  1.00  0.00    -0.231 C  
BRANCH  19  20
HETATM   20  C   UNL     1      -9.677  12.505  67.934  1.00  0.00    -0.205 A  
HETATM   21  C   UNL     1      -7.307  12.384  67.372  1.00  0.00    -0.149 A  
HETATM   22  C   UNL     1      -8.645  10.348  67.232  1.00  0.00    -0.126 C  
HETATM   23  N   UNL     1      -8.733   9.211  67.025  1.00  0.00    -0.123 NA 
HETATM   24  C   UNL     1      -8.556  11.760  67.499  1.00  0.00    -0.157 A  
HETATM   25  C   UNL     1      -7.162  13.740  67.660  1.00  0.00    -0.183 A  
HETATM   26  C   UNL     1      -8.277  14.499  68.005  1.00  0.00    -0.145 A  
HETATM   27  C   UNL     1      -9.532  13.894  68.107  1.00  0.00    -0.207 A  
ENDBRANCH  19  20
ENDBRANCH   8  19
TORSDOF 3
ENDMDL
MODEL      242
REMARK 921   NORMALIZED FREE ENERGY PREDICTED BY IDOCK:   -3.34 KCAL/MOL
REMARK 922        TOTAL FREE ENERGY PREDICTED BY IDOCK:   -4.24 KCAL/MOL
REMARK 923 INTER-LIGAND FREE ENERGY PREDICTED BY IDOCK:   -3.83 KCAL/MOL
REMARK 924 INTRA-LIGAND FREE ENERGY PREDICTED BY IDOCK:   -0.41 KCAL/MOL
REMARK 927      BINDING AFFINITY PREDICTED BY RF-SCORE:    0.00 PKD
ROOT
HETATM    1  C   UNL     1      -6.272   5.409  65.480  1.00  0.00    -0.034 C  
HETATM    2  N   UNL     1      -7.172   5.858  66.526  1.00  0.00    -0.072 N  
HETATM    3  C   UNL     1      -6.708   5.960  67.809  1.00  0.00    -0.058 C  
HETATM    4  C   UNL     1      -7.638   6.541  68.782  1.00  0.00    -0.100 C  
HETATM    5  O   UNL     1      -5.592   5.612  68.185  1.00  0.00    -0.010 OA 
HETATM    6  C   UNL     1      -8.830   7.073  68.447  1.00  0.00    -0.123 C  
HETATM    7  O   UNL     1      -8.874   5.992  65.019  1.00  0.00    -0.043 OA 
HETATM    8  N   UNL     1      -9.200   6.947  67.095  1.00  0.00    -0.135 N  
HETATM    9  C   UNL     1      -8.446   6.232  66.152  1.00  0.00    -0.138 C  
ENDROOT
BRANCH   6  10
HETATM   10  N   UNL     1      -9.598   7.709  69.466  1.00  0.00    -0.163 NA 
HETATM   11  N   UNL     1      -7.744   7.733  71.895  1.00  0.00    -0.086 NA 
HETATM   12  C   UNL     1     -10.849   7.207  70.051  1.00  0.00    -0.254 C  
HETATM   13  C   UNL     1     -10.650   6.804  71.508  1.00  0.00    -0.245 C  
HETATM   14  H2  UNL     1      -7.920   6.796  71.533  1.00  0.00     0.000 HD 
HETATM   15  H1  UNL     1      -6.909   8.151  71.484  1.00  0.00     0.000 HD 
HETATM   16  C   UNL     1     -10.158   7.993  72.326  1.00  0.00    -0.311 C  
HETATM   17  C   UNL     1      -9.148   8.930  70.201  1.00  0.00    -0.176 C  
HETATM   18  C   UNL     1      -8.901   8.622  71.706  1.00  0.00    -0.211 C  
ENDBRANCH   6  10
BRANCH   8  19
HETATM   19  C   UNL     1     -10.231   7.783  66.476  1.00  0.00    -0.125 C  
BRANCH  19  20
HETATM   20  C   UNL     1     -10.191   9.283  66.747  1.00  0.00    -0.325 A  
HETATM   21  C   UNL     1      -8.917  11.361  66.667  1.00  0.00    -0.183 A  
HETATM   22  C   UNL     1      -8.220   9.509  65.240  1.00  0.00    -0.130 C  
HETATM   23  N   UNL     1      -7.492   9.055  64.460  1.00  0.00    -0.101 NA 
HETATM   24  C   UNL     1      -9.133  10.053  66.211  1.00  0.00    -0.180 A  
HETATM   25  C   UNL     1      -9.748  11.917  67.638  1.00  0.00    -0.186 A  
HETATM   26  C   UNL     1     -10.845  11.197  68.107  1.00  0.00    -0.266 A  
HETATM   27  C   UNL     1     -11.085   9.903  67.640  1.00  0.00    -0.170 A  
ENDBRANCH  19  20
ENDBRANCH   8  19
TORSDOF 3
ENDMDL
MODEL      243
REMARK 921   NORMALIZED FREE ENERGY PREDICTED BY IDOCK:   -3.33 KCAL/MOL
REMARK 922        TOTAL FREE ENERGY PREDICTED BY IDOCK:   -4.23 KCAL/MOL
REMARK 923 INTER-LIGAND FREE ENERGY PREDICTED BY IDOCK:   -3.83 KCAL/MOL
REMARK 924 INTRA-LIGAND FREE ENERGY PREDICTED BY IDOCK:   -0.40 KCAL/MOL
REMARK 927      BINDING AFFINITY PREDICTED BY RF-SCORE:    0.00 PKD
ROOT
HETATM    1  C   UNL     1      -9.202  13.702  66.632  1.00  0.00    -0.212 C  
HETATM    2  N   UNL     1      -9.658  12.721  67.598  1.00  0.00    -0.186 N  
HETATM    3  C   UNL     1     -10.828  12.940  68.272  1.00  0.00    -0.242 C  
HETATM    4  C   UNL     1     -11.285  11.846  69.134  1.00  0.00    -0.314 C  
HETATM    5  O   UNL     1     -11.504  13.962  68.197  1.00  0.00    -0.277 OA 
HETATM    6  C   UNL     1     -10.689  10.639  69.185  1.00  0.00    -0.228 C  
HETATM    7  O   UNL     1      -7.792  11.470  67.224  1.00  0.00    -0.137 OA 
HETATM    8  N   UNL     1      -9.509  10.505  68.429  1.00  0.00    -0.152 N  
HETATM    9  C   UNL     1      -8.911  11.569  67.737  1.00  0.00    -0.160 C  
ENDROOT
BRANCH   6  10
HETATM   10  N   UNL     1     -11.291   9.619  69.979  1.00  0.00    -0.226 NA 
HETATM   11  N   UNL     1     -12.824  11.153  72.131  1.00  0.00    -0.251 NA 
HETATM   12  C   UNL     1     -10.583   8.610  70.778  1.00  0.00    -0.210 C  
HETATM   13  C   UNL     1     -10.799   8.843  72.270  1.00  0.00    -0.235 C  
HETATM   14  H2  UNL     1     -11.827  11.368  72.118  1.00  0.00     0.000 HD 
HETATM   15  H1  UNL     1     -13.361  11.797  71.549  1.00  0.00     0.000 HD 
HETATM   16  C   UNL     1     -12.285   8.794  72.606  1.00  0.00    -0.239 C  
HETATM   17  C   UNL     1     -12.761   9.525  70.228  1.00  0.00     0.432 C  
HETATM   18  C   UNL     1     -13.093   9.764  71.730  1.00  0.00    -0.431 C  
ENDBRANCH   6  10
BRANCH   8  19
HETATM   19  C   UNL     1      -8.958   9.203  68.045  1.00  0.00    -0.128 C  
BRANCH  19  20
HETATM   20  C   UNL     1      -7.840   8.621  68.904  1.00  0.00    -0.104 A  
HETATM   21  C   UNL     1      -6.912   6.673  70.040  1.00  0.00    -0.062 A  
HETATM   22  C   UNL     1      -8.524   6.318  68.242  1.00  0.00    -0.114 C  
HETATM   23  N   UNL     1      -9.162   5.608  67.585  1.00  0.00    -0.106 NA 
HETATM   24  C   UNL     1      -7.742   7.218  69.050  1.00  0.00    -0.112 A  
HETATM   25  C   UNL     1      -6.169   7.505  70.875  1.00  0.00    -0.035 A  
HETATM   26  C   UNL     1      -6.192   8.884  70.680  1.00  0.00    -0.042 A  
HETATM   27  C   UNL     1      -6.995   9.437  69.680  1.00  0.00    -0.058 A  
ENDBRANCH  19  20
ENDBRANCH   8  19
TORSDOF 3
ENDMDL
MODEL      244
REMARK 921   NORMALIZED FREE ENERGY PREDICTED BY IDOCK:   -3.31 KCAL/MOL
REMARK 922        TOTAL FREE ENERGY PREDICTED BY IDOCK:   -4.21 KCAL/MOL
REMARK 923 INTER-LIGAND FREE ENERGY PREDICTED BY IDOCK:   -3.76 KCAL/MOL
REMARK 924 INTRA-LIGAND FREE ENERGY PREDICTED BY IDOCK:   -0.45 KCAL/MOL
REMARK 927      BINDING AFFINITY PREDICTED BY RF-SCORE:    0.00 PKD
ROOT
HETATM    1  C   UNL     1     -10.887   6.000  71.794  1.00  0.00    -0.260 C  
HETATM    2  N   UNL     1     -10.522   6.712  70.584  1.00  0.00    -0.212 N  
HETATM    3  C   UNL     1     -11.139   7.898  70.294  1.00  0.00    -0.229 C  
HETATM    4  C   UNL     1     -10.626   8.618  69.124  1.00  0.00    -0.193 C  
HETATM    5  O   UNL     1     -12.063   8.388  70.938  1.00  0.00    -0.253 OA 
HETATM    6  C   UNL     1      -9.535   8.234  68.433  1.00  0.00    -0.139 C  
HETATM    7  O   UNL     1      -9.077   5.043  70.026  1.00  0.00    -0.115 OA 
HETATM    8  N   UNL     1      -8.955   7.015  68.831  1.00  0.00    -0.130 N  
HETATM    9  C   UNL     1      -9.508   6.181  69.814  1.00  0.00    -0.150 C  
ENDROOT
BRANCH   6  10
HETATM   10  N   UNL     1      -9.069   9.075  67.381  1.00  0.00    -0.130 NA 
HETATM   11  N   UNL     1      -9.884  11.888  68.256  1.00  0.00    -0.196 NA 
HETATM   12  C   UNL     1      -9.525   9.053  65.984  1.00  0.00    -0.256 C  
HETATM   13  C   UNL     1     -10.292  10.325  65.639  1.00  0.00    -0.232 C  
HETATM   14  H2  UNL     1     -10.673  11.246  68.181  1.00  0.00     0.000 HD 
HETATM   15  H1  UNL     1      -9.495  11.905  69.199  1.00  0.00     0.000 HD 
HETATM   16  C   UNL     1      -9.414  11.552  65.858  1.00  0.00    -0.251 C  
HETATM   17  C   UNL     1      -8.134  10.222  67.592  1.00  0.00    -0.106 C  
HETATM   18  C   UNL     1      -8.828  11.579  67.279  1.00  0.00    -0.160 C  
ENDBRANCH   6  10
BRANCH   8  19
HETATM   19  C   UNL     1      -7.581   6.643  68.485  1.00  0.00    -0.097 C  
BRANCH  19  20
HETATM   20  C   UNL     1      -7.200   6.616  67.008  1.00  0.00    -0.081 A  
HETATM   21  C   UNL     1      -7.128   5.361  64.918  1.00  0.00    -0.058 A  
HETATM   22  C   UNL     1      -8.687   4.648  66.655  1.00  0.00    -0.111 C  
HETATM   23  N   UNL     1      -9.498   3.917  67.044  1.00  0.00    -0.191 NA 
HETATM   24  C   UNL     1      -7.678   5.565  66.192  1.00  0.00    -0.095 A  
HETATM   25  C   UNL     1      -6.118   6.196  64.443  1.00  0.00    -0.029 A  
HETATM   26  C   UNL     1      -5.703   7.285  65.205  1.00  0.00    -0.037 A  
HETATM   27  C   UNL     1      -6.263   7.515  66.463  1.00  0.00    -0.045 A  
ENDBRANCH  19  20
ENDBRANCH   8  19
TORSDOF 3
ENDMDL
MODEL      245
REMARK 921   NORMALIZED FREE ENERGY PREDICTED BY IDOCK:   -3.31 KCAL/MOL
REMARK 922        TOTAL FREE ENERGY PREDICTED BY IDOCK:   -4.20 KCAL/MOL
REMARK 923 INTER-LIGAND FREE ENERGY PREDICTED BY IDOCK:   -4.61 KCAL/MOL
REMARK 924 INTRA-LIGAND FREE ENERGY PREDICTED BY IDOCK:    0.41 KCAL/MOL
REMARK 927      BINDING AFFINITY PREDICTED BY RF-SCORE:    0.00 PKD
ROOT
HETATM    1  C   UNL     1      -5.306  10.461  68.120  1.00  0.00    -0.034 C  
HETATM    2  N   UNL     1      -6.695  10.854  67.976  1.00  0.00    -0.063 N  
HETATM    3  C   UNL     1      -6.993  12.046  67.374  1.00  0.00    -0.139 C  
HETATM    4  C   UNL     1      -8.417  12.313  67.151  1.00  0.00    -0.184 C  
HETATM    5  O   UNL     1      -6.167  12.880  67.013  1.00  0.00    -0.242 OA 
HETATM    6  C   UNL     1      -9.390  11.411  67.389  1.00  0.00    -0.167 C  
HETATM    7  O   UNL     1      -7.354   8.964  69.062  1.00  0.00    -0.071 OA 
HETATM    8  N   UNL     1      -8.974  10.202  67.979  1.00  0.00    -0.125 N  
HETATM    9  C   UNL     1      -7.657   9.959  68.396  1.00  0.00    -0.083 C  
ENDROOT
BRANCH   6  10
HETATM   10  N   UNL     1     -10.728  11.746  67.029  1.00  0.00    -0.234 NA 
HETATM   11  N   UNL     1     -10.407  13.864  64.850  1.00  0.00    -0.481 NA 
HETATM   12  C   UNL     1     -11.732  12.368  67.903  1.00  0.00    -0.360 C  
HETATM   13  C   UNL     1     -12.057  13.785  67.444  1.00  0.00    -0.378 C  
HETATM   14  H2  UNL     1      -9.959  14.122  65.729  1.00  0.00     0.000 HD 
HETATM   15  H1  UNL     1      -9.763  13.383  64.220  1.00  0.00     0.000 HD 
HETATM   16  C   UNL     1     -12.580  13.772  66.012  1.00  0.00    -0.458 C  
HETATM   17  C   UNL     1     -11.260  11.644  65.636  1.00  0.00    -0.214 C  
HETATM   18  C   UNL     1     -11.612  13.047  65.064  1.00  0.00    -0.325 C  
ENDBRANCH   6  10
BRANCH   8  19
HETATM   19  C   UNL     1      -9.788   8.984  67.944  1.00  0.00    -0.171 C  
BRANCH  19  20
HETATM   20  C   UNL     1      -9.103   7.681  67.547  1.00  0.00    -0.131 A  
HETATM   21  C   UNL     1      -8.468   6.144  65.763  1.00  0.00    -0.147 A  
HETATM   22  C   UNL     1      -8.988   8.456  65.181  1.00  0.00     0.048 C  
HETATM   23  N   UNL     1      -9.118   9.292  64.389  1.00  0.00    -0.139 NA 
HETATM   24  C   UNL     1      -8.836   7.430  66.181  1.00  0.00    -0.185 A  
HETATM   25  C   UNL     1      -8.350   5.108  66.688  1.00  0.00    -0.108 A  
HETATM   26  C   UNL     1      -8.526   5.366  68.045  1.00  0.00    -0.097 A  
HETATM   27  C   UNL     1      -8.865   6.650  68.476  1.00  0.00    -0.122 A  
ENDBRANCH  19  20
ENDBRANCH   8  19
TORSDOF 3
ENDMDL
MODEL      246
REMARK 921   NORMALIZED FREE ENERGY PREDICTED BY IDOCK:   -3.29 KCAL/MOL
REMARK 922        TOTAL FREE ENERGY PREDICTED BY IDOCK:   -4.19 KCAL/MOL
REMARK 923 INTER-LIGAND FREE ENERGY PREDICTED BY IDOCK:   -4.51 KCAL/MOL
REMARK 924 INTRA-LIGAND FREE ENERGY PREDICTED BY IDOCK:    0.33 KCAL/MOL
REMARK 927      BINDING AFFINITY PREDICTED BY RF-SCORE:    0.00 PKD
ROOT
HETATM    1  C   UNL     1      -8.805  10.719  67.782  1.00  0.00    -0.130 C  
HETATM    2  N   UNL     1      -9.244   9.401  67.362  1.00  0.00    -0.126 N  
HETATM    3  C   UNL     1      -8.559   8.752  66.373  1.00  0.00    -0.128 C  
HETATM    4  C   UNL     1      -8.984   7.376  66.095  1.00  0.00    -0.182 C  
HETATM    5  O   UNL     1      -7.632   9.231  65.726  1.00  0.00    -0.096 OA 
HETATM    6  C   UNL     1      -9.898   6.716  66.833  1.00  0.00    -0.171 C  
HETATM    7  O   UNL     1     -10.985   9.504  68.826  1.00  0.00    -0.181 OA 
HETATM    8  N   UNL     1     -10.522   7.464  67.849  1.00  0.00    -0.206 N  
HETATM    9  C   UNL     1     -10.303   8.836  68.043  1.00  0.00    -0.220 C  
ENDROOT
BRANCH   6  10
HETATM   10  N   UNL     1     -10.148   5.345  66.533  1.00  0.00    -0.195 NA 
HETATM   11  N   UNL     1      -7.368   4.154  66.098  1.00  0.00    -0.078 NA 
HETATM   12  C   UNL     1     -10.879   4.831  65.366  1.00  0.00     0.002 C  
HETATM   13  C   UNL     1      -9.945   4.082  64.422  1.00  0.00    -0.192 C  
HETATM   14  H2  UNL     1      -7.573   4.933  65.473  1.00  0.00     0.000 HD 
HETATM   15  H1  UNL     1      -6.901   4.462  66.952  1.00  0.00     0.000 HD 
HETATM   16  C   UNL     1      -9.278   2.918  65.145  1.00  0.00    -0.145 C  
HETATM   17  C   UNL     1      -9.562   4.208  67.307  1.00  0.00    -0.190 C  
HETATM   18  C   UNL     1      -8.576   3.382  66.431  1.00  0.00    -0.119 C  
ENDBRANCH   6  10
BRANCH   8  19
HETATM   19  C   UNL     1     -11.219   6.840  68.976  1.00  0.00    -0.149 C  
BRANCH  19  20
HETATM   20  C   UNL     1     -10.888   7.333  70.380  1.00  0.00    -0.265 A  
HETATM   21  C   UNL     1      -9.411   7.206  72.318  1.00  0.00    -0.157 A  
HETATM   22  C   UNL     1      -8.579   6.421  70.163  1.00  0.00    -0.135 C  
HETATM   23  N   UNL     1      -7.742   5.946  69.517  1.00  0.00    -0.095 NA 
HETATM   24  C   UNL     1      -9.633   7.009  70.948  1.00  0.00    -0.167 A  
HETATM   25  C   UNL     1     -10.417   7.732  73.127  1.00  0.00    -0.413 A  
HETATM   26  C   UNL     1     -11.624   8.135  72.561  1.00  0.00    -0.468 A  
HETATM   27  C   UNL     1     -11.846   7.969  71.192  1.00  0.00    -0.307 A  
ENDBRANCH  19  20
ENDBRANCH   8  19
TORSDOF 3
ENDMDL
MODEL      247
REMARK 921   NORMALIZED FREE ENERGY PREDICTED BY IDOCK:   -3.19 KCAL/MOL
REMARK 922        TOTAL FREE ENERGY PREDICTED BY IDOCK:   -4.06 KCAL/MOL
REMARK 923 INTER-LIGAND FREE ENERGY PREDICTED BY IDOCK:   -4.76 KCAL/MOL
REMARK 924 INTRA-LIGAND FREE ENERGY PREDICTED BY IDOCK:    0.70 KCAL/MOL
REMARK 927      BINDING AFFINITY PREDICTED BY RF-SCORE:    0.00 PKD
ROOT
HETATM    1  C   UNL     1      -8.828   5.300  65.855  1.00  0.00    -0.145 C  
HETATM    2  N   UNL     1      -8.817   6.532  66.620  1.00  0.00    -0.127 N  
HETATM    3  C   UNL     1      -8.532   7.710  65.987  1.00  0.00    -0.144 C  
HETATM    4  C   UNL     1      -8.667   8.924  66.798  1.00  0.00    -0.130 C  
HETATM    5  O   UNL     1      -8.188   7.814  64.812  1.00  0.00    -0.145 OA 
HETATM    6  C   UNL     1      -9.163   8.930  68.051  1.00  0.00    -0.139 C  
HETATM    7  O   UNL     1      -9.278   5.367  68.522  1.00  0.00    -0.107 OA 
HETATM    8  N   UNL     1      -9.456   7.668  68.601  1.00  0.00    -0.151 N  
HETATM    9  C   UNL     1      -9.169   6.457  67.952  1.00  0.00    -0.113 C  
ENDROOT
BRANCH   6  10
HETATM   10  N   UNL     1      -9.348  10.186  68.700  1.00  0.00    -0.154 NA 
HETATM   11  N   UNL     1     -12.035  11.185  67.642  1.00  0.00    -0.566 NA 
HETATM   12  C   UNL     1      -8.503  11.377  68.543  1.00  0.00    -0.152 C  
HETATM   13  C   UNL     1      -9.258  12.493  67.827  1.00  0.00    -0.198 C  
HETATM   14  H2  UNL     1     -11.354  11.007  66.904  1.00  0.00     0.000 HD 
HETATM   15  H1  UNL     1     -12.620  10.370  67.827  1.00  0.00     0.000 HD 
HETATM   16  C   UNL     1     -10.513  12.870  68.605  1.00  0.00    -0.231 C  
HETATM   17  C   UNL     1     -10.541  10.515  69.538  1.00  0.00    -0.246 C  
HETATM   18  C   UNL     1     -11.393  11.642  68.884  1.00  0.00    -0.267 C  
ENDBRANCH   6  10
BRANCH   8  19
HETATM   19  C   UNL     1     -10.347   7.493  69.751  1.00  0.00    -0.221 C  
BRANCH  19  20
HETATM   20  C   UNL     1      -9.859   6.627  70.907  1.00  0.00    -0.197 A  
HETATM   21  C   UNL     1      -8.071   6.101  72.480  1.00  0.00    -0.104 A  
HETATM   22  C   UNL     1      -8.081   8.297  71.416  1.00  0.00    -0.125 C  
HETATM   23  N   UNL     1      -7.600   9.338  71.245  1.00  0.00    -0.338 NA 
HETATM   24  C   UNL     1      -8.693   7.008  71.610  1.00  0.00    -0.116 A  
HETATM   25  C   UNL     1      -8.601   4.826  72.668  1.00  0.00    -0.115 A  
HETATM   26  C   UNL     1      -9.797   4.474  72.047  1.00  0.00    -0.240 A  
HETATM   27  C   UNL     1     -10.440   5.378  71.200  1.00  0.00    -0.295 A  
ENDBRANCH  19  20
ENDBRANCH   8  19
TORSDOF 3
ENDMDL
MODEL      248
REMARK 921   NORMALIZED FREE ENERGY PREDICTED BY IDOCK:   -3.17 KCAL/MOL
REMARK 922        TOTAL FREE ENERGY PREDICTED BY IDOCK:   -4.05 KCAL/MOL
REMARK 923 INTER-LIGAND FREE ENERGY PREDICTED BY IDOCK:   -3.79 KCAL/MOL
REMARK 924 INTRA-LIGAND FREE ENERGY PREDICTED BY IDOCK:   -0.25 KCAL/MOL
REMARK 927      BINDING AFFINITY PREDICTED BY RF-SCORE:    0.00 PKD
ROOT
HETATM    1  C   UNL     1      -8.578   1.558  70.061  1.00  0.00    -0.049 C  
HETATM    2  N   UNL     1      -9.361   2.779  70.082  1.00  0.00    -0.135 N  
HETATM    3  C   UNL     1      -9.738   3.311  71.285  1.00  0.00    -0.151 C  
HETATM    4  C   UNL     1     -10.415   4.610  71.227  1.00  0.00    -0.070 C  
HETATM    5  O   UNL     1      -9.545   2.788  72.379  1.00  0.00    -0.105 OA 
HETATM    6  C   UNL     1     -10.557   5.326  70.094  1.00  0.00    -0.227 C  
HETATM    7  O   UNL     1      -9.399   2.806  67.805  1.00  0.00    -0.194 OA 
HETATM    8  N   UNL     1     -10.107   4.704  68.915  1.00  0.00    -0.096 N  
HETATM    9  C   UNL     1      -9.628   3.385  68.872  1.00  0.00    -0.051 C  
ENDROOT
BRANCH   6  10
HETATM   10  N   UNL     1     -11.135   6.626  70.182  1.00  0.00    -0.301 NA 
HETATM   11  N   UNL     1      -8.735   8.494  70.486  1.00  0.00    -0.143 NA 
HETATM   12  C   UNL     1     -12.026   7.110  71.246  1.00  0.00    -0.337 C  
HETATM   13  C   UNL     1     -11.344   8.184  72.085  1.00  0.00    -0.399 C  
HETATM   14  H2  UNL     1      -8.787   7.783  71.216  1.00  0.00     0.000 HD 
HETATM   15  H1  UNL     1      -8.165   8.189  69.697  1.00  0.00     0.000 HD 
HETATM   16  C   UNL     1     -10.928   9.360  71.209  1.00  0.00    -0.440 C  
HETATM   17  C   UNL     1     -10.789   7.749  69.259  1.00  0.00    -0.080 C  
HETATM   18  C   UNL     1     -10.070   8.901  70.020  1.00  0.00    -0.192 C  
ENDBRANCH   6  10
BRANCH   8  19
HETATM   19  C   UNL     1      -9.812   5.450  67.689  1.00  0.00    -0.150 C  
BRANCH  19  20
HETATM   20  C   UNL     1      -8.352   5.754  67.373  1.00  0.00    -0.104 A  
HETATM   21  C   UNL     1      -6.413   5.322  65.958  1.00  0.00    -0.040 A  
HETATM   22  C   UNL     1      -8.629   4.759  65.105  1.00  0.00    -0.140 C  
HETATM   23  N   UNL     1      -9.309   4.322  64.275  1.00  0.00    -0.154 NA 
HETATM   24  C   UNL     1      -7.801   5.302  66.152  1.00  0.00    -0.103 A  
HETATM   25  C   UNL     1      -5.567   5.798  66.959  1.00  0.00    -0.016 A  
HETATM   26  C   UNL     1      -6.107   6.326  68.129  1.00  0.00    -0.027 A  
HETATM   27  C   UNL     1      -7.490   6.337  68.322  1.00  0.00    -0.090 A  
ENDBRANCH  19  20
ENDBRANCH   8  19
TORSDOF 3
ENDMDL
MODEL      249
REMARK 921   NORMALIZED FREE ENERGY PREDICTED BY IDOCK:   -3.17 KCAL/MOL
REMARK 922        TOTAL FREE ENERGY PREDICTED BY IDOCK:   -4.04 KCAL/MOL
REMARK 923 INTER-LIGAND FREE ENERGY PREDICTED BY IDOCK:   -3.95 KCAL/MOL
REMARK 924 INTRA-LIGAND FREE ENERGY PREDICTED BY IDOCK:   -0.09 KCAL/MOL
REMARK 927      BINDING AFFINITY PREDICTED BY RF-SCORE:    0.00 PKD
ROOT
HETATM    1  C   UNL     1      -8.927  10.275  66.764  1.00  0.00    -0.132 C  
HETATM    2  N   UNL     1      -8.830   8.894  66.331  1.00  0.00    -0.144 N  
HETATM    3  C   UNL     1      -7.670   8.455  65.753  1.00  0.00    -0.094 C  
HETATM    4  C   UNL     1      -7.603   7.020  65.460  1.00  0.00    -0.091 C  
HETATM    5  O   UNL     1      -6.706   9.165  65.479  1.00  0.00    -0.071 OA 
HETATM    6  C   UNL     1      -8.549   6.138  65.839  1.00  0.00    -0.147 C  
HETATM    7  O   UNL     1     -10.981   8.527  66.980  1.00  0.00    -0.095 OA 
HETATM    8  N   UNL     1      -9.688   6.688  66.456  1.00  0.00    -0.152 N  
HETATM    9  C   UNL     1      -9.903   8.068  66.592  1.00  0.00    -0.252 C  
ENDROOT
BRANCH   6  10
HETATM   10  N   UNL     1      -8.320   4.752  65.593  1.00  0.00    -0.116 NA 
HETATM   11  N   UNL     1      -5.746   4.700  63.946  1.00  0.00    -0.016 NA 
HETATM   12  C   UNL     1      -9.187   3.853  64.821  1.00  0.00    -0.149 C  
HETATM   13  C   UNL     1      -8.510   3.418  63.526  1.00  0.00    -0.090 C  
HETATM   14  H2  UNL     1      -6.488   5.253  63.516  1.00  0.00     0.000 HD 
HETATM   15  H1  UNL     1      -5.140   5.270  64.536  1.00  0.00     0.000 HD 
HETATM   16  C   UNL     1      -7.195   2.708  63.825  1.00  0.00    -0.049 C  
HETATM   17  C   UNL     1      -7.061   4.042  65.975  1.00  0.00    -0.067 C  
HETATM   18  C   UNL     1      -6.282   3.566  64.715  1.00  0.00    -0.023 C  
ENDBRANCH   6  10
BRANCH   8  19
HETATM   19  C   UNL     1     -10.607   5.892  67.273  1.00  0.00    -0.291 C  
BRANCH  19  20
HETATM   20  C   UNL     1     -10.449   5.953  68.788  1.00  0.00    -0.314 A  
HETATM   21  C   UNL     1     -10.146   4.741  70.883  1.00  0.00    -0.275 A  
HETATM   22  C   UNL     1      -9.543   3.633  68.795  1.00  0.00    -0.089 C  
HETATM   23  N   UNL     1      -9.152   2.703  68.222  1.00  0.00    -0.158 NA 
HETATM   24  C   UNL     1     -10.033   4.797  69.487  1.00  0.00    -0.287 A  
HETATM   25  C   UNL     1     -10.656   5.827  71.593  1.00  0.00    -0.302 A  
HETATM   26  C   UNL     1     -10.986   7.002  70.922  1.00  0.00    -0.282 A  
HETATM   27  C   UNL     1     -10.852   7.078  69.535  1.00  0.00    -0.265 A  
ENDBRANCH  19  20
ENDBRANCH   8  19
TORSDOF 3
ENDMDL
MODEL      250
REMARK 921   NORMALIZED FREE ENERGY PREDICTED BY IDOCK:   -3.07 KCAL/MOL
REMARK 922        TOTAL FREE ENERGY PREDICTED BY IDOCK:   -3.93 KCAL/MOL
REMARK 923 INTER-LIGAND FREE ENERGY PREDICTED BY IDOCK:   -4.20 KCAL/MOL
REMARK 924 INTRA-LIGAND FREE ENERGY PREDICTED BY IDOCK:    0.28 KCAL/MOL
REMARK 927      BINDING AFFINITY PREDICTED BY RF-SCORE:    0.00 PKD
ROOT
HETATM    1  C   UNL     1     -10.091  17.788  68.326  1.00  0.00    -0.371 C  
HETATM    2  N   UNL     1     -10.221  16.351  68.475  1.00  0.00    -0.245 N  
HETATM    3  C   UNL     1     -11.468  15.803  68.605  1.00  0.00    -0.386 C  
HETATM    4  C   UNL     1     -11.525  14.338  68.623  1.00  0.00    -0.328 C  
HETATM    5  O   UNL     1     -12.513  16.442  68.698  1.00  0.00     0.559 OA 
HETATM    6  C   UNL     1     -10.457  13.548  68.396  1.00  0.00    -0.246 C  
HETATM    7  O   UNL     1      -7.955  16.130  68.435  1.00  0.00    -0.150 OA 
HETATM    8  N   UNL     1      -9.226  14.212  68.243  1.00  0.00    -0.194 N  
HETATM    9  C   UNL     1      -9.068  15.596  68.407  1.00  0.00    -0.190 C  
ENDROOT
BRANCH   6  10
HETATM   10  N   UNL     1     -10.659  12.138  68.330  1.00  0.00    -0.219 NA 
HETATM   11  N   UNL     1     -11.970  11.444  71.002  1.00  0.00    -0.314 NA 
HETATM   12  C   UNL     1      -9.610  11.115  68.237  1.00  0.00    -0.185 C  
HETATM   13  C   UNL     1      -9.543  10.282  69.513  1.00  0.00    -0.225 C  
HETATM   14  H2  UNL     1     -11.062  11.898  71.106  1.00  0.00     0.000 HD 
HETATM   15  H1  UNL     1     -12.736  12.118  71.011  1.00  0.00     0.000 HD 
HETATM   16  C   UNL     1     -10.882   9.602  69.775  1.00  0.00    -0.274 C  
HETATM   17  C   UNL     1     -11.993  11.486  68.497  1.00  0.00    -0.224 C  
HETATM   18  C   UNL     1     -12.036  10.617  69.788  1.00  0.00    -0.291 C  
ENDBRANCH   6  10
BRANCH   8  19
HETATM   19  C   UNL     1      -8.062  13.584  67.611  1.00  0.00    -0.180 C  
BRANCH  19  20
HETATM   20  C   UNL     1      -6.928  13.113  68.514  1.00  0.00    -0.103 A  
HETATM   21  C   UNL     1      -5.411  11.313  69.154  1.00  0.00    -0.040 A  
HETATM   22  C   UNL     1      -6.457  11.230  66.951  1.00  0.00    -0.128 C  
HETATM   23  N   UNL     1      -6.633  10.697  65.937  1.00  0.00    -0.127 NA 
HETATM   24  C   UNL     1      -6.255  11.908  68.206  1.00  0.00    -0.050 A  
HETATM   25  C   UNL     1      -5.218  11.909  70.399  1.00  0.00    -0.113 A  
HETATM   26  C   UNL     1      -5.807  13.139  70.679  1.00  0.00    -0.143 A  
HETATM   27  C   UNL     1      -6.628  13.755  69.731  1.00  0.00    -0.034 A  
ENDBRANCH  19  20
ENDBRANCH   8  19
TORSDOF 3
ENDMDL
MODEL      251
REMARK 921   NORMALIZED FREE ENERGY PREDICTED BY IDOCK:   -3.03 KCAL/MOL
REMARK 922        TOTAL FREE ENERGY PREDICTED BY IDOCK:   -3.88 KCAL/MOL
REMARK 923 INTER-LIGAND FREE ENERGY PREDICTED BY IDOCK:   -3.58 KCAL/MOL
REMARK 924 INTRA-LIGAND FREE ENERGY PREDICTED BY IDOCK:   -0.30 KCAL/MOL
REMARK 927      BINDING AFFINITY PREDICTED BY RF-SCORE:    0.00 PKD
ROOT
HETATM    1  C   UNL     1      -9.360   1.471  70.253  1.00  0.00    -0.095 C  
HETATM    2  N   UNL     1      -9.457   2.786  69.647  1.00  0.00    -0.119 N  
HETATM    3  C   UNL     1      -9.696   3.873  70.443  1.00  0.00    -0.175 C  
HETATM    4  C   UNL     1      -9.652   5.178  69.776  1.00  0.00    -0.242 C  
HETATM    5  O   UNL     1      -9.931   3.827  71.647  1.00  0.00    -0.182 OA 
HETATM    6  C   UNL     1      -9.274   5.346  68.493  1.00  0.00    -0.111 C  
HETATM    7  O   UNL     1      -9.160   1.869  67.584  1.00  0.00    -0.137 OA 
HETATM    8  N   UNL     1      -9.018   4.166  67.769  1.00  0.00    -0.114 N  
HETATM    9  C   UNL     1      -9.229   2.880  68.290  1.00  0.00    -0.193 C  
ENDROOT
BRANCH   6  10
HETATM   10  N   UNL     1      -9.165   6.675  67.988  1.00  0.00    -0.114 NA 
HETATM   11  N   UNL     1     -11.346   8.220  69.470  1.00  0.00    -0.413 NA 
HETATM   12  C   UNL     1      -9.392   7.097  66.599  1.00  0.00    -0.166 C  
HETATM   13  C   UNL     1     -10.639   7.967  66.488  1.00  0.00     0.141 C  
HETATM   14  H2  UNL     1     -11.705   7.424  68.942  1.00  0.00     0.000 HD 
HETATM   15  H1  UNL     1     -11.124   7.969  70.434  1.00  0.00     0.000 HD 
HETATM   16  C   UNL     1     -10.506   9.203  67.370  1.00  0.00    -0.339 C  
HETATM   17  C   UNL     1      -8.942   7.873  68.854  1.00  0.00    -0.141 C  
HETATM   18  C   UNL     1     -10.172   8.825  68.822  1.00  0.00    -0.206 C  
ENDBRANCH   6  10
BRANCH   8  19
HETATM   19  C   UNL     1      -8.236   4.152  66.531  1.00  0.00    -0.101 C  
BRANCH  19  20
HETATM   20  C   UNL     1      -8.894   3.585  65.278  1.00  0.00    -0.124 A  
HETATM   21  C   UNL     1      -8.615   2.509  63.107  1.00  0.00    -0.085 A  
HETATM   22  C   UNL     1      -6.801   2.348  64.731  1.00  0.00    -0.047 C  
HETATM   23  N   UNL     1      -5.739   1.990  65.024  1.00  0.00    -0.012 NA 
HETATM   24  C   UNL     1      -8.122   2.806  64.385  1.00  0.00    -0.082 A  
HETATM   25  C   UNL     1      -9.871   2.967  62.711  1.00  0.00    -0.094 A  
HETATM   26  C   UNL     1     -10.673   3.660  63.614  1.00  0.00    -0.260 A  
HETATM   27  C   UNL     1     -10.204   3.937  64.900  1.00  0.00    -0.172 A  
ENDBRANCH  19  20
ENDBRANCH   8  19
TORSDOF 3
ENDMDL
MODEL      252
REMARK 921   NORMALIZED FREE ENERGY PREDICTED BY IDOCK:   -3.02 KCAL/MOL
REMARK 922        TOTAL FREE ENERGY PREDICTED BY IDOCK:   -3.87 KCAL/MOL
REMARK 923 INTER-LIGAND FREE ENERGY PREDICTED BY IDOCK:   -4.26 KCAL/MOL
REMARK 924 INTRA-LIGAND FREE ENERGY PREDICTED BY IDOCK:    0.39 KCAL/MOL
REMARK 927      BINDING AFFINITY PREDICTED BY RF-SCORE:    0.00 PKD
ROOT
HETATM    1  C   UNL     1      -5.646   7.484  69.981  1.00  0.00    -0.023 C  
HETATM    2  N   UNL     1      -7.023   7.905  70.156  1.00  0.00    -0.049 N  
HETATM    3  C   UNL     1      -7.368   9.198  69.875  1.00  0.00    -0.064 C  
HETATM    4  C   UNL     1      -8.798   9.512  69.953  1.00  0.00    -0.227 C  
HETATM    5  O   UNL     1      -6.579  10.086  69.563  1.00  0.00    -0.046 OA 
HETATM    6  C   UNL     1      -9.754   8.585  70.156  1.00  0.00    -0.170 C  
HETATM    7  O   UNL     1      -7.572   5.830  70.918  1.00  0.00    -0.087 OA 
HETATM    8  N   UNL     1      -9.296   7.277  70.403  1.00  0.00    -0.159 N  
HETATM    9  C   UNL     1      -7.939   6.945  70.535  1.00  0.00    -0.114 C  
ENDROOT
BRANCH   6  10
HETATM   10  N   UNL     1     -11.118   8.995  70.102  1.00  0.00    -0.232 NA 
HETATM   11  N   UNL     1     -10.976  12.044  69.943  1.00  0.00    -0.395 NA 
HETATM   12  C   UNL     1     -12.126   8.798  71.153  1.00  0.00    -0.267 C  
HETATM   13  C   UNL     1     -12.539  10.128  71.772  1.00  0.00    -0.500 C  
HETATM   14  H2  UNL     1     -10.516  11.663  70.769  1.00  0.00     0.000 HD 
HETATM   15  H1  UNL     1     -10.328  12.156  69.163  1.00  0.00     0.000 HD 
HETATM   16  C   UNL     1     -13.105  11.059  70.706  1.00  0.00    -0.135 C  
HETATM   17  C   UNL     1     -11.687   9.833  69.003  1.00  0.00     0.376 C  
HETATM   18  C   UNL     1     -12.129  11.228  69.531  1.00  0.00    -0.317 C  
ENDBRANCH   6  10
BRANCH   8  19
HETATM   19  C   UNL     1     -10.152   6.098  70.251  1.00  0.00    -0.188 C  
BRANCH  19  20
HETATM   20  C   UNL     1      -9.620   4.933  69.424  1.00  0.00    -0.239 A  
HETATM   21  C   UNL     1      -9.344   3.921  67.221  1.00  0.00    -0.220 A  
HETATM   22  C   UNL     1      -9.778   6.319  67.359  1.00  0.00    -0.120 C  
HETATM   23  N   UNL     1      -9.958   7.342  66.846  1.00  0.00    -0.218 NA 
HETATM   24  C   UNL     1      -9.561   5.056  68.016  1.00  0.00    -0.181 A  
HETATM   25  C   UNL     1      -9.172   2.670  67.810  1.00  0.00    -0.244 A  
HETATM   26  C   UNL     1      -9.140   2.554  69.197  1.00  0.00    -0.188 A  
HETATM   27  C   UNL     1      -9.328   3.681  70.000  1.00  0.00    -0.248 A  
ENDBRANCH  19  20
ENDBRANCH   8  19
TORSDOF 3
ENDMDL
MODEL      253
REMARK 921   NORMALIZED FREE ENERGY PREDICTED BY IDOCK:   -3.02 KCAL/MOL
REMARK 922        TOTAL FREE ENERGY PREDICTED BY IDOCK:   -3.86 KCAL/MOL
REMARK 923 INTER-LIGAND FREE ENERGY PREDICTED BY IDOCK:   -5.20 KCAL/MOL
REMARK 924 INTRA-LIGAND FREE ENERGY PREDICTED BY IDOCK:    1.34 KCAL/MOL
REMARK 927      BINDING AFFINITY PREDICTED BY RF-SCORE:    0.00 PKD
ROOT
HETATM    1  C   UNL     1      -9.926   7.380  68.679  1.00  0.00    -0.169 C  
HETATM    2  N   UNL     1     -10.059   8.777  68.311  1.00  0.00    -0.181 N  
HETATM    3  C   UNL     1     -10.792   9.612  69.109  1.00  0.00    -0.190 C  
HETATM    4  C   UNL     1     -10.773  11.031  68.741  1.00  0.00    -0.240 C  
HETATM    5  O   UNL     1     -11.439   9.260  70.092  1.00  0.00    -0.216 OA 
HETATM    6  C   UNL     1      -9.992  11.537  67.766  1.00  0.00    -0.183 C  
HETATM    7  O   UNL     1      -8.843   8.406  66.422  1.00  0.00    -0.136 OA 
HETATM    8  N   UNL     1      -9.252  10.597  67.023  1.00  0.00    -0.151 N  
HETATM    9  C   UNL     1      -9.372   9.210  67.196  1.00  0.00    -0.143 C  
ENDROOT
BRANCH   6  10
HETATM   10  N   UNL     1      -9.979  12.949  67.573  1.00  0.00    -0.212 NA 
HETATM   11  N   UNL     1     -11.758  14.026  69.812  1.00  0.00    -0.297 NA 
HETATM   12  C   UNL     1     -10.500  13.671  66.404  1.00  0.00    -0.288 C  
HETATM   13  C   UNL     1     -11.729  14.495  66.773  1.00  0.00    -0.393 C  
HETATM   14  H2  UNL     1     -12.235  13.361  69.205  1.00  0.00     0.000 HD 
HETATM   15  H1  UNL     1     -11.332  13.569  70.619  1.00  0.00     0.000 HD 
HETATM   16  C   UNL     1     -11.388  15.498  67.868  1.00  0.00    -0.309 C  
HETATM   17  C   UNL     1      -9.554  13.923  68.624  1.00  0.00    -0.142 C  
HETATM   18  C   UNL     1     -10.747  14.810  69.083  1.00  0.00    -0.254 C  
ENDBRANCH   6  10
BRANCH   8  19
HETATM   19  C   UNL     1      -8.083  10.966  66.221  1.00  0.00    -0.165 C  
BRANCH  19  20
HETATM   20  C   UNL     1      -7.825  10.186  64.937  1.00  0.00    -0.147 A  
HETATM   21  C   UNL     1      -8.716   9.299  62.847  1.00  0.00    -0.210 A  
HETATM   22  C   UNL     1      -9.908  11.125  63.941  1.00  0.00    -0.308 C  
HETATM   23  N   UNL     1     -10.799  11.864  63.986  1.00  0.00    -0.343 NA 
HETATM   24  C   UNL     1      -8.794  10.213  63.907  1.00  0.00    -0.248 A  
HETATM   25  C   UNL     1      -7.680   8.368  62.792  1.00  0.00    -0.125 A  
HETATM   26  C   UNL     1      -6.674   8.392  63.755  1.00  0.00    -0.076 A  
HETATM   27  C   UNL     1      -6.726   9.316  64.801  1.00  0.00    -0.080 A  
ENDBRANCH  19  20
ENDBRANCH   8  19
TORSDOF 3
ENDMDL
MODEL      254
REMARK 921   NORMALIZED FREE ENERGY PREDICTED BY IDOCK:   -2.99 KCAL/MOL
REMARK 922        TOTAL FREE ENERGY PREDICTED BY IDOCK:   -3.83 KCAL/MOL
REMARK 923 INTER-LIGAND FREE ENERGY PREDICTED BY IDOCK:   -4.93 KCAL/MOL
REMARK 924 INTRA-LIGAND FREE ENERGY PREDICTED BY IDOCK:    1.10 KCAL/MOL
REMARK 927      BINDING AFFINITY PREDICTED BY RF-SCORE:    0.00 PKD
ROOT
HETATM    1  C   UNL     1     -12.592  11.394  70.433  1.00  0.00    -0.185 C  
HETATM    2  N   UNL     1     -12.067  10.081  70.755  1.00  0.00    -0.309 N  
HETATM    3  C   UNL     1     -12.556   9.414  71.846  1.00  0.00    -0.401 C  
HETATM    4  C   UNL     1     -12.069   8.044  72.031  1.00  0.00    -0.377 C  
HETATM    5  O   UNL     1     -13.360   9.876  72.652  1.00  0.00    -0.198 OA 
HETATM    6  C   UNL     1     -11.293   7.402  71.135  1.00  0.00    -0.268 C  
HETATM    7  O   UNL     1     -10.617  10.219  69.006  1.00  0.00    -0.198 OA 
HETATM    8  N   UNL     1     -10.870   8.166  70.031  1.00  0.00    -0.247 N  
HETATM    9  C   UNL     1     -11.139   9.536  69.892  1.00  0.00    -0.216 C  
ENDROOT
BRANCH   6  10
HETATM   10  N   UNL     1     -10.974   6.033  71.374  1.00  0.00    -0.270 NA 
HETATM   11  N   UNL     1      -8.807   6.135  73.527  1.00  0.00    -0.125 NA 
HETATM   12  C   UNL     1     -10.388   5.097  70.405  1.00  0.00    -0.256 C  
HETATM   13  C   UNL     1      -8.968   4.712  70.805  1.00  0.00    -0.166 C  
HETATM   14  H2  UNL     1      -8.560   6.651  72.683  1.00  0.00     0.000 HD 
HETATM   15  H1  UNL     1      -9.265   6.730  74.218  1.00  0.00     0.000 HD 
HETATM   16  C   UNL     1      -8.961   4.070  72.188  1.00  0.00    -0.145 C  
HETATM   17  C   UNL     1     -11.058   5.387  72.719  1.00  0.00    -0.294 C  
HETATM   18  C   UNL     1      -9.650   4.966  73.229  1.00  0.00    -0.129 C  
ENDBRANCH   6  10
BRANCH   8  19
HETATM   19  C   UNL     1     -10.377   7.560  68.792  1.00  0.00    -0.200 C  
BRANCH  19  20
HETATM   20  C   UNL     1      -9.213   8.240  68.080  1.00  0.00    -0.137 A  
HETATM   21  C   UNL     1      -7.098   9.440  68.266  1.00  0.00    -0.076 A  
HETATM   22  C   UNL     1      -7.852   8.105  70.163  1.00  0.00    -0.098 C  
HETATM   23  N   UNL     1      -7.705   7.717  71.246  1.00  0.00    -0.082 NA 
HETATM   24  C   UNL     1      -8.055   8.579  68.818  1.00  0.00    -0.120 A  
HETATM   25  C   UNL     1      -7.272   9.959  66.983  1.00  0.00    -0.090 A  
HETATM   26  C   UNL     1      -8.364   9.562  66.217  1.00  0.00    -0.117 A  
HETATM   27  C   UNL     1      -9.310   8.682  66.747  1.00  0.00    -0.229 A  
ENDBRANCH  19  20
ENDBRANCH   8  19
TORSDOF 3
ENDMDL
MODEL      255
REMARK 921   NORMALIZED FREE ENERGY PREDICTED BY IDOCK:   -2.96 KCAL/MOL
REMARK 922        TOTAL FREE ENERGY PREDICTED BY IDOCK:   -3.80 KCAL/MOL
REMARK 923 INTER-LIGAND FREE ENERGY PREDICTED BY IDOCK:   -3.45 KCAL/MOL
REMARK 924 INTRA-LIGAND FREE ENERGY PREDICTED BY IDOCK:   -0.35 KCAL/MOL
REMARK 927      BINDING AFFINITY PREDICTED BY RF-SCORE:    0.00 PKD
ROOT
HETATM    1  C   UNL     1      -7.822  10.193  69.892  1.00  0.00    -0.151 C  
HETATM    2  N   UNL     1      -8.167   8.946  69.236  1.00  0.00    -0.112 N  
HETATM    3  C   UNL     1      -9.132   8.146  69.785  1.00  0.00    -0.148 C  
HETATM    4  C   UNL     1      -9.513   6.969  68.998  1.00  0.00    -0.138 C  
HETATM    5  O   UNL     1      -9.688   8.349  70.860  1.00  0.00    -0.164 OA 
HETATM    6  C   UNL     1      -9.061   6.729  67.751  1.00  0.00    -0.117 C  
HETATM    7  O   UNL     1      -6.580   9.329  67.649  1.00  0.00    -0.063 OA 
HETATM    8  N   UNL     1      -8.094   7.629  67.265  1.00  0.00    -0.117 N  
HETATM    9  C   UNL     1      -7.543   8.662  68.038  1.00  0.00    -0.098 C  
ENDROOT
BRANCH   6  10
HETATM   10  N   UNL     1      -9.588   5.609  67.044  1.00  0.00    -0.128 NA 
HETATM   11  N   UNL     1      -7.447   3.451  67.356  1.00  0.00    -0.066 NA 
HETATM   12  C   UNL     1      -9.868   5.546  65.603  1.00  0.00     0.165 C  
HETATM   13  C   UNL     1      -8.918   4.580  64.902  1.00  0.00    -0.151 C  
HETATM   14  H2  UNL     1      -7.098   4.303  66.919  1.00  0.00     0.000 HD 
HETATM   15  H1  UNL     1      -7.322   3.462  68.369  1.00  0.00     0.000 HD 
HETATM   16  C   UNL     1      -9.047   3.182  65.498  1.00  0.00    -0.151 C  
HETATM   17  C   UNL     1      -9.798   4.264  67.662  1.00  0.00    -0.094 C  
HETATM   18  C   UNL     1      -8.859   3.200  67.023  1.00  0.00    -0.140 C  
ENDBRANCH   6  10
BRANCH   8  19
HETATM   19  C   UNL     1      -7.791   7.769  65.839  1.00  0.00    -0.102 C  
BRANCH  19  20
HETATM   20  C   UNL     1      -8.694   8.670  65.003  1.00  0.00    -0.154 A  
HETATM   21  C   UNL     1      -9.149   9.699  62.839  1.00  0.00    -0.241 A  
HETATM   22  C   UNL     1      -7.707   7.732  62.916  1.00  0.00    -0.131 C  
HETATM   23  N   UNL     1      -7.033   6.954  62.383  1.00  0.00    -0.050 NA 
HETATM   24  C   UNL     1      -8.536   8.692  63.598  1.00  0.00    -0.012 A  
HETATM   25  C   UNL     1      -9.927  10.676  63.459  1.00  0.00    -0.347 A  
HETATM   26  C   UNL     1     -10.158  10.611  64.831  1.00  0.00    -0.402 A  
HETATM   27  C   UNL     1      -9.575   9.596  65.593  1.00  0.00    -0.338 A  
ENDBRANCH  19  20
ENDBRANCH   8  19
TORSDOF 3
ENDMDL
MODEL      256
REMARK 921   NORMALIZED FREE ENERGY PREDICTED BY IDOCK:   -2.96 KCAL/MOL
REMARK 922        TOTAL FREE ENERGY PREDICTED BY IDOCK:   -3.79 KCAL/MOL
REMARK 923 INTER-LIGAND FREE ENERGY PREDICTED BY IDOCK:   -4.24 KCAL/MOL
REMARK 924 INTRA-LIGAND FREE ENERGY PREDICTED BY IDOCK:    0.45 KCAL/MOL
REMARK 927      BINDING AFFINITY PREDICTED BY RF-SCORE:    0.00 PKD
ROOT
HETATM    1  C   UNL     1      -8.714   9.995  65.248  1.00  0.00    -0.163 C  
HETATM    2  N   UNL     1      -8.812   9.294  66.515  1.00  0.00    -0.130 N  
HETATM    3  C   UNL     1      -9.672   9.760  67.471  1.00  0.00    -0.157 C  
HETATM    4  C   UNL     1      -9.809   8.928  68.670  1.00  0.00    -0.179 C  
HETATM    5  O   UNL     1     -10.325  10.797  67.388  1.00  0.00    -0.191 OA 
HETATM    6  C   UNL     1      -9.242   7.712  68.802  1.00  0.00    -0.142 C  
HETATM    7  O   UNL     1      -7.204   7.830  65.842  1.00  0.00    -0.070 OA 
HETATM    8  N   UNL     1      -8.400   7.311  67.747  1.00  0.00    -0.118 N  
HETATM    9  C   UNL     1      -8.073   8.139  66.663  1.00  0.00    -0.103 C  
ENDROOT
BRANCH   6  10
HETATM   10  N   UNL     1      -9.537   6.950  69.970  1.00  0.00    -0.158 NA 
HETATM   11  N   UNL     1     -12.401   7.746  70.679  1.00  0.00    -0.508 NA 
HETATM   12  C   UNL     1      -8.865   7.060  71.271  1.00  0.00    -0.133 C  
HETATM   13  C   UNL     1      -9.806   7.630  72.327  1.00  0.00    -0.229 C  
HETATM   14  H2  UNL     1     -11.759   8.539  70.649  1.00  0.00     0.000 HD 
HETATM   15  H1  UNL     1     -12.861   7.593  69.782  1.00  0.00     0.000 HD 
HETATM   16  C   UNL     1     -11.038   6.745  72.475  1.00  0.00    -0.299 C  
HETATM   17  C   UNL     1     -10.696   6.012  70.074  1.00  0.00    -0.311 C  
HETATM   18  C   UNL     1     -11.731   6.513  71.123  1.00  0.00    -0.335 C  
ENDBRANCH   6  10
BRANCH   8  19
HETATM   19  C   UNL     1      -8.028   5.913  67.521  1.00  0.00    -0.102 C  
BRANCH  19  20
HETATM   20  C   UNL     1      -8.688   5.178  66.359  1.00  0.00    -0.113 A  
HETATM   21  C   UNL     1      -9.656   3.107  65.509  1.00  0.00    -0.015 A  
HETATM   22  C   UNL     1      -9.498   3.417  67.925  1.00  0.00    -0.165 C  
HETATM   23  N   UNL     1      -9.654   3.025  69.004  1.00  0.00    -0.090 NA 
HETATM   24  C   UNL     1      -9.293   3.921  66.591  1.00  0.00    -0.201 A  
HETATM   25  C   UNL     1      -9.437   3.533  64.200  1.00  0.00    -0.142 A  
HETATM   26  C   UNL     1      -8.923   4.805  63.962  1.00  0.00    -0.082 A  
HETATM   27  C   UNL     1      -8.583   5.636  65.031  1.00  0.00    -0.108 A  
ENDBRANCH  19  20
ENDBRANCH   8  19
TORSDOF 3
ENDMDL
MODEL      257
REMARK 921   NORMALIZED FREE ENERGY PREDICTED BY IDOCK:   -2.94 KCAL/MOL
REMARK 922        TOTAL FREE ENERGY PREDICTED BY IDOCK:   -3.77 KCAL/MOL
REMARK 923 INTER-LIGAND FREE ENERGY PREDICTED BY IDOCK:   -2.95 KCAL/MOL
REMARK 924 INTRA-LIGAND FREE ENERGY PREDICTED BY IDOCK:   -0.81 KCAL/MOL
REMARK 927      BINDING AFFINITY PREDICTED BY RF-SCORE:    0.00 PKD
ROOT
HETATM    1  C   UNL     1      -8.044   6.904  62.430  1.00  0.00    -0.108 C  
HETATM    2  N   UNL     1      -7.697   7.657  63.620  1.00  0.00    -0.119 N  
HETATM    3  C   UNL     1      -7.312   8.963  63.496  1.00  0.00    -0.098 C  
HETATM    4  C   UNL     1      -7.101   9.691  64.751  1.00  0.00    -0.115 C  
HETATM    5  O   UNL     1      -7.143   9.551  62.431  1.00  0.00    -0.100 OA 
HETATM    6  C   UNL     1      -7.385   9.180  65.965  1.00  0.00    -0.094 C  
HETATM    7  O   UNL     1      -8.051   5.810  64.904  1.00  0.00    -0.119 OA 
HETATM    8  N   UNL     1      -7.806   7.837  65.982  1.00  0.00    -0.096 N  
HETATM    9  C   UNL     1      -7.843   7.025  64.838  1.00  0.00    -0.126 C  
ENDROOT
BRANCH   6  10
HETATM   10  N   UNL     1      -7.242  10.024  67.105  1.00  0.00    -0.089 NA 
HETATM   11  N   UNL     1      -8.679  12.602  66.314  1.00  0.00    -0.413 NA 
HETATM   12  C   UNL     1      -5.979  10.541  67.650  1.00  0.00    -0.044 C  
HETATM   13  C   UNL     1      -5.881  12.051  67.464  1.00  0.00    -0.109 C  
HETATM   14  H2  UNL     1      -7.923  12.352  65.677  1.00  0.00     0.000 HD 
HETATM   15  H1  UNL     1      -9.577  12.225  66.008  1.00  0.00     0.000 HD 
HETATM   16  C   UNL     1      -7.046  12.750  68.156  1.00  0.00    -0.105 C  
HETATM   17  C   UNL     1      -8.397  10.631  67.835  1.00  0.00    -0.120 C  
HETATM   18  C   UNL     1      -8.397  12.181  67.695  1.00  0.00    -0.163 C  
ENDBRANCH   6  10
BRANCH   8  19
HETATM   19  C   UNL     1      -8.522   7.247  67.115  1.00  0.00    -0.118 C  
BRANCH  19  20
HETATM   20  C   UNL     1      -7.720   6.419  68.113  1.00  0.00    -0.104 A  
HETATM   21  C   UNL     1      -7.542   5.507  70.368  1.00  0.00    -0.081 A  
HETATM   22  C   UNL     1      -9.740   6.182  69.551  1.00  0.00    -0.146 C  
HETATM   23  N   UNL     1     -10.879   6.321  69.717  1.00  0.00    -0.298 NA 
HETATM   24  C   UNL     1      -8.327   6.021  69.326  1.00  0.00    -0.115 A  
HETATM   25  C   UNL     1      -6.163   5.373  70.213  1.00  0.00    -0.023 A  
HETATM   26  C   UNL     1      -5.570   5.680  68.991  1.00  0.00    -0.011 A  
HETATM   27  C   UNL     1      -6.345   6.167  67.937  1.00  0.00    -0.040 A  
ENDBRANCH  19  20
ENDBRANCH   8  19
TORSDOF 3
ENDMDL
MODEL      258
REMARK 921   NORMALIZED FREE ENERGY PREDICTED BY IDOCK:   -2.94 KCAL/MOL
REMARK 922        TOTAL FREE ENERGY PREDICTED BY IDOCK:   -3.77 KCAL/MOL
REMARK 923 INTER-LIGAND FREE ENERGY PREDICTED BY IDOCK:   -3.09 KCAL/MOL
REMARK 924 INTRA-LIGAND FREE ENERGY PREDICTED BY IDOCK:   -0.67 KCAL/MOL
REMARK 927      BINDING AFFINITY PREDICTED BY RF-SCORE:    0.00 PKD
ROOT
HETATM    1  C   UNL     1      -7.737   9.811  68.110  1.00  0.00    -0.082 C  
HETATM    2  N   UNL     1      -7.632   8.364  68.133  1.00  0.00    -0.097 N  
HETATM    3  C   UNL     1      -6.580   7.760  67.500  1.00  0.00    -0.063 C  
HETATM    4  C   UNL     1      -6.473   6.309  67.677  1.00  0.00    -0.046 C  
HETATM    5  O   UNL     1      -5.740   8.341  66.818  1.00  0.00    -0.041 OA 
HETATM    6  C   UNL     1      -7.263   5.600  68.509  1.00  0.00    -0.075 C  
HETATM    7  O   UNL     1      -9.583   8.230  69.299  1.00  0.00    -0.162 OA 
HETATM    8  N   UNL     1      -8.295   6.321  69.138  1.00  0.00    -0.119 N  
HETATM    9  C   UNL     1      -8.573   7.669  68.864  1.00  0.00    -0.129 C  
ENDROOT
BRANCH   6  10
HETATM   10  N   UNL     1      -6.991   4.211  68.680  1.00  0.00    -0.047 NA 
HETATM   11  N   UNL     1      -9.490   2.823  67.598  1.00  0.00    -0.344 NA 
HETATM   12  C   UNL     1      -6.794   3.516  69.959  1.00  0.00    -0.034 C  
HETATM   13  C   UNL     1      -7.941   2.553  70.242  1.00  0.00    -0.052 C  
HETATM   14  H2  UNL     1      -9.689   3.474  68.357  1.00  0.00     0.000 HD 
HETATM   15  H1  UNL     1      -9.565   3.268  66.683  1.00  0.00     0.000 HD 
HETATM   16  C   UNL     1      -8.057   1.521  69.126  1.00  0.00    -0.058 C  
HETATM   17  C   UNL     1      -7.016   3.220  67.561  1.00  0.00    -0.050 C  
HETATM   18  C   UNL     1      -8.169   2.191  67.748  1.00  0.00    -0.065 C  
ENDBRANCH   6  10
BRANCH   8  19
HETATM   19  C   UNL     1      -8.978   5.838  70.340  1.00  0.00    -0.146 C  
BRANCH  19  20
HETATM   20  C   UNL     1      -8.507   6.369  71.690  1.00  0.00    -0.128 A  
HETATM   21  C   UNL     1      -8.978   7.755  73.641  1.00  0.00    -0.335 A  
HETATM   22  C   UNL     1     -10.847   7.006  72.263  1.00  0.00    -0.230 C  
HETATM   23  N   UNL     1     -11.982   6.986  72.027  1.00  0.00    -0.299 NA 
HETATM   24  C   UNL     1      -9.433   7.022  72.536  1.00  0.00    -0.161 A  
HETATM   25  C   UNL     1      -7.615   7.835  73.921  1.00  0.00    -0.182 A  
HETATM   26  C   UNL     1      -6.703   7.124  73.145  1.00  0.00    -0.065 A  
HETATM   27  C   UNL     1      -7.148   6.368  72.058  1.00  0.00    -0.082 A  
ENDBRANCH  19  20
ENDBRANCH   8  19
TORSDOF 3
ENDMDL
MODEL      259
REMARK 921   NORMALIZED FREE ENERGY PREDICTED BY IDOCK:   -2.93 KCAL/MOL
REMARK 922        TOTAL FREE ENERGY PREDICTED BY IDOCK:   -3.76 KCAL/MOL
REMARK 923 INTER-LIGAND FREE ENERGY PREDICTED BY IDOCK:   -4.12 KCAL/MOL
REMARK 924 INTRA-LIGAND FREE ENERGY PREDICTED BY IDOCK:    0.37 KCAL/MOL
REMARK 927      BINDING AFFINITY PREDICTED BY RF-SCORE:    0.00 PKD
ROOT
HETATM    1  C   UNL     1      -7.679   7.893  64.758  1.00  0.00    -0.118 C  
HETATM    2  N   UNL     1      -8.162   7.793  66.122  1.00  0.00    -0.116 N  
HETATM    3  C   UNL     1      -7.560   6.917  66.982  1.00  0.00    -0.102 C  
HETATM    4  C   UNL     1      -8.020   6.966  68.373  1.00  0.00    -0.122 C  
HETATM    5  O   UNL     1      -6.679   6.119  66.673  1.00  0.00    -0.056 OA 
HETATM    6  C   UNL     1      -8.882   7.890  68.840  1.00  0.00    -0.142 C  
HETATM    7  O   UNL     1      -9.788   9.323  65.670  1.00  0.00    -0.289 OA 
HETATM    8  N   UNL     1      -9.421   8.767  67.880  1.00  0.00    -0.141 N  
HETATM    9  C   UNL     1      -9.173   8.651  66.504  1.00  0.00    -0.187 C  
ENDROOT
BRANCH   6  10
HETATM   10  N   UNL     1      -9.169   7.904  70.237  1.00  0.00    -0.152 NA 
HETATM   11  N   UNL     1      -9.459   4.951  70.971  1.00  0.00    -0.155 NA 
HETATM   12  C   UNL     1     -10.358   8.488  70.873  1.00  0.00    -0.199 C  
HETATM   13  C   UNL     1     -11.247   7.403  71.472  1.00  0.00    -0.271 C  
HETATM   14  H2  UNL     1     -10.106   5.249  70.241  1.00  0.00     0.000 HD 
HETATM   15  H1  UNL     1      -8.591   4.581  70.583  1.00  0.00     0.000 HD 
HETATM   16  C   UNL     1     -10.474   6.593  72.506  1.00  0.00    -0.231 C  
HETATM   17  C   UNL     1      -8.351   7.181  71.257  1.00  0.00    -0.113 C  
HETATM   18  C   UNL     1      -9.167   6.035  71.922  1.00  0.00    -0.150 C  
ENDBRANCH   6  10
BRANCH   8  19
HETATM   19  C   UNL     1     -10.037  10.047  68.236  1.00  0.00    -0.158 C  
BRANCH  19  20
HETATM   20  C   UNL     1      -9.402  11.321  67.689  1.00  0.00    -0.162 A  
HETATM   21  C   UNL     1      -7.814  13.142  68.023  1.00  0.00    -0.147 A  
HETATM   22  C   UNL     1      -7.533  11.097  69.323  1.00  0.00    -0.076 C  
HETATM   23  N   UNL     1      -6.969  10.483  70.128  1.00  0.00    -0.199 NA 
HETATM   24  C   UNL     1      -8.250  11.844  68.322  1.00  0.00    -0.157 A  
HETATM   25  C   UNL     1      -8.501  13.921  67.092  1.00  0.00    -0.196 A  
HETATM   26  C   UNL     1      -9.583  13.382  66.401  1.00  0.00    -0.265 A  
HETATM   27  C   UNL     1     -10.010  12.080  66.671  1.00  0.00    -0.219 A  
ENDBRANCH  19  20
ENDBRANCH   8  19
TORSDOF 3
ENDMDL
MODEL      260
REMARK 921   NORMALIZED FREE ENERGY PREDICTED BY IDOCK:   -2.80 KCAL/MOL
REMARK 922        TOTAL FREE ENERGY PREDICTED BY IDOCK:   -3.61 KCAL/MOL
REMARK 923 INTER-LIGAND FREE ENERGY PREDICTED BY IDOCK:   -5.51 KCAL/MOL
REMARK 924 INTRA-LIGAND FREE ENERGY PREDICTED BY IDOCK:    1.89 KCAL/MOL
REMARK 927      BINDING AFFINITY PREDICTED BY RF-SCORE:    0.00 PKD
ROOT
HETATM    1  C   UNL     1     -11.013  15.868  70.766  1.00  0.00    -0.241 C  
HETATM    2  N   UNL     1     -11.134  14.822  69.768  1.00  0.00    -0.266 N  
HETATM    3  C   UNL     1     -12.328  14.169  69.625  1.00  0.00    -0.256 C  
HETATM    4  C   UNL     1     -12.408  13.216  68.514  1.00  0.00     0.134 C  
HETATM    5  O   UNL     1     -13.310  14.330  70.344  1.00  0.00    -0.078 OA 
HETATM    6  C   UNL     1     -11.437  13.063  67.592  1.00  0.00    -0.324 C  
HETATM    7  O   UNL     1      -8.943  15.088  69.208  1.00  0.00    -0.206 OA 
HETATM    8  N   UNL     1     -10.261  13.805  67.812  1.00  0.00    -0.237 N  
HETATM    9  C   UNL     1     -10.043  14.585  68.958  1.00  0.00    -0.183 C  
ENDROOT
BRANCH   6  10
HETATM   10  N   UNL     1     -11.676  12.185  66.495  1.00  0.00    -0.564 NA 
HETATM   11  N   UNL     1      -8.882  11.498  65.465  1.00  0.00    -0.398 NA 
HETATM   12  C   UNL     1     -12.379  12.523  65.250  1.00  0.00    -0.403 C  
HETATM   13  C   UNL     1     -11.422  12.520  64.063  1.00  0.00    -0.476 C  
HETATM   14  H2  UNL     1      -9.077  12.499  65.461  1.00  0.00     0.000 HD 
HETATM   15  H1  UNL     1      -8.436  11.198  66.332  1.00  0.00     0.000 HD 
HETATM   16  C   UNL     1     -10.766  11.152  63.911  1.00  0.00    -0.407 C  
HETATM   17  C   UNL     1     -11.103  10.808  66.398  1.00  0.00     0.057 C  
HETATM   18  C   UNL     1     -10.095  10.701  65.217  1.00  0.00    -0.297 C  
ENDBRANCH   6  10
BRANCH   8  19
HETATM   19  C   UNL     1      -9.287  14.077  66.752  1.00  0.00    -0.277 C  
BRANCH  19  20
HETATM   20  C   UNL     1      -8.380  15.292  66.912  1.00  0.00    -0.278 A  
HETATM   21  C   UNL     1      -7.994  17.655  66.450  1.00  0.00    -0.309 A  
HETATM   22  C   UNL     1     -10.273  16.794  66.305  1.00  0.00    -0.332 C  
HETATM   23  N   UNL     1     -11.399  16.954  66.085  1.00  0.00     0.600 NA 
HETATM   24  C   UNL     1      -8.876  16.573  66.578  1.00  0.00    -0.317 A  
HETATM   25  C   UNL     1      -6.628  17.481  66.663  1.00  0.00    -0.252 A  
HETATM   26  C   UNL     1      -6.142  16.244  67.077  1.00  0.00    -0.074 A  
HETATM   27  C   UNL     1      -7.015  15.165  67.234  1.00  0.00    -0.123 A  
ENDBRANCH  19  20
ENDBRANCH   8  19
TORSDOF 3
ENDMDL
MODEL      261
REMARK 921   NORMALIZED FREE ENERGY PREDICTED BY IDOCK:   -2.79 KCAL/MOL
REMARK 922        TOTAL FREE ENERGY PREDICTED BY IDOCK:   -3.60 KCAL/MOL
REMARK 923 INTER-LIGAND FREE ENERGY PREDICTED BY IDOCK:   -4.64 KCAL/MOL
REMARK 924 INTRA-LIGAND FREE ENERGY PREDICTED BY IDOCK:    1.04 KCAL/MOL
REMARK 927      BINDING AFFINITY PREDICTED BY RF-SCORE:    0.00 PKD
ROOT
HETATM    1  C   UNL     1      -6.305   9.952  65.242  1.00  0.00    -0.099 C  
HETATM    2  N   UNL     1      -7.247   9.626  66.296  1.00  0.00    -0.092 N  
HETATM    3  C   UNL     1      -7.286   8.350  66.786  1.00  0.00    -0.083 C  
HETATM    4  C   UNL     1      -8.172   8.131  67.934  1.00  0.00    -0.129 C  
HETATM    5  O   UNL     1      -6.640   7.404  66.344  1.00  0.00    -0.050 OA 
HETATM    6  C   UNL     1      -8.820   9.124  68.574  1.00  0.00    -0.129 C  
HETATM    7  O   UNL     1      -8.059  11.753  66.242  1.00  0.00    -0.043 OA 
HETATM    8  N   UNL     1      -8.689  10.406  68.009  1.00  0.00    -0.122 N  
HETATM    9  C   UNL     1      -8.016  10.653  66.803  1.00  0.00    -0.132 C  
ENDROOT
BRANCH   6  10
HETATM   10  N   UNL     1      -9.566   8.801  69.746  1.00  0.00    -0.169 NA 
HETATM   11  N   UNL     1      -7.841   6.727  71.182  1.00  0.00    -0.100 NA 
HETATM   12  C   UNL     1     -10.890   8.166  69.785  1.00  0.00    -0.190 C  
HETATM   13  C   UNL     1     -10.807   6.760  70.369  1.00  0.00    -0.306 C  
HETATM   14  H2  UNL     1      -8.097   6.450  70.235  1.00  0.00     0.000 HD 
HETATM   15  H1  UNL     1      -6.947   7.219  71.207  1.00  0.00     0.000 HD 
HETATM   16  C   UNL     1     -10.232   6.804  71.780  1.00  0.00    -0.206 C  
HETATM   17  C   UNL     1      -9.025   8.935  71.133  1.00  0.00    -0.241 C  
HETATM   18  C   UNL     1      -8.886   7.545  71.818  1.00  0.00    -0.115 C  
ENDBRANCH   6  10
BRANCH   8  19
HETATM   19  C   UNL     1      -8.972  11.633  68.757  1.00  0.00    -0.009 C  
BRANCH  19  20
HETATM   20  C   UNL     1      -9.779  12.723  68.060  1.00  0.00    -0.220 A  
HETATM   21  C   UNL     1     -11.909  13.415  67.093  1.00  0.00    -0.429 A  
HETATM   22  C   UNL     1     -11.894  11.560  68.678  1.00  0.00    -0.318 C  
HETATM   23  N   UNL     1     -12.452  10.729  69.264  1.00  0.00    -0.288 NA 
HETATM   24  C   UNL     1     -11.182  12.583  67.957  1.00  0.00    -0.316 A  
HETATM   25  C   UNL     1     -11.258  14.391  66.341  1.00  0.00    -0.345 A  
HETATM   26  C   UNL     1      -9.890  14.594  66.502  1.00  0.00    -0.288 A  
HETATM   27  C   UNL     1      -9.160  13.790  67.380  1.00  0.00    -0.221 A  
ENDBRANCH  19  20
ENDBRANCH   8  19
TORSDOF 3
ENDMDL
MODEL      262
REMARK 921   NORMALIZED FREE ENERGY PREDICTED BY IDOCK:   -2.70 KCAL/MOL
REMARK 922        TOTAL FREE ENERGY PREDICTED BY IDOCK:   -3.49 KCAL/MOL
REMARK 923 INTER-LIGAND FREE ENERGY PREDICTED BY IDOCK:   -5.35 KCAL/MOL
REMARK 924 INTRA-LIGAND FREE ENERGY PREDICTED BY IDOCK:    1.87 KCAL/MOL
REMARK 927      BINDING AFFINITY PREDICTED BY RF-SCORE:    0.00 PKD
ROOT
HETATM    1  C   UNL     1     -11.891  13.577  68.486  1.00  0.00    -0.362 C  
HETATM    2  N   UNL     1     -11.678  12.365  69.255  1.00  0.00    -0.315 N  
HETATM    3  C   UNL     1     -12.216  12.266  70.509  1.00  0.00    -0.300 C  
HETATM    4  C   UNL     1     -12.067  10.966  71.170  1.00  0.00    -0.386 C  
HETATM    5  O   UNL     1     -12.806  13.169  71.097  1.00  0.00    -0.330 OA 
HETATM    6  C   UNL     1     -11.556   9.877  70.563  1.00  0.00    -0.309 C  
HETATM    7  O   UNL     1     -10.402  11.510  67.575  1.00  0.00    -0.188 OA 
HETATM    8  N   UNL     1     -11.059  10.076  69.261  1.00  0.00    -0.225 N  
HETATM    9  C   UNL     1     -10.994  11.335  68.644  1.00  0.00    -0.218 C  
ENDROOT
BRANCH   6  10
HETATM   10  N   UNL     1     -11.564   8.640  71.272  1.00  0.00    -0.273 NA 
HETATM   11  N   UNL     1      -9.134   8.822  73.118  1.00  0.00    -0.148 NA 
HETATM   12  C   UNL     1     -11.395   7.303  70.688  1.00  0.00    -0.284 C  
HETATM   13  C   UNL     1     -10.076   6.676  71.126  1.00  0.00    -0.202 C  
HETATM   14  H2  UNL     1      -8.898   8.925  72.131  1.00  0.00     0.000 HD 
HETATM   15  H1  UNL     1      -9.311   9.723  73.564  1.00  0.00     0.000 HD 
HETATM   16  C   UNL     1     -10.017   6.568  72.646  1.00  0.00    -0.185 C  
HETATM   17  C   UNL     1     -11.599   8.543  72.764  1.00  0.00    -0.067 C  
HETATM   18  C   UNL     1     -10.283   7.924  73.317  1.00  0.00    -0.229 C  
ENDBRANCH   6  10
BRANCH   8  19
HETATM   19  C   UNL     1     -10.844   8.975  68.319  1.00  0.00    -0.017 C  
BRANCH  19  20
HETATM   20  C   UNL     1      -9.765   9.148  67.256  1.00  0.00    -0.225 A  
HETATM   21  C   UNL     1      -7.417   9.568  66.747  1.00  0.00    -0.094 A  
HETATM   22  C   UNL     1      -8.002   8.754  68.972  1.00  0.00    -0.111 C  
HETATM   23  N   UNL     1      -7.694   8.443  70.045  1.00  0.00    -0.087 NA 
HETATM   24  C   UNL     1      -8.405   9.140  67.644  1.00  0.00    -0.116 A  
HETATM   25  C   UNL     1      -7.763   9.992  65.465  1.00  0.00    -0.135 A  
HETATM   26  C   UNL     1      -9.089   9.921  65.045  1.00  0.00    -0.264 A  
HETATM   27  C   UNL     1     -10.079   9.470  65.921  1.00  0.00    -0.284 A  
ENDBRANCH  19  20
ENDBRANCH   8  19
TORSDOF 3
ENDMDL
MODEL      263
REMARK 921   NORMALIZED FREE ENERGY PREDICTED BY IDOCK:   -2.69 KCAL/MOL
REMARK 922        TOTAL FREE ENERGY PREDICTED BY IDOCK:   -3.48 KCAL/MOL
REMARK 923 INTER-LIGAND FREE ENERGY PREDICTED BY IDOCK:   -3.83 KCAL/MOL
REMARK 924 INTRA-LIGAND FREE ENERGY PREDICTED BY IDOCK:    0.36 KCAL/MOL
REMARK 927      BINDING AFFINITY PREDICTED BY RF-SCORE:    0.00 PKD
ROOT
HETATM    1  C   UNL     1     -10.687  11.219  63.868  1.00  0.00    -0.384 C  
HETATM    2  N   UNL     1     -10.682  11.269  65.318  1.00  0.00    -0.266 N  
HETATM    3  C   UNL     1     -11.356  12.275  65.955  1.00  0.00    -0.360 C  
HETATM    4  C   UNL     1     -11.411  12.184  67.417  1.00  0.00    -0.415 C  
HETATM    5  O   UNL     1     -11.907  13.219  65.395  1.00  0.00    -0.327 OA 
HETATM    6  C   UNL     1     -10.955  11.126  68.115  1.00  0.00    -0.238 C  
HETATM    7  O   UNL     1      -9.332   9.437  65.387  1.00  0.00    -0.232 OA 
HETATM    8  N   UNL     1     -10.307  10.128  67.363  1.00  0.00    -0.222 N  
HETATM    9  C   UNL     1     -10.048  10.243  65.989  1.00  0.00    -0.244 C  
ENDROOT
BRANCH   6  10
HETATM   10  N   UNL     1     -11.164  11.103  69.525  1.00  0.00    -0.262 NA 
HETATM   11  N   UNL     1     -14.088  10.270  69.834  1.00  0.00     1.016 NA 
HETATM   12  C   UNL     1     -11.084  12.255  70.433  1.00  0.00     1.153 C  
HETATM   13  C   UNL     1     -12.457  12.603  70.998  1.00  0.00    -0.354 C  
HETATM   14  H2  UNL     1     -13.968  11.116  69.277  1.00  0.00     0.000 HD 
HETATM   15  H1  UNL     1     -14.101   9.431  69.254  1.00  0.00     0.000 HD 
HETATM   16  C   UNL     1     -13.040  11.413  71.752  1.00  0.00    -0.523 C  
HETATM   17  C   UNL     1     -11.649   9.901  70.270  1.00  0.00    -0.250 C  
HETATM   18  C   UNL     1     -13.059  10.148  70.879  1.00  0.00    -0.335 C  
ENDBRANCH   6  10
BRANCH   8  19
HETATM   19  C   UNL     1     -10.109   8.765  67.861  1.00  0.00    -0.207 C  
BRANCH  19  20
HETATM   20  C   UNL     1      -9.110   8.558  68.995  1.00  0.00    -0.146 A  
HETATM   21  C   UNL     1      -8.677   7.682  71.229  1.00  0.00    -0.137 A  
HETATM   22  C   UNL     1     -10.585   6.810  69.983  1.00  0.00    -0.220 C  
HETATM   23  N   UNL     1     -11.512   6.117  69.911  1.00  0.00    -0.394 NA 
HETATM   24  C   UNL     1      -9.439   7.680  70.053  1.00  0.00    -0.161 A  
HETATM   25  C   UNL     1      -7.584   8.537  71.361  1.00  0.00    -0.124 A  
HETATM   26  C   UNL     1      -7.201   9.343  70.291  1.00  0.00    -0.104 A  
HETATM   27  C   UNL     1      -7.937   9.329  69.104  1.00  0.00    -0.097 A  
ENDBRANCH  19  20
ENDBRANCH   8  19
TORSDOF 3
ENDMDL
MODEL      264
REMARK 921   NORMALIZED FREE ENERGY PREDICTED BY IDOCK:   -2.49 KCAL/MOL
REMARK 922        TOTAL FREE ENERGY PREDICTED BY IDOCK:   -3.25 KCAL/MOL
REMARK 923 INTER-LIGAND FREE ENERGY PREDICTED BY IDOCK:   -3.89 KCAL/MOL
REMARK 924 INTRA-LIGAND FREE ENERGY PREDICTED BY IDOCK:    0.65 KCAL/MOL
REMARK 927      BINDING AFFINITY PREDICTED BY RF-SCORE:    0.00 PKD
ROOT
HETATM    1  C   UNL     1      -7.490   5.178  74.051  1.00  0.00    -0.087 C  
HETATM    2  N   UNL     1      -8.120   5.902  72.962  1.00  0.00    -0.117 N  
HETATM    3  C   UNL     1      -8.757   7.083  73.225  1.00  0.00    -0.127 C  
HETATM    4  C   UNL     1      -9.255   7.816  72.057  1.00  0.00    -0.189 C  
HETATM    5  O   UNL     1      -8.928   7.559  74.344  1.00  0.00    -0.208 OA 
HETATM    6  C   UNL     1      -9.005   7.449  70.785  1.00  0.00    -0.151 C  
HETATM    7  O   UNL     1      -7.526   4.253  71.508  1.00  0.00    -0.056 OA 
HETATM    8  N   UNL     1      -8.314   6.234  70.622  1.00  0.00    -0.131 N  
HETATM    9  C   UNL     1      -7.979   5.387  71.690  1.00  0.00    -0.116 C  
ENDROOT
BRANCH   6  10
HETATM   10  N   UNL     1      -9.450   8.302  69.733  1.00  0.00    -0.162 NA 
HETATM   11  N   UNL     1      -7.676  10.779  69.980  1.00  0.00    -0.387 NA 
HETATM   12  C   UNL     1     -10.785   8.903  69.608  1.00  0.00    -0.217 C  
HETATM   13  C   UNL     1     -10.724  10.416  69.787  1.00  0.00    -0.325 C  
HETATM   14  H2  UNL     1      -8.205  10.577  70.828  1.00  0.00     0.000 HD 
HETATM   15  H1  UNL     1      -6.754  10.342  69.993  1.00  0.00     0.000 HD 
HETATM   16  C   UNL     1      -9.797  11.038  68.749  1.00  0.00    -0.206 C  
HETATM   17  C   UNL     1      -8.551   8.834  68.664  1.00  0.00    -0.134 C  
HETATM   18  C   UNL     1      -8.408  10.380  68.768  1.00  0.00    -0.134 C  
ENDBRANCH   6  10
BRANCH   8  19
HETATM   19  C   UNL     1      -7.618   5.879  69.383  1.00  0.00    -0.092 C  
BRANCH  19  20
HETATM   20  C   UNL     1      -7.855   4.487  68.806  1.00  0.00    -0.071 A  
HETATM   21  C   UNL     1      -9.455   2.827  68.013  1.00  0.00    -0.212 A  
HETATM   22  C   UNL     1     -10.143   5.167  68.089  1.00  0.00    -0.129 C  
HETATM   23  N   UNL     1     -10.947   5.987  67.936  1.00  0.00    -0.294 NA 
HETATM   24  C   UNL     1      -9.130   4.162  68.289  1.00  0.00    -0.176 A  
HETATM   25  C   UNL     1      -8.523   1.813  68.231  1.00  0.00    -0.084 A  
HETATM   26  C   UNL     1      -7.236   2.135  68.656  1.00  0.00    -0.044 A  
HETATM   27  C   UNL     1      -6.893   3.464  68.909  1.00  0.00    -0.045 A  
ENDBRANCH  19  20
ENDBRANCH   8  19
TORSDOF 3
ENDMDL
MODEL      265
REMARK 921   NORMALIZED FREE ENERGY PREDICTED BY IDOCK:   -2.33 KCAL/MOL
REMARK 922        TOTAL FREE ENERGY PREDICTED BY IDOCK:   -3.05 KCAL/MOL
REMARK 923 INTER-LIGAND FREE ENERGY PREDICTED BY IDOCK:   -2.76 KCAL/MOL
REMARK 924 INTRA-LIGAND FREE ENERGY PREDICTED BY IDOCK:   -0.29 KCAL/MOL
REMARK 927      BINDING AFFINITY PREDICTED BY RF-SCORE:    0.00 PKD
ROOT
HETATM    1  C   UNL     1     -11.160  10.905  65.300  1.00  0.00     0.152 C  
HETATM    2  N   UNL     1      -9.971  11.460  65.918  1.00  0.00    -0.224 N  
HETATM    3  C   UNL     1     -10.106  12.392  66.910  1.00  0.00    -0.219 C  
HETATM    4  C   UNL     1      -8.865  12.809  67.571  1.00  0.00    -0.187 C  
HETATM    5  O   UNL     1     -11.170  12.883  67.277  1.00  0.00    -0.264 OA 
HETATM    6  C   UNL     1      -7.668  12.238  67.335  1.00  0.00    -0.165 C  
HETATM    7  O   UNL     1      -8.659  10.229  64.522  1.00  0.00    -0.171 OA 
HETATM    8  N   UNL     1      -7.642  11.266  66.317  1.00  0.00    -0.086 N  
HETATM    9  C   UNL     1      -8.750  10.959  65.514  1.00  0.00    -0.171 C  
ENDROOT
BRANCH   6  10
HETATM   10  N   UNL     1      -6.552  12.654  68.119  1.00  0.00    -0.071 NA 
HETATM   11  N   UNL     1      -7.658  14.917  69.850  1.00  0.00    -0.376 NA 
HETATM   12  C   UNL     1      -5.307  13.247  67.612  1.00  0.00    -0.038 C  
HETATM   13  C   UNL     1      -5.185  14.707  68.035  1.00  0.00    -0.108 C  
HETATM   14  H2  UNL     1      -7.763  15.088  68.851  1.00  0.00     0.000 HD 
HETATM   15  H1  UNL     1      -8.480  14.459  70.247  1.00  0.00     0.000 HD 
HETATM   16  C   UNL     1      -5.212  14.825  69.555  1.00  0.00    -0.087 C  
HETATM   17  C   UNL     1      -6.556  12.679  69.614  1.00  0.00     0.010 C  
HETATM   18  C   UNL     1      -6.448  14.136  70.151  1.00  0.00    -0.086 C  
ENDBRANCH   6  10
BRANCH   8  19
HETATM   19  C   UNL     1      -6.566  10.280  66.192  1.00  0.00    -0.105 C  
BRANCH  19  20
HETATM   20  C   UNL     1      -6.255   9.407  67.404  1.00  0.00    -0.061 A  
HETATM   21  C   UNL     1      -6.967   7.608  68.889  1.00  0.00    -0.070 A  
HETATM   22  C   UNL     1      -7.994   7.775  66.681  1.00  0.00    -0.107 C  
HETATM   23  N   UNL     1      -8.752   7.397  65.890  1.00  0.00    -0.156 NA 
HETATM   24  C   UNL     1      -7.048   8.263  67.652  1.00  0.00    -0.083 A  
HETATM   25  C   UNL     1      -6.098   8.070  69.876  1.00  0.00    -0.026 A  
HETATM   26  C   UNL     1      -5.251   9.142  69.609  1.00  0.00    -0.034 A  
HETATM   27  C   UNL     1      -5.303   9.784  68.370  1.00  0.00    -0.032 A  
ENDBRANCH  19  20
ENDBRANCH   8  19
TORSDOF 3
ENDMDL
MODEL      266
REMARK 921   NORMALIZED FREE ENERGY PREDICTED BY IDOCK:   -2.24 KCAL/MOL
REMARK 922        TOTAL FREE ENERGY PREDICTED BY IDOCK:   -2.95 KCAL/MOL
REMARK 923 INTER-LIGAND FREE ENERGY PREDICTED BY IDOCK:   -4.15 KCAL/MOL
REMARK 924 INTRA-LIGAND FREE ENERGY PREDICTED BY IDOCK:    1.20 KCAL/MOL
REMARK 927      BINDING AFFINITY PREDICTED BY RF-SCORE:    0.00 PKD
ROOT
HETATM    1  C   UNL     1      -5.447   7.429  68.472  1.00  0.00    -0.022 C  
HETATM    2  N   UNL     1      -6.521   7.459  69.447  1.00  0.00    -0.035 N  
HETATM    3  C   UNL     1      -6.952   8.664  69.931  1.00  0.00    -0.043 C  
HETATM    4  C   UNL     1      -8.123   8.619  70.812  1.00  0.00    -0.141 C  
HETATM    5  O   UNL     1      -6.440   9.750  69.675  1.00  0.00    -0.043 OA 
HETATM    6  C   UNL     1      -8.835   7.499  71.048  1.00  0.00    -0.146 C  
HETATM    7  O   UNL     1      -6.601   5.183  69.443  1.00  0.00    -0.043 OA 
HETATM    8  N   UNL     1      -8.326   6.317  70.477  1.00  0.00    -0.127 N  
HETATM    9  C   UNL     1      -7.107   6.257  69.786  1.00  0.00    -0.072 C  
ENDROOT
BRANCH   6  10
HETATM   10  N   UNL     1     -10.018   7.602  71.836  1.00  0.00    -0.173 NA 
HETATM   11  N   UNL     1     -12.251   6.703  69.952  1.00  0.00    -0.479 NA 
HETATM   12  C   UNL     1     -10.582   8.837  72.399  1.00  0.00    -0.144 C  
HETATM   13  C   UNL     1     -11.906   9.190  71.729  1.00  0.00    -0.453 C  
HETATM   14  H2  UNL     1     -11.719   7.497  69.595  1.00  0.00     0.000 HD 
HETATM   15  H1  UNL     1     -11.870   5.813  69.630  1.00  0.00     0.000 HD 
HETATM   16  C   UNL     1     -12.910   8.056  71.906  1.00  0.00    -0.343 C  
HETATM   17  C   UNL     1     -10.951   6.460  72.081  1.00  0.00    -0.251 C  
HETATM   18  C   UNL     1     -12.337   6.715  71.421  1.00  0.00    -0.294 C  
ENDBRANCH   6  10
BRANCH   8  19
HETATM   19  C   UNL     1      -9.142   5.116  70.287  1.00  0.00    -0.126 C  
BRANCH  19  20
HETATM   20  C   UNL     1      -9.166   4.483  68.899  1.00  0.00    -0.190 A  
HETATM   21  C   UNL     1      -9.942   4.601  66.590  1.00  0.00    -0.260 A  
HETATM   22  C   UNL     1      -9.913   6.648  67.918  1.00  0.00    -0.132 C  
HETATM   23  N   UNL     1     -10.121   7.783  68.026  1.00  0.00    -0.178 NA 
HETATM   24  C   UNL     1      -9.650   5.237  67.805  1.00  0.00    -0.157 A  
HETATM   25  C   UNL     1      -9.745   3.229  66.446  1.00  0.00     0.077 A  
HETATM   26  C   UNL     1      -9.186   2.495  67.490  1.00  0.00    -0.207 A  
HETATM   27  C   UNL     1      -8.866   3.122  68.695  1.00  0.00    -0.166 A  
ENDBRANCH  19  20
ENDBRANCH   8  19
TORSDOF 3
ENDMDL
MODEL      267
REMARK 921   NORMALIZED FREE ENERGY PREDICTED BY IDOCK:   -2.24 KCAL/MOL
REMARK 922        TOTAL FREE ENERGY PREDICTED BY IDOCK:   -2.95 KCAL/MOL
REMARK 923 INTER-LIGAND FREE ENERGY PREDICTED BY IDOCK:   -3.50 KCAL/MOL
REMARK 924 INTRA-LIGAND FREE ENERGY PREDICTED BY IDOCK:    0.55 KCAL/MOL
REMARK 927      BINDING AFFINITY PREDICTED BY RF-SCORE:    0.00 PKD
ROOT
HETATM    1  C   UNL     1      -9.903   7.454  68.729  1.00  0.00    -0.164 C  
HETATM    2  N   UNL     1      -9.913   8.889  68.521  1.00  0.00    -0.172 N  
HETATM    3  C   UNL     1     -10.100   9.719  69.592  1.00  0.00    -0.229 C  
HETATM    4  C   UNL     1      -9.969  11.154  69.322  1.00  0.00    -0.034 C  
HETATM    5  O   UNL     1     -10.357   9.348  70.735  1.00  0.00    -0.254 OA 
HETATM    6  C   UNL     1      -9.562  11.655  68.140  1.00  0.00    -0.190 C  
HETATM    7  O   UNL     1      -9.637   8.577  66.282  1.00  0.00    -0.225 OA 
HETATM    8  N   UNL     1      -9.364  10.715  67.111  1.00  0.00    -0.154 N  
HETATM    9  C   UNL     1      -9.658   9.350  67.246  1.00  0.00    -0.151 C  
ENDROOT
BRANCH   6  10
HETATM   10  N   UNL     1      -9.367  13.063  68.031  1.00  0.00    -0.207 NA 
HETATM   11  N   UNL     1     -10.027  13.687  65.113  1.00  0.00    -0.564 NA 
HETATM   12  C   UNL     1      -8.097  13.780  68.210  1.00  0.00    -0.150 C  
HETATM   13  C   UNL     1      -7.614  14.376  66.892  1.00  0.00     0.370 C  
HETATM   14  H2  UNL     1      -9.278  13.003  65.218  1.00  0.00     0.000 HD 
HETATM   15  H1  UNL     1     -10.942  13.243  65.034  1.00  0.00     0.000 HD 
HETATM   16  C   UNL     1      -8.656  15.337  66.330  1.00  0.00    -0.087 C  
HETATM   17  C   UNL     1     -10.425  14.011  67.566  1.00  0.00    -0.252 C  
HETATM   18  C   UNL     1     -10.033  14.668  66.210  1.00  0.00    -0.290 C  
ENDBRANCH   6  10
BRANCH   8  19
HETATM   19  C   UNL     1      -8.564  11.004  65.918  1.00  0.00    -0.165 C  
BRANCH  19  20
HETATM   20  C   UNL     1      -7.503   9.988  65.509  1.00  0.00    -0.137 A  
HETATM   21  C   UNL     1      -5.296   9.031  65.913  1.00  0.00    -0.040 A  
HETATM   22  C   UNL     1      -6.391  10.246  67.724  1.00  0.00    -0.057 C  
HETATM   23  N   UNL     1      -6.388  10.664  68.805  1.00  0.00    -0.046 NA 
HETATM   24  C   UNL     1      -6.414   9.739  66.376  1.00  0.00    -0.071 A  
HETATM   25  C   UNL     1      -5.253   8.558  64.603  1.00  0.00    -0.039 A  
HETATM   26  C   UNL     1      -6.356   8.723  63.769  1.00  0.00    -0.080 A  
HETATM   27  C   UNL     1      -7.487   9.402  64.228  1.00  0.00    -0.110 A  
ENDBRANCH  19  20
ENDBRANCH   8  19
TORSDOF 3
ENDMDL
MODEL      268
REMARK 921   NORMALIZED FREE ENERGY PREDICTED BY IDOCK:   -2.15 KCAL/MOL
REMARK 922        TOTAL FREE ENERGY PREDICTED BY IDOCK:   -2.84 KCAL/MOL
REMARK 923 INTER-LIGAND FREE ENERGY PREDICTED BY IDOCK:   -4.52 KCAL/MOL
REMARK 924 INTRA-LIGAND FREE ENERGY PREDICTED BY IDOCK:    1.68 KCAL/MOL
REMARK 927      BINDING AFFINITY PREDICTED BY RF-SCORE:    0.00 PKD
ROOT
HETATM    1  C   UNL     1     -12.175   8.310  72.446  1.00  0.00    -0.352 C  
HETATM    2  N   UNL     1     -11.430   8.675  71.256  1.00  0.00    -0.270 N  
HETATM    3  C   UNL     1     -11.575   9.932  70.736  1.00  0.00    -0.349 C  
HETATM    4  C   UNL     1     -10.695  10.266  69.612  1.00  0.00    -0.299 C  
HETATM    5  O   UNL     1     -12.369  10.776  71.143  1.00  0.00    -0.356 OA 
HETATM    6  C   UNL     1      -9.705   9.462  69.177  1.00  0.00    -0.165 C  
HETATM    7  O   UNL     1     -10.548   6.578  71.152  1.00  0.00    -0.219 OA 
HETATM    8  N   UNL     1      -9.618   8.203  69.800  1.00  0.00    -0.170 N  
HETATM    9  C   UNL     1     -10.548   7.745  70.747  1.00  0.00    -0.218 C  
ENDROOT
BRANCH   6  10
HETATM   10  N   UNL     1      -8.845   9.943  68.147  1.00  0.00    -0.118 NA 
HETATM   11  N   UNL     1     -10.269   9.164  65.558  1.00  0.00    -0.143 NA 
HETATM   12  C   UNL     1      -7.472   9.492  67.880  1.00  0.00    -0.083 C  
HETATM   13  C   UNL     1      -7.390   8.743  66.554  1.00  0.00    -0.081 C  
HETATM   14  H2  UNL     1     -10.066   8.367  66.160  1.00  0.00     0.000 HD 
HETATM   15  H1  UNL     1     -11.197   9.550  65.737  1.00  0.00     0.000 HD 
HETATM   16  C   UNL     1      -7.854   9.637  65.409  1.00  0.00    -0.117 C  
HETATM   17  C   UNL     1      -9.284  10.894  67.080  1.00  0.00    -0.152 C  
HETATM   18  C   UNL     1      -9.250  10.219  65.678  1.00  0.00    -0.184 C  
ENDBRANCH   6  10
BRANCH   8  19
HETATM   19  C   UNL     1      -8.408   7.379  69.754  1.00  0.00    -0.134 C  
BRANCH  19  20
HETATM   20  C   UNL     1      -8.579   5.865  69.701  1.00  0.00    -0.121 A  
HETATM   21  C   UNL     1      -9.592   3.939  68.598  1.00  0.00    -0.181 A  
HETATM   22  C   UNL     1      -9.419   6.036  67.361  1.00  0.00    -0.111 C  
HETATM   23  N   UNL     1      -9.612   6.661  66.405  1.00  0.00    -0.137 NA 
HETATM   24  C   UNL     1      -9.173   5.277  68.561  1.00  0.00    -0.138 A  
HETATM   25  C   UNL     1      -9.415   3.177  69.752  1.00  0.00    -0.198 A  
HETATM   26  C   UNL     1      -8.752   3.721  70.849  1.00  0.00    -0.119 A  
HETATM   27  C   UNL     1      -8.306   5.044  70.812  1.00  0.00    -0.107 A  
ENDBRANCH  19  20
ENDBRANCH   8  19
TORSDOF 3
ENDMDL
MODEL      269
REMARK 921   NORMALIZED FREE ENERGY PREDICTED BY IDOCK:   -1.75 KCAL/MOL
REMARK 922        TOTAL FREE ENERGY PREDICTED BY IDOCK:   -2.38 KCAL/MOL
REMARK 923 INTER-LIGAND FREE ENERGY PREDICTED BY IDOCK:   -3.54 KCAL/MOL
REMARK 924 INTRA-LIGAND FREE ENERGY PREDICTED BY IDOCK:    1.17 KCAL/MOL
REMARK 927      BINDING AFFINITY PREDICTED BY RF-SCORE:    0.00 PKD
ROOT
HETATM    1  C   UNL     1     -11.164   9.861  69.754  1.00  0.00    -0.235 C  
HETATM    2  N   UNL     1     -10.699   8.604  70.309  1.00  0.00    -0.223 N  
HETATM    3  C   UNL     1     -10.988   8.299  71.611  1.00  0.00    -0.264 C  
HETATM    4  C   UNL     1     -10.595   6.960  72.058  1.00  0.00    -0.238 C  
HETATM    5  O   UNL     1     -11.546   9.053  72.403  1.00  0.00    -0.272 OA 
HETATM    6  C   UNL     1     -10.099   6.015  71.235  1.00  0.00    -0.192 C  
HETATM    7  O   UNL     1      -9.671   8.103  68.339  1.00  0.00    -0.155 OA 
HETATM    8  N   UNL     1      -9.868   6.419  69.907  1.00  0.00    -0.166 N  
HETATM    9  C   UNL     1     -10.040   7.738  69.460  1.00  0.00    -0.194 C  
ENDROOT
BRANCH   6  10
HETATM   10  N   UNL     1      -9.856   4.714  71.765  1.00  0.00    -0.175 NA 
HETATM   11  N   UNL     1      -7.322   5.049  73.439  1.00  0.00    -0.086 NA 
HETATM   12  C   UNL     1      -9.545   3.505  70.990  1.00  0.00    -0.173 C  
HETATM   13  C   UNL     1      -8.112   3.048  71.242  1.00  0.00    -0.067 C  
HETATM   14  H2  UNL     1      -7.195   5.312  72.462  1.00  0.00     0.000 HD 
HETATM   15  H1  UNL     1      -7.589   5.846  74.017  1.00  0.00     0.000 HD 
HETATM   16  C   UNL     1      -7.898   2.760  72.724  1.00  0.00    -0.058 C  
HETATM   17  C   UNL     1      -9.739   4.425  73.227  1.00  0.00    -0.129 C  
HETATM   18  C   UNL     1      -8.300   3.961  73.594  1.00  0.00    -0.088 C  
ENDBRANCH   6  10
BRANCH   8  19
HETATM   19  C   UNL     1      -9.721   5.466  68.804  1.00  0.00    -0.142 C  
BRANCH  19  20
HETATM   20  C   UNL     1      -8.706   5.790  67.712  1.00  0.00    -0.107 A  
HETATM   21  C   UNL     1      -6.490   6.632  67.138  1.00  0.00    -0.042 A  
HETATM   22  C   UNL     1      -6.884   5.835  69.411  1.00  0.00    -0.062 C  
HETATM   23  N   UNL     1      -6.511   5.646  70.492  1.00  0.00    -0.034 NA 
HETATM   24  C   UNL     1      -7.368   6.066  68.074  1.00  0.00    -0.084 A  
HETATM   25  C   UNL     1      -6.925   6.914  65.844  1.00  0.00    -0.064 A  
HETATM   26  C   UNL     1      -8.215   6.564  65.454  1.00  0.00    -0.135 A  
HETATM   27  C   UNL     1      -9.089   5.975  66.370  1.00  0.00    -0.159 A  
ENDBRANCH  19  20
ENDBRANCH   8  19
TORSDOF 3
ENDMDL
MODEL      270
REMARK 921   NORMALIZED FREE ENERGY PREDICTED BY IDOCK:   -1.67 KCAL/MOL
REMARK 922        TOTAL FREE ENERGY PREDICTED BY IDOCK:   -2.28 KCAL/MOL
REMARK 923 INTER-LIGAND FREE ENERGY PREDICTED BY IDOCK:   -3.67 KCAL/MOL
REMARK 924 INTRA-LIGAND FREE ENERGY PREDICTED BY IDOCK:    1.39 KCAL/MOL
REMARK 927      BINDING AFFINITY PREDICTED BY RF-SCORE:    0.00 PKD
ROOT
HETATM    1  C   UNL     1     -10.527  14.975  68.544  1.00  0.00    -0.232 C  
HETATM    2  N   UNL     1     -10.243  13.872  67.644  1.00  0.00    -0.239 N  
HETATM    3  C   UNL     1      -9.247  14.005  66.716  1.00  0.00    -0.265 C  
HETATM    4  C   UNL     1      -8.937  12.806  65.933  1.00  0.00     0.336 C  
HETATM    5  O   UNL     1      -8.609  15.034  66.509  1.00  0.00    -0.253 OA 
HETATM    6  C   UNL     1      -9.484  11.598  66.172  1.00  0.00    -0.224 C  
HETATM    7  O   UNL     1     -11.942  12.669  68.567  1.00  0.00    -0.305 OA 
HETATM    8  N   UNL     1     -10.476  11.561  67.170  1.00  0.00    -0.215 N  
HETATM    9  C   UNL     1     -10.958  12.706  67.822  1.00  0.00    -0.234 C  
ENDROOT
BRANCH   6  10
HETATM   10  N   UNL     1      -9.021  10.482  65.414  1.00  0.00    -0.178 NA 
HETATM   11  N   UNL     1      -6.269   9.867  66.593  1.00  0.00    -0.067 NA 
HETATM   12  C   UNL     1      -8.738  10.469  63.973  1.00  0.00    -0.169 C  
HETATM   13  C   UNL     1      -7.245  10.303  63.710  1.00  0.00    -0.060 C  
HETATM   14  H2  UNL     1      -6.350  10.819  66.237  1.00  0.00     0.000 HD 
HETATM   15  H1  UNL     1      -6.504   9.810  67.585  1.00  0.00     0.000 HD 
HETATM   16  C   UNL     1      -6.737   9.006  64.330  1.00  0.00    -0.079 C  
HETATM   17  C   UNL     1      -8.611   9.181  66.025  1.00  0.00    -0.146 C  
HETATM   18  C   UNL     1      -7.090   8.920  65.823  1.00  0.00    -0.084 C  
ENDBRANCH   6  10
BRANCH   8  19
HETATM   19  C   UNL     1     -10.885  10.320  67.833  1.00  0.00    -0.284 C  
BRANCH  19  20
HETATM   20  C   UNL     1      -9.805   9.485  68.513  1.00  0.00    -0.172 A  
HETATM   21  C   UNL     1      -9.016   7.274  69.172  1.00  0.00    -0.135 A  
HETATM   22  C   UNL     1     -10.671   7.438  67.387  1.00  0.00    -0.278 C  
HETATM   23  N   UNL     1     -11.369   6.936  66.610  1.00  0.00     0.291 NA 
HETATM   24  C   UNL     1      -9.813   8.081  68.349  1.00  0.00    -0.184 A  
HETATM   25  C   UNL     1      -8.201   7.848  70.147  1.00  0.00    -0.125 A  
HETATM   26  C   UNL     1      -8.121   9.234  70.257  1.00  0.00    -0.165 A  
HETATM   27  C   UNL     1      -8.890  10.048  69.423  1.00  0.00    -0.200 A  
ENDBRANCH  19  20
ENDBRANCH   8  19
TORSDOF 3
ENDMDL
MODEL      271
REMARK 921   NORMALIZED FREE ENERGY PREDICTED BY IDOCK:   -1.47 KCAL/MOL
REMARK 922        TOTAL FREE ENERGY PREDICTED BY IDOCK:   -2.05 KCAL/MOL
REMARK 923 INTER-LIGAND FREE ENERGY PREDICTED BY IDOCK:   -3.03 KCAL/MOL
REMARK 924 INTRA-LIGAND FREE ENERGY PREDICTED BY IDOCK:    0.99 KCAL/MOL
REMARK 927      BINDING AFFINITY PREDICTED BY RF-SCORE:    0.00 PKD
ROOT
HETATM    1  C   UNL     1      -6.698  10.220  62.345  1.00  0.00    -0.129 C  
HETATM    2  N   UNL     1      -7.133   9.525  63.542  1.00  0.00    -0.099 N  
HETATM    3  C   UNL     1      -6.632   8.281  63.812  1.00  0.00    -0.075 C  
HETATM    4  C   UNL     1      -7.020   7.700  65.101  1.00  0.00    -0.055 C  
HETATM    5  O   UNL     1      -5.894   7.642  63.068  1.00  0.00    -0.049 OA 
HETATM    6  C   UNL     1      -7.715   8.370  66.041  1.00  0.00    -0.090 C  
HETATM    7  O   UNL     1      -8.529  11.251  64.049  1.00  0.00     0.236 OA 
HETATM    8  N   UNL     1      -8.157   9.656  65.676  1.00  0.00    -0.114 N  
HETATM    9  C   UNL     1      -7.987  10.196  64.392  1.00  0.00    -0.153 C  
ENDROOT
BRANCH   6  10
HETATM   10  N   UNL     1      -7.938   7.737  67.298  1.00  0.00    -0.116 NA 
HETATM   11  N   UNL     1      -5.292   6.337  67.910  1.00  0.00    -0.004 NA 
HETATM   12  C   UNL     1      -8.911   6.671  67.574  1.00  0.00    -0.116 C  
HETATM   13  C   UNL     1      -8.207   5.356  67.892  1.00  0.00    -0.099 C  
HETATM   14  H2  UNL     1      -5.709   6.040  67.028  1.00  0.00     0.000 HD 
HETATM   15  H1  UNL     1      -4.641   7.112  67.783  1.00  0.00     0.000 HD 
HETATM   16  C   UNL     1      -7.292   5.522  69.101  1.00  0.00    -0.077 C  
HETATM   17  C   UNL     1      -7.091   7.976  68.506  1.00  0.00    -0.080 C  
HETATM   18  C   UNL     1      -6.312   6.690  68.909  1.00  0.00    -0.035 C  
ENDBRANCH   6  10
BRANCH   8  19
HETATM   19  C   UNL     1      -8.561  10.662  66.661  1.00  0.00    -0.139 C  
BRANCH  19  20
HETATM   20  C   UNL     1      -9.742  10.337  67.569  1.00  0.00    -0.196 A  
HETATM   21  C   UNL     1     -11.936  10.988  68.414  1.00  0.00    -0.158 A  
HETATM   22  C   UNL     1     -11.161  11.955  66.312  1.00  0.00    -0.314 C  
HETATM   23  N   UNL     1     -11.319  12.665  65.410  1.00  0.00    -0.302 NA 
HETATM   24  C   UNL     1     -10.943  11.069  67.427  1.00  0.00    -0.349 A  
HETATM   25  C   UNL     1     -11.752  10.177  69.534  1.00  0.00    -0.128 A  
HETATM   26  C   UNL     1     -10.611   9.387  69.638  1.00  0.00    -0.239 A  
HETATM   27  C   UNL     1      -9.628   9.439  68.648  1.00  0.00    -0.152 A  
ENDBRANCH  19  20
ENDBRANCH   8  19
TORSDOF 3
ENDMDL
MODEL      272
REMARK 921   NORMALIZED FREE ENERGY PREDICTED BY IDOCK:   -0.93 KCAL/MOL
REMARK 922        TOTAL FREE ENERGY PREDICTED BY IDOCK:   -1.41 KCAL/MOL
REMARK 923 INTER-LIGAND FREE ENERGY PREDICTED BY IDOCK:   -1.98 KCAL/MOL
REMARK 924 INTRA-LIGAND FREE ENERGY PREDICTED BY IDOCK:    0.57 KCAL/MOL
REMARK 927      BINDING AFFINITY PREDICTED BY RF-SCORE:    0.00 PKD
ROOT
HETATM    1  C   UNL     1      -5.171  12.308  70.852  1.00  0.00    -0.153 C  
HETATM    2  N   UNL     1      -6.128  12.841  69.901  1.00  0.00    -0.134 N  
HETATM    3  C   UNL     1      -6.387  14.185  69.894  1.00  0.00    -0.141 C  
HETATM    4  C   UNL     1      -7.265  14.663  68.823  1.00  0.00    -0.124 C  
HETATM    5  O   UNL     1      -5.936  14.993  70.702  1.00  0.00    -0.136 OA 
HETATM    6  C   UNL     1      -7.703  13.883  67.815  1.00  0.00    -0.172 C  
HETATM    7  O   UNL     1      -6.538  10.742  69.120  1.00  0.00    -0.053 OA 
HETATM    8  N   UNL     1      -7.355  12.522  67.897  1.00  0.00    -0.103 N  
HETATM    9  C   UNL     1      -6.682  11.962  68.993  1.00  0.00    -0.099 C  
ENDROOT
BRANCH   6  10
HETATM   10  N   UNL     1      -8.463  14.488  66.771  1.00  0.00    -0.148 NA 
HETATM   11  N   UNL     1      -8.448  17.465  67.465  1.00  0.00    -0.212 NA 
HETATM   12  C   UNL     1      -9.884  14.255  66.485  1.00  0.00    -0.288 C  
HETATM   13  C   UNL     1     -10.714  15.501  66.779  1.00  0.00    -0.305 C  
HETATM   14  H2  UNL     1      -8.838  16.882  68.205  1.00  0.00     0.000 HD 
HETATM   15  H1  UNL     1      -7.447  17.619  67.588  1.00  0.00     0.000 HD 
HETATM   16  C   UNL     1     -10.222  16.677  65.943  1.00  0.00    -0.358 C  
HETATM   17  C   UNL     1      -7.940  15.580  65.894  1.00  0.00     1.613 C  
HETATM   18  C   UNL     1      -8.715  16.909  66.129  1.00  0.00    -0.245 C  
ENDBRANCH   6  10
BRANCH   8  19
HETATM   19  C   UNL     1      -7.388  11.626  66.739  1.00  0.00    -0.083 C  
BRANCH  19  20
HETATM   20  C   UNL     1      -8.747  11.297  66.130  1.00  0.00    -0.179 A  
HETATM   21  C   UNL     1     -10.085  10.985  64.115  1.00  0.00    -0.403 A  
HETATM   22  C   UNL     1      -7.657  10.812  63.943  1.00  0.00     0.323 C  
HETATM   23  N   UNL     1      -6.699  10.653  63.309  1.00  0.00     0.032 NA 
HETATM   24  C   UNL     1      -8.834  11.015  64.747  1.00  0.00    -0.041 A  
HETATM   25  C   UNL     1     -11.250  11.219  64.844  1.00  0.00    -0.107 A  
HETATM   26  C   UNL     1     -11.180  11.410  66.221  1.00  0.00    -0.228 A  
HETATM   27  C   UNL     1      -9.941  11.415  66.866  1.00  0.00    -0.235 A  
ENDBRANCH  19  20
ENDBRANCH   8  19
TORSDOF 3
ENDMDL
MODEL      273
REMARK 921   NORMALIZED FREE ENERGY PREDICTED BY IDOCK:   -0.71 KCAL/MOL
REMARK 922        TOTAL FREE ENERGY PREDICTED BY IDOCK:   -1.16 KCAL/MOL
REMARK 923 INTER-LIGAND FREE ENERGY PREDICTED BY IDOCK:   -3.80 KCAL/MOL
REMARK 924 INTRA-LIGAND FREE ENERGY PREDICTED BY IDOCK:    2.64 KCAL/MOL
REMARK 927      BINDING AFFINITY PREDICTED BY RF-SCORE:    0.00 PKD
ROOT
HETATM    1  C   UNL     1     -11.494  12.532  63.029  1.00  0.00     0.105 C  
HETATM    2  N   UNL     1     -11.315  12.762  64.450  1.00  0.00    -0.327 N  
HETATM    3  C   UNL     1     -12.400  13.085  65.217  1.00  0.00    -0.486 C  
HETATM    4  C   UNL     1     -12.160  13.176  66.661  1.00  0.00    -0.409 C  
HETATM    5  O   UNL     1     -13.532  13.290  64.787  1.00  0.00    -0.222 OA 
HETATM    6  C   UNL     1     -10.992  12.842  67.244  1.00  0.00    -0.261 C  
HETATM    7  O   UNL     1      -9.073  12.425  64.232  1.00  0.00     0.569 OA 
HETATM    8  N   UNL     1      -9.947  12.493  66.368  1.00  0.00    -0.246 N  
HETATM    9  C   UNL     1     -10.051  12.572  64.971  1.00  0.00    -0.236 C  
ENDROOT
BRANCH   6  10
HETATM   10  N   UNL     1     -10.914  12.867  68.667  1.00  0.00    -0.253 NA 
HETATM   11  N   UNL     1     -13.113  10.946  69.571  1.00  0.00    -0.202 NA 
HETATM   12  C   UNL     1     -11.160  14.030  69.530  1.00  0.00    -0.153 C  
HETATM   13  C   UNL     1     -12.426  13.839  70.359  1.00  0.00    -0.384 C  
HETATM   14  H2  UNL     1     -13.460  11.712  68.994  1.00  0.00     0.000 HD 
HETATM   15  H1  UNL     1     -12.878  10.125  69.013  1.00  0.00     0.000 HD 
HETATM   16  C   UNL     1     -12.310  12.590  71.225  1.00  0.00    -0.152 C  
HETATM   17  C   UNL     1     -10.708  11.647  69.505  1.00  0.00     0.052 C  
HETATM   18  C   UNL     1     -11.957  11.353  70.386  1.00  0.00    -0.374 C  
ENDBRANCH   6  10
BRANCH   8  19
HETATM   19  C   UNL     1      -8.769  11.738  66.803  1.00  0.00    -0.192 C  
BRANCH  19  20
HETATM   20  C   UNL     1      -8.997  10.404  67.506  1.00  0.00    -0.138 A  
HETATM   21  C   UNL     1     -10.076   8.217  67.483  1.00  0.00    -0.286 A  
HETATM   22  C   UNL     1      -9.816   9.412  65.372  1.00  0.00    -0.089 C  
HETATM   23  N   UNL     1      -9.979   9.484  64.226  1.00  0.00     0.630 NA 
HETATM   24  C   UNL     1      -9.607   9.345  66.795  1.00  0.00    -0.234 A  
HETATM   25  C   UNL     1      -9.935   8.125  68.867  1.00  0.00    -0.198 A  
HETATM   26  C   UNL     1      -9.258   9.123  69.563  1.00  0.00    -0.160 A  
HETATM   27  C   UNL     1      -8.762  10.238  68.884  1.00  0.00    -0.152 A  
ENDBRANCH  19  20
ENDBRANCH   8  19
TORSDOF 3
ENDMDL
MODEL      274
REMARK 921   NORMALIZED FREE ENERGY PREDICTED BY IDOCK:   -0.51 KCAL/MOL
REMARK 922        TOTAL FREE ENERGY PREDICTED BY IDOCK:   -0.92 KCAL/MOL
REMARK 923 INTER-LIGAND FREE ENERGY PREDICTED BY IDOCK:   -2.14 KCAL/MOL
REMARK 924 INTRA-LIGAND FREE ENERGY PREDICTED BY IDOCK:    1.22 KCAL/MOL
REMARK 927      BINDING AFFINITY PREDICTED BY RF-SCORE:    0.00 PKD
ROOT
HETATM    1  C   UNL     1      -7.641   5.263  73.973  1.00  0.00    -0.097 C  
HETATM    2  N   UNL     1      -8.271   5.923  72.845  1.00  0.00    -0.118 N  
HETATM    3  C   UNL     1      -8.946   7.095  73.049  1.00  0.00    -0.133 C  
HETATM    4  C   UNL     1      -9.444   7.765  71.844  1.00  0.00    -0.197 C  
HETATM    5  O   UNL     1      -9.149   7.611  74.145  1.00  0.00    -0.246 OA 
HETATM    6  C   UNL     1      -9.162   7.353  70.592  1.00  0.00    -0.157 C  
HETATM    7  O   UNL     1      -7.606   4.233  71.471  1.00  0.00    -0.064 OA 
HETATM    8  N   UNL     1      -8.434   6.153  70.491  1.00  0.00    -0.135 N  
HETATM    9  C   UNL     1      -8.094   5.361  71.598  1.00  0.00    -0.117 C  
ENDROOT
BRANCH   6  10
HETATM   10  N   UNL     1      -9.612   8.150  69.499  1.00  0.00    -0.167 NA 
HETATM   11  N   UNL     1      -8.631  10.965  70.172  1.00  0.00     0.323 NA 
HETATM   12  C   UNL     1     -11.010   8.403  69.126  1.00  0.00     0.085 C  
HETATM   13  C   UNL     1     -11.384   9.862  69.360  1.00  0.00    -0.143 C  
HETATM   14  H2  UNL     1      -9.236  10.568  70.890  1.00  0.00     0.000 HD 
HETATM   15  H1  UNL     1      -7.645  10.776  70.357  1.00  0.00     0.000 HD 
HETATM   16  C   UNL     1     -10.477  10.781  68.548  1.00  0.00    -0.208 C  
HETATM   17  C   UNL     1      -8.702   8.977  68.649  1.00  0.00    -0.133 C  
HETATM   18  C   UNL     1      -8.993  10.495  68.826  1.00  0.00    -0.166 C  
ENDBRANCH   6  10
BRANCH   8  19
HETATM   19  C   UNL     1      -7.708   5.768  69.279  1.00  0.00    -0.089 C  
BRANCH  19  20
HETATM   20  C   UNL     1      -8.438   5.880  67.944  1.00  0.00    -0.107 A  
HETATM   21  C   UNL     1      -8.771   7.124  65.873  1.00  0.00    -0.146 A  
HETATM   22  C   UNL     1      -6.706   7.474  67.125  1.00  0.00    -0.067 C  
HETATM   23  N   UNL     1      -5.686   8.008  67.259  1.00  0.00    -0.037 NA 
HETATM   24  C   UNL     1      -7.971   6.801  66.978  1.00  0.00    -0.109 A  
HETATM   25  C   UNL     1     -10.023   6.531  65.710  1.00  0.00     0.608 A  
HETATM   26  C   UNL     1     -10.452   5.559  66.610  1.00  0.00    -0.355 A  
HETATM   27  C   UNL     1      -9.651   5.210  67.700  1.00  0.00    -0.164 A  
ENDBRANCH  19  20
ENDBRANCH   8  19
TORSDOF 3
ENDMDL
MODEL      275
REMARK 921   NORMALIZED FREE ENERGY PREDICTED BY IDOCK:    3.36 KCAL/MOL
REMARK 922        TOTAL FREE ENERGY PREDICTED BY IDOCK:    3.63 KCAL/MOL
REMARK 923 INTER-LIGAND FREE ENERGY PREDICTED BY IDOCK:   -1.03 KCAL/MOL
REMARK 924 INTRA-LIGAND FREE ENERGY PREDICTED BY IDOCK:    4.66 KCAL/MOL
REMARK 927      BINDING AFFINITY PREDICTED BY RF-SCORE:    0.00 PKD
ROOT
HETATM    1  C   UNL     1     -13.057  15.817  70.607  1.00  0.00    -0.006 C  
HETATM    2  N   UNL     1     -11.641  15.831  70.291  1.00  0.00    -0.336 N  
HETATM    3  C   UNL     1     -10.786  15.047  71.016  1.00  0.00     0.009 C  
HETATM    4  C   UNL     1      -9.395  15.018  70.554  1.00  0.00     1.119 C  
HETATM    5  O   UNL     1     -11.103  14.380  71.998  1.00  0.00     0.841 OA 
HETATM    6  C   UNL     1      -8.976  15.606  69.417  1.00  0.00    -0.265 C  
HETATM    7  O   UNL     1     -12.007  17.394  68.675  1.00  0.00     1.169 OA 
HETATM    8  N   UNL     1      -9.941  16.363  68.726  1.00  0.00    -0.234 N  
HETATM    9  C   UNL     1     -11.237  16.591  69.213  1.00  0.00    -0.213 C  
ENDROOT
BRANCH   6  10
HETATM   10  N   UNL     1      -7.621  15.416  69.015  1.00  0.00    -0.160 NA 
HETATM   11  N   UNL     1      -6.270  18.082  69.656  1.00  0.00    -0.234 NA 
HETATM   12  C   UNL     1      -7.148  15.163  67.647  1.00  0.00    -0.186 C  
HETATM   13  C   UNL     1      -6.345  16.346  67.118  1.00  0.00    -0.215 C  
HETATM   14  H2  UNL     1      -7.059  18.175  69.017  1.00  0.00     0.000 HD 
HETATM   15  H1  UNL     1      -6.553  18.200  70.630  1.00  0.00     0.000 HD 
HETATM   16  C   UNL     1      -5.146  16.620  68.019  1.00  0.00    -0.121 C  
HETATM   17  C   UNL     1      -6.454  15.598  69.931  1.00  0.00    -0.137 C  
HETATM   18  C   UNL     1      -5.571  16.798  69.484  1.00  0.00    -0.170 C  
ENDBRANCH   6  10
BRANCH   8  19
HETATM   19  C   UNL     1      -9.797  16.729  67.315  1.00  0.00    -0.260 C  
BRANCH  19  20
HETATM   20  C   UNL     1      -8.737  17.763  66.951  1.00  0.00    -0.262 A  
HETATM   21  C   UNL     1      -7.924  20.052  67.173  1.00  0.00    -0.351 A  
HETATM   22  C   UNL     1      -9.472  19.195  68.853  1.00  0.00    -0.367 C  
HETATM   23  N   UNL     1     -10.106  19.347  69.811  1.00  0.00     0.106 NA 
HETATM   24  C   UNL     1      -8.694  18.986  67.660  1.00  0.00    -0.317 A  
HETATM   25  C   UNL     1      -7.188  19.912  65.997  1.00  0.00    -0.314 A  
HETATM   26  C   UNL     1      -7.155  18.684  65.341  1.00  0.00    -0.014 A  
HETATM   27  C   UNL     1      -7.896  17.607  65.833  1.00  0.00    -0.109 A  
ENDBRANCH  19  20
ENDBRANCH   8  19
TORSDOF 3
ENDMDL
MODEL      276
REMARK 921   NORMALIZED FREE ENERGY PREDICTED BY IDOCK:    4.70 KCAL/MOL
REMARK 922        TOTAL FREE ENERGY PREDICTED BY IDOCK:    5.21 KCAL/MOL
REMARK 923 INTER-LIGAND FREE ENERGY PREDICTED BY IDOCK:    0.17 KCAL/MOL
REMARK 924 INTRA-LIGAND FREE ENERGY PREDICTED BY IDOCK:    5.04 KCAL/MOL
REMARK 927      BINDING AFFINITY PREDICTED BY RF-SCORE:    0.00 PKD
ROOT
HETATM    1  C   UNL     1      -8.387   9.064  70.640  1.00  0.00    -0.186 C  
HETATM    2  N   UNL     1      -8.768   9.623  69.357  1.00  0.00    -0.157 N  
HETATM    3  C   UNL     1      -8.975  10.971  69.250  1.00  0.00     0.102 C  
HETATM    4  C   UNL     1      -9.231  11.475  67.898  1.00  0.00    -0.168 C  
HETATM    5  O   UNL     1      -8.953  11.764  70.188  1.00  0.00     2.324 OA 
HETATM    6  C   UNL     1      -9.147  10.712  66.790  1.00  0.00    -0.152 C  
HETATM    7  O   UNL     1      -8.785   7.539  68.441  1.00  0.00    -0.124 OA 
HETATM    8  N   UNL     1      -8.897   9.344  67.006  1.00  0.00    -0.127 N  
HETATM    9  C   UNL     1      -8.835   8.762  68.281  1.00  0.00    -0.141 C  
ENDROOT
BRANCH   6  10
HETATM   10  N   UNL     1      -9.310  11.340  65.521  1.00  0.00    -0.222 NA 
HETATM   11  N   UNL     1     -12.329  11.303  65.051  1.00  0.00     0.769 NA 
HETATM   12  C   UNL     1      -8.801  10.844  64.235  1.00  0.00    -0.051 C  
HETATM   13  C   UNL     1      -9.945  10.415  63.322  1.00  0.00    -0.118 C  
HETATM   14  H2  UNL     1     -11.933  10.374  65.194  1.00  0.00     0.000 HD 
HETATM   15  H1  UNL     1     -12.655  11.717  65.925  1.00  0.00     0.000 HD 
HETATM   16  C   UNL     1     -10.890  11.585  63.068  1.00  0.00    -0.099 C  
HETATM   17  C   UNL     1     -10.167  12.544  65.298  1.00  0.00    -0.282 C  
HETATM   18  C   UNL     1     -11.381  12.208  64.384  1.00  0.00    -0.344 C  
ENDBRANCH   6  10
BRANCH   8  19
HETATM   19  C   UNL     1      -8.387   8.458  65.957  1.00  0.00    -0.126 C  
BRANCH  19  20
HETATM   20  C   UNL     1      -7.382   9.033  64.965  1.00  0.00    -0.096 A  
HETATM   21  C   UNL     1      -5.846   8.627  63.114  1.00  0.00    -0.078 A  
HETATM   22  C   UNL     1      -7.609   6.997  63.546  1.00  0.00    -0.105 C  
HETATM   23  N   UNL     1      -8.143   5.998  63.297  1.00  0.00    -0.113 NA 
HETATM   24  C   UNL     1      -6.959   8.240  63.873  1.00  0.00    -0.076 A  
HETATM   25  C   UNL     1      -5.157   9.800  63.419  1.00  0.00    -0.072 A  
HETATM   26  C   UNL     1      -5.619  10.631  64.437  1.00  0.00    -0.071 A  
HETATM   27  C   UNL     1      -6.743  10.269  65.182  1.00  0.00    -0.120 A  
ENDBRANCH  19  20
ENDBRANCH   8  19
TORSDOF 3
ENDMDL
MODEL      277
REMARK 921   NORMALIZED FREE ENERGY PREDICTED BY IDOCK:    5.94 KCAL/MOL
REMARK 922        TOTAL FREE ENERGY PREDICTED BY IDOCK:    6.66 KCAL/MOL
REMARK 923 INTER-LIGAND FREE ENERGY PREDICTED BY IDOCK:    3.74 KCAL/MOL
REMARK 924 INTRA-LIGAND FREE ENERGY PREDICTED BY IDOCK:    2.92 KCAL/MOL
REMARK 927      BINDING AFFINITY PREDICTED BY RF-SCORE:    0.00 PKD
ROOT
HETATM    1  C   UNL     1     -11.686  18.065  72.681  1.00  0.00     3.052 C  
HETATM    2  N   UNL     1     -11.280  17.157  71.624  1.00  0.00     0.748 N  
HETATM    3  C   UNL     1     -11.773  15.881  71.613  1.00  0.00    -0.485 C  
HETATM    4  C   UNL     1     -11.418  15.068  70.446  1.00  0.00    -0.321 C  
HETATM    5  O   UNL     1     -12.479  15.390  72.490  1.00  0.00    -0.323 OA 
HETATM    6  C   UNL     1     -10.762  15.551  69.373  1.00  0.00    -0.251 C  
HETATM    7  O   UNL     1      -9.923  18.764  70.752  1.00  0.00     1.754 OA 
HETATM    8  N   UNL     1     -10.326  16.886  69.471  1.00  0.00    -0.241 N  
HETATM    9  C   UNL     1     -10.462  17.659  70.634  1.00  0.00     1.763 C  
ENDROOT
BRANCH   6  10
HETATM   10  N   UNL     1     -10.571  14.691  68.252  1.00  0.00    -0.231 NA 
HETATM   11  N   UNL     1     -10.082  11.941  69.493  1.00  0.00    -0.098 NA 
HETATM   12  C   UNL     1      -9.481  14.774  67.270  1.00  0.00    -0.214 C  
HETATM   13  C   UNL     1      -8.546  13.575  67.389  1.00  0.00    -0.209 C  
HETATM   14  H2  UNL     1      -9.416  12.647  69.805  1.00  0.00     0.000 HD 
HETATM   15  H1  UNL     1     -10.888  11.876  70.116  1.00  0.00     0.000 HD 
HETATM   16  C   UNL     1      -9.315  12.277  67.174  1.00  0.00    -0.196 C  
HETATM   17  C   UNL     1     -11.392  13.468  67.999  1.00  0.00    -0.285 C  
HETATM   18  C   UNL     1     -10.528  12.179  68.111  1.00  0.00    -0.211 C  
ENDBRANCH   6  10
BRANCH   8  19
HETATM   19  C   UNL     1      -9.967  17.688  68.299  1.00  0.00    -0.339 C  
BRANCH  19  20
HETATM   20  C   UNL     1      -8.621  18.404  68.311  1.00  0.00    -0.321 A  
HETATM   21  C   UNL     1      -6.325  18.496  67.492  1.00  0.00    -0.194 A  
HETATM   22  C   UNL     1      -7.971  17.230  66.211  1.00  0.00    -0.295 C  
HETATM   23  N   UNL     1      -8.246  16.555  65.310  1.00  0.00     1.349 NA 
HETATM   24  C   UNL     1      -7.650  18.065  67.340  1.00  0.00    -0.213 A  
HETATM   25  C   UNL     1      -5.956  19.270  68.591  1.00  0.00    -0.238 A  
HETATM   26  C   UNL     1      -6.923  19.682  69.506  1.00  0.00    -0.314 A  
HETATM   27  C   UNL     1      -8.252  19.281  69.349  1.00  0.00     0.060 A  
ENDBRANCH  19  20
ENDBRANCH   8  19
TORSDOF 3
ENDMDL
MODEL      278
REMARK 921   NORMALIZED FREE ENERGY PREDICTED BY IDOCK:    7.13 KCAL/MOL
REMARK 922        TOTAL FREE ENERGY PREDICTED BY IDOCK:    8.07 KCAL/MOL
REMARK 923 INTER-LIGAND FREE ENERGY PREDICTED BY IDOCK:    7.85 KCAL/MOL
REMARK 924 INTRA-LIGAND FREE ENERGY PREDICTED BY IDOCK:    0.22 KCAL/MOL
REMARK 927      BINDING AFFINITY PREDICTED BY RF-SCORE:    0.00 PKD
ROOT
HETATM    1  C   UNL     1     -12.146  10.047  64.990  1.00  0.00     6.887 C  
HETATM    2  N   UNL     1     -11.287  11.084  65.528  1.00  0.00     0.172 N  
HETATM    3  C   UNL     1     -11.706  11.803  66.614  1.00  0.00    -0.093 C  
HETATM    4  C   UNL     1     -10.731  12.743  67.176  1.00  0.00    -0.264 C  
HETATM    5  O   UNL     1     -12.813  11.708  67.138  1.00  0.00     1.961 OA 
HETATM    6  C   UNL     1      -9.452  12.827  66.759  1.00  0.00    -0.243 C  
HETATM    7  O   UNL     1      -9.759  10.685  63.888  1.00  0.00    -0.270 OA 
HETATM    8  N   UNL     1      -9.113  12.022  65.656  1.00  0.00    -0.012 N  
HETATM    9  C   UNL     1     -10.045  11.246  64.950  1.00  0.00    -0.281 C  
ENDROOT
BRANCH   6  10
HETATM   10  N   UNL     1      -8.569  13.702  67.456  1.00  0.00    -0.184 NA 
HETATM   11  N   UNL     1     -10.400  15.877  68.576  1.00  0.00    -0.226 NA 
HETATM   12  C   UNL     1      -7.488  14.499  66.862  1.00  0.00     0.464 C  
HETATM   13  C   UNL     1      -7.802  15.989  66.934  1.00  0.00    -0.284 C  
HETATM   14  H2  UNL     1     -10.453  15.791  67.561  1.00  0.00     0.000 HD 
HETATM   15  H1  UNL     1     -11.102  15.303  69.044  1.00  0.00     0.000 HD 
HETATM   16  C   UNL     1      -8.003  16.421  68.382  1.00  0.00    -0.178 C  
HETATM   17  C   UNL     1      -8.719  14.048  68.903  1.00  0.00     0.063 C  
HETATM   18  C   UNL     1      -9.058  15.556  69.087  1.00  0.00    -0.248 C  
ENDBRANCH   6  10
BRANCH   8  19
HETATM   19  C   UNL     1      -7.728  11.680  65.322  1.00  0.00     1.252 C  
BRANCH  19  20
HETATM   20  C   UNL     1      -6.889  10.983  66.388  1.00  0.00    -0.118 A  
HETATM   21  C   UNL     1      -6.549   9.012  67.783  1.00  0.00    -0.061 A  
HETATM   22  C   UNL     1      -7.914   8.796  65.772  1.00  0.00    -0.105 C  
HETATM   23  N   UNL     1      -8.576   8.159  65.065  1.00  0.00    -0.105 NA 
HETATM   24  C   UNL     1      -7.097   9.607  66.638  1.00  0.00    -0.086 A  
HETATM   25  C   UNL     1      -5.787   9.765  68.674  1.00  0.00    -0.039 A  
HETATM   26  C   UNL     1      -5.505  11.099  68.390  1.00  0.00    -0.042 A  
HETATM   27  C   UNL     1      -6.022  11.695  67.238  1.00  0.00    -0.112 A  
ENDBRANCH  19  20
ENDBRANCH   8  19
TORSDOF 3
ENDMDL
MODEL      279
REMARK 921   NORMALIZED FREE ENERGY PREDICTED BY IDOCK:    9.87 KCAL/MOL
REMARK 922        TOTAL FREE ENERGY PREDICTED BY IDOCK:   11.28 KCAL/MOL
REMARK 923 INTER-LIGAND FREE ENERGY PREDICTED BY IDOCK:   10.63 KCAL/MOL
REMARK 924 INTRA-LIGAND FREE ENERGY PREDICTED BY IDOCK:    0.65 KCAL/MOL
REMARK 927      BINDING AFFINITY PREDICTED BY RF-SCORE:    0.00 PKD
ROOT
HETATM    1  C   UNL     1      -8.449  10.890  69.858  1.00  0.00     0.774 C  
HETATM    2  N   UNL     1      -9.268  11.825  69.110  1.00  0.00     0.259 N  
HETATM    3  C   UNL     1      -9.817  12.899  69.757  1.00  0.00     1.892 C  
HETATM    4  C   UNL     1     -10.523  13.865  68.909  1.00  0.00    -0.199 C  
HETATM    5  O   UNL     1      -9.752  13.103  70.966  1.00  0.00     6.540 OA 
HETATM    6  C   UNL     1     -10.539  13.803  67.563  1.00  0.00    -0.244 C  
HETATM    7  O   UNL     1      -9.009  10.566  67.231  1.00  0.00    -0.139 OA 
HETATM    8  N   UNL     1      -9.918  12.675  66.994  1.00  0.00    -0.217 N  
HETATM    9  C   UNL     1      -9.394  11.617  67.752  1.00  0.00    -0.178 C  
ENDROOT
BRANCH   6  10
HETATM   10  N   UNL     1     -11.168  14.861  66.844  1.00  0.00    -0.342 NA 
HETATM   11  N   UNL     1      -8.848  16.648  65.967  1.00  0.00    -0.484 NA 
HETATM   12  C   UNL     1     -12.111  15.844  67.393  1.00  0.00     0.917 C  
HETATM   13  C   UNL     1     -11.497  17.240  67.414  1.00  0.00     0.698 C  
HETATM   14  H2  UNL     1      -8.899  16.522  66.978  1.00  0.00     0.000 HD 
HETATM   15  H1  UNL     1      -8.241  15.957  65.526  1.00  0.00     0.000 HD 
HETATM   16  C   UNL     1     -11.095  17.665  66.007  1.00  0.00     0.502 C  
HETATM   17  C   UNL     1     -10.831  15.213  65.430  1.00  0.00    -0.381 C  
HETATM   18  C   UNL     1     -10.181  16.624  65.343  1.00  0.00    -0.111 C  
ENDBRANCH   6  10
BRANCH   8  19
HETATM   19  C   UNL     1      -9.491  12.630  65.594  1.00  0.00     0.025 C  
BRANCH  19  20
HETATM   20  C   UNL     1     -10.491  12.125  64.559  1.00  0.00    -0.339 A  
HETATM   21  C   UNL     1     -10.864  11.044  62.405  1.00  0.00     1.346 A  
HETATM   22  C   UNL     1      -8.714  10.727  63.514  1.00  0.00    -0.106 C  
HETATM   23  N   UNL     1      -7.644  10.282  63.531  1.00  0.00    -0.135 NA 
HETATM   24  C   UNL     1     -10.038  11.292  63.511  1.00  0.00    -0.443 A  
HETATM   25  C   UNL     1     -12.139  11.604  62.336  1.00  0.00     1.928 A  
HETATM   26  C   UNL     1     -12.625  12.354  63.404  1.00  0.00    -0.481 A  
HETATM   27  C   UNL     1     -11.822  12.585  64.523  1.00  0.00    -0.448 A  
ENDBRANCH  19  20
ENDBRANCH   8  19
TORSDOF 3
ENDMDL
MODEL      280
REMARK 921   NORMALIZED FREE ENERGY PREDICTED BY IDOCK:   10.67 KCAL/MOL
REMARK 922        TOTAL FREE ENERGY PREDICTED BY IDOCK:   12.22 KCAL/MOL
REMARK 923 INTER-LIGAND FREE ENERGY PREDICTED BY IDOCK:    5.33 KCAL/MOL
REMARK 924 INTRA-LIGAND FREE ENERGY PREDICTED BY IDOCK:    6.89 KCAL/MOL
REMARK 927      BINDING AFFINITY PREDICTED BY RF-SCORE:    0.00 PKD
ROOT
HETATM    1  C   UNL     1     -11.999  13.983  63.851  1.00  0.00    -0.287 C  
HETATM    2  N   UNL     1     -11.313  12.982  64.646  1.00  0.00    -0.314 N  
HETATM    3  C   UNL     1     -10.057  12.583  64.281  1.00  0.00    -0.271 C  
HETATM    4  C   UNL     1      -9.382  11.667  65.204  1.00  0.00    -0.076 C  
HETATM    5  O   UNL     1      -9.473  12.940  63.261  1.00  0.00     0.717 OA 
HETATM    6  C   UNL     1      -9.879  11.321  66.407  1.00  0.00    -0.211 C  
HETATM    7  O   UNL     1     -13.131  12.801  66.006  1.00  0.00     0.216 OA 
HETATM    8  N   UNL     1     -11.166  11.810  66.702  1.00  0.00    -0.315 N  
HETATM    9  C   UNL     1     -11.947  12.531  65.786  1.00  0.00    -0.420 C  
ENDROOT
BRANCH   6  10
HETATM   10  N   UNL     1      -9.079  10.509  67.264  1.00  0.00    -0.143 NA 
HETATM   11  N   UNL     1      -6.338  11.859  67.227  1.00  0.00    -0.128 NA 
HETATM   12  C   UNL     1      -8.722   9.101  67.041  1.00  0.00    -0.123 C  
HETATM   13  C   UNL     1      -7.230   8.952  66.763  1.00  0.00    -0.082 C  
HETATM   14  H2  UNL     1      -6.662  11.583  66.300  1.00  0.00     0.000 HD 
HETATM   15  H1  UNL     1      -6.603  12.817  67.454  1.00  0.00     0.000 HD 
HETATM   16  C   UNL     1      -6.415   9.496  67.930  1.00  0.00    -0.062 C  
HETATM   17  C   UNL     1      -8.356  11.034  68.462  1.00  0.00    -0.149 C  
HETATM   18  C   UNL     1      -6.814  10.940  68.272  1.00  0.00    -0.067 C  
ENDBRANCH   6  10
BRANCH   8  19
HETATM   19  C   UNL     1     -11.692  11.880  68.068  1.00  0.00    -0.312 C  
BRANCH  19  20
HETATM   20  C   UNL     1     -10.983  11.068  69.147  1.00  0.00    -0.289 A  
HETATM   21  C   UNL     1      -9.133  10.908  70.729  1.00  0.00     3.653 A  
HETATM   22  C   UNL     1      -9.770  13.112  69.896  1.00  0.00     2.336 C  
HETATM   23  N   UNL     1      -9.610  14.259  69.853  1.00  0.00     0.772 NA 
HETATM   24  C   UNL     1      -9.984  11.688  69.932  1.00  0.00     1.379 A  
HETATM   25  C   UNL     1      -9.274   9.522  70.763  1.00  0.00    -0.195 A  
HETATM   26  C   UNL     1     -10.310   8.911  70.061  1.00  0.00    -0.219 A  
HETATM   27  C   UNL     1     -11.181   9.681  69.287  1.00  0.00    -0.083 A  
ENDBRANCH  19  20
ENDBRANCH   8  19
TORSDOF 3
ENDMDL
MODEL      281
REMARK 921   NORMALIZED FREE ENERGY PREDICTED BY IDOCK:   11.34 KCAL/MOL
REMARK 922        TOTAL FREE ENERGY PREDICTED BY IDOCK:   13.02 KCAL/MOL
REMARK 923 INTER-LIGAND FREE ENERGY PREDICTED BY IDOCK:    8.57 KCAL/MOL
REMARK 924 INTRA-LIGAND FREE ENERGY PREDICTED BY IDOCK:    4.45 KCAL/MOL
REMARK 927      BINDING AFFINITY PREDICTED BY RF-SCORE:    0.00 PKD
ROOT
HETATM    1  C   UNL     1     -11.331  18.168  72.525  1.00  0.00     2.907 C  
HETATM    2  N   UNL     1     -11.018  17.357  71.363  1.00  0.00     1.319 N  
HETATM    3  C   UNL     1     -11.575  16.113  71.246  1.00  0.00    -0.413 C  
HETATM    4  C   UNL     1     -11.313  15.410  69.987  1.00  0.00    -0.322 C  
HETATM    5  O   UNL     1     -12.267  15.567  72.102  1.00  0.00    -0.330 OA 
HETATM    6  C   UNL     1     -10.680  15.971  68.938  1.00  0.00    -0.275 C  
HETATM    7  O   UNL     1      -9.620  18.981  70.594  1.00  0.00     1.654 OA 
HETATM    8  N   UNL     1     -10.173  17.267  69.150  1.00  0.00    -0.313 N  
HETATM    9  C   UNL     1     -10.219  17.921  70.390  1.00  0.00     1.652 C  
ENDROOT
BRANCH   6  10
HETATM   10  N   UNL     1     -10.582  15.224  67.728  1.00  0.00    -0.260 NA 
HETATM   11  N   UNL     1     -11.206  17.264  65.538  1.00  0.00     0.223 NA 
HETATM   12  C   UNL     1     -11.432  14.094  67.333  1.00  0.00    -0.345 C  
HETATM   13  C   UNL     1     -12.316  14.461  66.146  1.00  0.00    -0.335 C  
HETATM   14  H2  UNL     1     -11.956  17.166  66.222  1.00  0.00     0.000 HD 
HETATM   15  H1  UNL     1     -10.554  18.007  65.790  1.00  0.00     0.000 HD 
HETATM   16  C   UNL     1     -11.460  14.881  64.956  1.00  0.00    -0.379 C  
HETATM   17  C   UNL     1      -9.671  15.592  66.601  1.00  0.00    -0.249 C  
HETATM   18  C   UNL     1     -10.479  16.000  65.335  1.00  0.00    -0.392 C  
ENDBRANCH   6  10
BRANCH   8  19
HETATM   19  C   UNL     1      -9.825  18.169  68.050  1.00  0.00    -0.325 C  
BRANCH  19  20
HETATM   20  C   UNL     1      -8.396  18.700  67.988  1.00  0.00    -0.299 A  
HETATM   21  C   UNL     1      -6.300  18.845  66.750  1.00  0.00    -0.200 A  
HETATM   22  C   UNL     1      -8.337  18.273  65.534  1.00  0.00     0.921 C  
HETATM   23  N   UNL     1      -8.877  17.985  64.550  1.00  0.00     5.345 NA 
HETATM   24  C   UNL     1      -7.685  18.627  66.769  1.00  0.00    -0.255 A  
HETATM   25  C   UNL     1      -5.617  19.148  67.927  1.00  0.00    -0.193 A  
HETATM   26  C   UNL     1      -6.323  19.308  69.117  1.00  0.00    -0.317 A  
HETATM   27  C   UNL     1      -7.707  19.120  69.142  1.00  0.00    -0.247 A  
ENDBRANCH  19  20
ENDBRANCH   8  19
TORSDOF 3
ENDMDL
MODEL      282
REMARK 921   NORMALIZED FREE ENERGY PREDICTED BY IDOCK:   18.78 KCAL/MOL
REMARK 922        TOTAL FREE ENERGY PREDICTED BY IDOCK:   21.76 KCAL/MOL
REMARK 923 INTER-LIGAND FREE ENERGY PREDICTED BY IDOCK:   12.26 KCAL/MOL
REMARK 924 INTRA-LIGAND FREE ENERGY PREDICTED BY IDOCK:    9.50 KCAL/MOL
REMARK 927      BINDING AFFINITY PREDICTED BY RF-SCORE:    0.00 PKD
ROOT
HETATM    1  C   UNL     1     -13.508  15.515  65.934  1.00  0.00     3.215 C  
HETATM    2  N   UNL     1     -12.221  15.018  66.382  1.00  0.00     0.114 N  
HETATM    3  C   UNL     1     -11.126  15.174  65.576  1.00  0.00    -0.345 C  
HETATM    4  C   UNL     1      -9.843  14.762  66.152  1.00  0.00    -0.335 C  
HETATM    5  O   UNL     1     -11.149  15.630  64.436  1.00  0.00    -0.342 OA 
HETATM    6  C   UNL     1      -9.691  14.374  67.434  1.00  0.00    -0.220 C  
HETATM    7  O   UNL     1     -13.181  14.214  68.284  1.00  0.00     1.897 OA 
HETATM    8  N   UNL     1     -10.875  14.278  68.189  1.00  0.00    -0.239 N  
HETATM    9  C   UNL     1     -12.155  14.469  67.646  1.00  0.00    -0.231 C  
ENDROOT
BRANCH   6  10
HETATM   10  N   UNL     1      -8.375  14.103  67.909  1.00  0.00    -0.149 NA 
HETATM   11  N   UNL     1      -7.581  16.646  69.406  1.00  0.00    -0.133 NA 
HETATM   12  C   UNL     1      -7.186  13.861  67.080  1.00  0.00     0.243 C  
HETATM   13  C   UNL     1      -6.182  15.001  67.216  1.00  0.00     0.254 C  
HETATM   14  H2  UNL     1      -7.824  16.814  68.430  1.00  0.00     0.000 HD 
HETATM   15  H1  UNL     1      -8.386  16.753  70.024  1.00  0.00     0.000 HD 
HETATM   16  C   UNL     1      -5.754  15.162  68.671  1.00  0.00    -0.090 C  
HETATM   17  C   UNL     1      -7.985  14.173  69.350  1.00  0.00     0.294 C  
HETATM   18  C   UNL     1      -6.966  15.323  69.600  1.00  0.00    -0.188 C  
ENDBRANCH   6  10
BRANCH   8  19
HETATM   19  C   UNL     1     -10.881  14.266  69.654  1.00  0.00    -0.064 C  
BRANCH  19  20
HETATM   20  C   UNL     1     -11.867  13.339  70.356  1.00  0.00    -0.270 A  
HETATM   21  C   UNL     1     -14.085  13.039  71.325  1.00  0.00     1.287 A  
HETATM   22  C   UNL     1     -13.744  14.854  69.730  1.00  0.00     1.893 C  
HETATM   23  N   UNL     1     -14.146  15.767  69.140  1.00  0.00     3.970 NA 
HETATM   24  C   UNL     1     -13.224  13.725  70.457  1.00  0.00     0.112 A  
HETATM   25  C   UNL     1     -13.617  11.967  72.083  1.00  0.00    -0.236 A  
HETATM   26  C   UNL     1     -12.305  11.526  71.924  1.00  0.00     0.341 A  
HETATM   27  C   UNL     1     -11.446  12.184  71.042  1.00  0.00     1.486 A  
ENDBRANCH  19  20
ENDBRANCH   8  19
TORSDOF 3
ENDMDL
MODEL      283
REMARK 921   NORMALIZED FREE ENERGY PREDICTED BY IDOCK:   44.74 KCAL/MOL
REMARK 922        TOTAL FREE ENERGY PREDICTED BY IDOCK:   52.27 KCAL/MOL
REMARK 923 INTER-LIGAND FREE ENERGY PREDICTED BY IDOCK:   51.86 KCAL/MOL
REMARK 924 INTRA-LIGAND FREE ENERGY PREDICTED BY IDOCK:    0.41 KCAL/MOL
REMARK 927      BINDING AFFINITY PREDICTED BY RF-SCORE:    0.00 PKD
ROOT
HETATM    1  C   UNL     1      -8.132  10.699  70.655  1.00  0.00     2.016 C  
HETATM    2  N   UNL     1      -9.190  11.675  70.471  1.00  0.00     4.346 N  
HETATM    3  C   UNL     1      -9.741  12.279  71.568  1.00  0.00    13.534 C  
HETATM    4  C   UNL     1     -10.711  13.343  71.294  1.00  0.00     4.413 C  
HETATM    5  O   UNL     1      -9.476  12.000  72.734  1.00  0.00    19.475 OA 
HETATM    6  C   UNL     1     -10.972  13.813  70.058  1.00  0.00     0.317 C  
HETATM    7  O   UNL     1      -9.129  11.331  68.221  1.00  0.00    -0.159 OA 
HETATM    8  N   UNL     1     -10.329  13.144  68.999  1.00  0.00    -0.036 N  
HETATM    9  C   UNL     1      -9.541  11.997  69.176  1.00  0.00     0.418 C  
ENDROOT
BRANCH   6  10
HETATM   10  N   UNL     1     -11.854  14.925  69.928  1.00  0.00    -0.292 NA 
HETATM   11  N   UNL     1     -11.994  16.101  72.745  1.00  0.00    -0.521 NA 
HETATM   12  C   UNL     1     -13.275  14.868  69.558  1.00  0.00     1.033 C  
HETATM   13  C   UNL     1     -14.163  15.268  70.731  1.00  0.00     0.082 C  
HETATM   14  H2  UNL     1     -12.281  15.124  72.704  1.00  0.00     0.000 HD 
HETATM   15  H1  UNL     1     -11.000  16.199  72.952  1.00  0.00     0.000 HD 
HETATM   16  C   UNL     1     -13.825  16.679  71.197  1.00  0.00     5.087 C  
HETATM   17  C   UNL     1     -11.482  16.324  70.303  1.00  0.00    -0.230 C  
HETATM   18  C   UNL     1     -12.328  16.826  71.509  1.00  0.00     1.537 C  
ENDBRANCH   6  10
BRANCH   8  19
HETATM   19  C   UNL     1     -10.171  13.736  67.669  1.00  0.00    -0.242 C  
BRANCH  19  20
HETATM   20  C   UNL     1     -11.368  13.701  66.725  1.00  0.00    -0.346 A  
HETATM   21  C   UNL     1     -12.249  13.107  64.530  1.00  0.00    -0.466 A  
HETATM   22  C   UNL     1     -10.201  12.024  65.298  1.00  0.00    -0.271 C  
HETATM   23  N   UNL     1      -9.319  11.294  65.121  1.00  0.00    -0.213 NA 
HETATM   24  C   UNL     1     -11.288  12.940  65.537  1.00  0.00    -0.340 A  
HETATM   25  C   UNL     1     -13.295  14.013  64.696  1.00  0.00     1.009 A  
HETATM   26  C   UNL     1     -13.431  14.702  65.899  1.00  0.00     1.616 A  
HETATM   27  C   UNL     1     -12.495  14.523  66.920  1.00  0.00     0.099 A  
ENDBRANCH  19  20
ENDBRANCH   8  19
TORSDOF 3
ENDMDL
