MODEL        1
REMARK 921   NORMALIZED FREE ENERGY PREDICTED BY IDOCK:   -8.34 KCAL/MOL
REMARK 922        TOTAL FREE ENERGY PREDICTED BY IDOCK:  -12.36 KCAL/MOL
REMARK 923 INTER-LIGAND FREE ENERGY PREDICTED BY IDOCK:  -11.26 KCAL/MOL
REMARK 924 INTRA-LIGAND FREE ENERGY PREDICTED BY IDOCK:   -1.09 KCAL/MOL
REMARK 927      BINDING AFFINITY PREDICTED BY RF-SCORE:    0.00 PKD
ROOT
HETATM    1  C   UNL     1     -12.652  13.850  71.495  1.00  0.00    -0.419 C  
HETATM    2  C   UNL     1     -12.285  13.098  70.265  1.00  0.00    -0.306 A  
HETATM    3  C   UNL     1     -12.110  11.724  70.080  1.00  0.00    -0.317 A  
HETATM    4  S   UNL     1     -11.597  11.465  68.445  1.00  0.00    -0.309 SA 
HETATM    5  N   UNL     1     -12.104  13.877  69.128  1.00  0.00    -0.356 NA 
HETATM    6  C   UNL     1     -11.763  13.127  68.121  1.00  0.00    -0.355 A  
ENDROOT
BRANCH   3   7
HETATM    7  C   UNL     1     -12.248  10.571  70.996  1.00  0.00    -0.505 A  
HETATM    8  C   UNL     1     -11.375   8.546  72.044  1.00  0.00    -0.355 A  
HETATM    9  C   UNL     1     -13.528   9.258  72.529  1.00  0.00    -0.404 A  
HETATM   10  C   UNL     1     -11.211   9.636  71.176  1.00  0.00    -0.454 A  
HETATM   11  N   UNL     1     -12.542   8.357  72.703  1.00  0.00    -0.262 NA 
HETATM   12  C   UNL     1     -13.426  10.368  71.712  1.00  0.00    -0.366 A  
BRANCH   8  13
HETATM   13  C   UNL     1     -10.278   7.491  72.247  1.00  0.00    -0.252 C  
HETATM   14  F   UNL     1     -10.640   5.136  71.937  1.00  0.00    -0.262 F  
HETATM   15  C   UNL     1      -8.869   8.107  72.045  1.00  0.00    -0.233 C  
HETATM   16  C   UNL     1     -10.331   6.998  73.710  1.00  0.00    -0.408 C  
HETATM   17  F   UNL     1      -9.338   6.112  70.500  1.00  0.00    -0.154 F  
HETATM   18  F   UNL     1     -11.481   6.436  70.422  1.00  0.00    -0.355 F  
HETATM   19  C   UNL     1     -10.437   6.302  71.271  1.00  0.00    -0.218 C  
ENDBRANCH   8  13
ENDBRANCH   3   7
BRANCH   6  20
HETATM   20  N   UNL     1     -11.513  13.459  66.819  1.00  0.00    -0.328 N  
HETATM   21  H   UNL     1     -12.256  13.905  66.282  1.00  0.00     0.000 HD 
BRANCH  20  22
HETATM   22  C   UNL     1     -10.314  13.223  66.195  1.00  0.00    -0.290 C  
HETATM   23  O   UNL     1      -9.243  13.755  66.475  1.00  0.00    -0.257 OA 
BRANCH  22  24
HETATM   24  N   UNL     1     -10.384  12.296  65.163  1.00  0.00    -0.280 N  
HETATM   25  C   UNL     1     -10.116  10.886  65.385  1.00  0.00    -0.277 C  
HETATM   26  C   UNL     1      -9.489  10.431  64.080  1.00  0.00    -0.353 C  
HETATM   27  C   UNL     1     -10.171  11.285  63.015  1.00  0.00    -0.293 C  
HETATM   28  C   UNL     1     -10.603  12.564  63.738  1.00  0.00    -0.436 C  
BRANCH  28  29
HETATM   29  C   UNL     1     -12.085  12.870  63.456  1.00  0.00    -0.555 C  
HETATM   30  N   UNL     1     -12.406  14.181  63.243  1.00  0.00    -1.133 N  
HETATM   31  O   UNL     1     -12.961  12.014  63.541  1.00  0.00    -0.774 OA 
HETATM   32  H1  UNL     1     -13.389  14.383  63.057  1.00  0.00     0.000 HD 
HETATM   33  H2  UNL     1     -11.702  14.917  63.269  1.00  0.00     0.000 HD 
ENDBRANCH  28  29
ENDBRANCH  22  24
ENDBRANCH  20  22
ENDBRANCH   6  20
TORSDOF 6
ENDMDL
MODEL        2
REMARK 921   NORMALIZED FREE ENERGY PREDICTED BY IDOCK:   -8.05 KCAL/MOL
REMARK 922        TOTAL FREE ENERGY PREDICTED BY IDOCK:  -11.97 KCAL/MOL
REMARK 923 INTER-LIGAND FREE ENERGY PREDICTED BY IDOCK:  -10.82 KCAL/MOL
REMARK 924 INTRA-LIGAND FREE ENERGY PREDICTED BY IDOCK:   -1.15 KCAL/MOL
REMARK 927      BINDING AFFINITY PREDICTED BY RF-SCORE:    0.00 PKD
ROOT
HETATM    1  C   UNL     1     -12.267  15.137  70.263  1.00  0.00    -0.395 C  
HETATM    2  C   UNL     1     -11.908  13.993  69.382  1.00  0.00    -0.333 A  
HETATM    3  C   UNL     1     -11.385  13.996  68.087  1.00  0.00    -0.292 A  
HETATM    4  S   UNL     1     -11.265  12.351  67.555  1.00  0.00    -0.315 SA 
HETATM    5  N   UNL     1     -12.109  12.735  69.938  1.00  0.00    -0.292 NA 
HETATM    6  C   UNL     1     -11.789  11.810  69.080  1.00  0.00    -0.326 A  
ENDROOT
BRANCH   3   7
HETATM    7  C   UNL     1     -10.991  15.091  67.175  1.00  0.00    -0.329 A  
HETATM    8  C   UNL     1      -9.989  17.279  66.754  1.00  0.00    -0.301 A  
HETATM    9  C   UNL     1     -10.910  16.075  64.998  1.00  0.00    -0.404 A  
HETATM   10  C   UNL     1     -10.342  16.251  67.642  1.00  0.00    -0.284 A  
HETATM   11  N   UNL     1     -10.292  17.189  65.438  1.00  0.00    -0.637 NA 
HETATM   12  C   UNL     1     -11.262  15.013  65.811  1.00  0.00    -0.318 A  
BRANCH   8  13
HETATM   13  C   UNL     1      -9.305  18.568  67.228  1.00  0.00    -0.286 C  
HETATM   14  F   UNL     1     -10.106  20.766  66.678  1.00  0.00    -0.530 F  
HETATM   15  C   UNL     1      -8.499  18.324  68.531  1.00  0.00    -0.325 C  
HETATM   16  C   UNL     1      -8.279  19.005  66.158  1.00  0.00    -0.246 C  
HETATM   17  F   UNL     1     -10.268  20.170  68.759  1.00  0.00    -0.517 F  
HETATM   18  F   UNL     1     -11.610  19.326  67.279  1.00  0.00    -0.273 F  
HETATM   19  C   UNL     1     -10.327  19.699  67.490  1.00  0.00    -0.448 C  
ENDBRANCH   8  13
ENDBRANCH   3   7
BRANCH   6  20
HETATM   20  N   UNL     1     -11.803  10.449  69.204  1.00  0.00    -0.518 N  
HETATM   21  H   UNL     1     -12.540   9.928  68.730  1.00  0.00     0.000 HD 
BRANCH  20  22
HETATM   22  C   UNL     1     -10.877   9.746  69.933  1.00  0.00    -0.272 C  
HETATM   23  O   UNL     1      -9.674   9.986  69.986  1.00  0.00    -0.235 OA 
BRANCH  22  24
HETATM   24  N   UNL     1     -11.409   8.681  70.648  1.00  0.00    -0.260 N  
HETATM   25  C   UNL     1     -10.583   7.572  71.094  1.00  0.00    -0.222 C  
HETATM   26  C   UNL     1     -11.519   6.380  71.033  1.00  0.00    -0.394 C  
HETATM   27  C   UNL     1     -12.890   6.959  71.371  1.00  0.00    -0.365 C  
HETATM   28  C   UNL     1     -12.821   8.431  70.957  1.00  0.00     0.034 C  
BRANCH  28  29
HETATM   29  C   UNL     1     -13.302   9.338  72.104  1.00  0.00    -0.468 C  
HETATM   30  N   UNL     1     -14.053   8.741  73.078  1.00  0.00    -0.813 N  
HETATM   31  O   UNL     1     -13.138  10.554  72.095  1.00  0.00    -0.459 OA 
HETATM   32  H1  UNL     1     -14.372   9.342  73.838  1.00  0.00     0.000 HD 
HETATM   33  H2  UNL     1     -14.282   7.748  73.046  1.00  0.00     0.000 HD 
ENDBRANCH  28  29
ENDBRANCH  22  24
ENDBRANCH  20  22
ENDBRANCH   6  20
TORSDOF 6
ENDMDL
MODEL        3
REMARK 921   NORMALIZED FREE ENERGY PREDICTED BY IDOCK:   -7.96 KCAL/MOL
REMARK 922        TOTAL FREE ENERGY PREDICTED BY IDOCK:  -11.85 KCAL/MOL
REMARK 923 INTER-LIGAND FREE ENERGY PREDICTED BY IDOCK:  -10.60 KCAL/MOL
REMARK 924 INTRA-LIGAND FREE ENERGY PREDICTED BY IDOCK:   -1.25 KCAL/MOL
REMARK 927      BINDING AFFINITY PREDICTED BY RF-SCORE:    0.00 PKD
ROOT
HETATM    1  C   UNL     1     -11.348  16.197  70.469  1.00  0.00    -0.392 C  
HETATM    2  C   UNL     1     -11.239  15.743  69.057  1.00  0.00    -0.319 A  
HETATM    3  C   UNL     1     -10.711  16.407  67.947  1.00  0.00    -0.332 A  
HETATM    4  S   UNL     1     -10.949  15.398  66.558  1.00  0.00    -0.222 SA 
HETATM    5  N   UNL     1     -11.719  14.462  68.810  1.00  0.00    -0.319 NA 
HETATM    6  C   UNL     1     -11.599  14.176  67.546  1.00  0.00    -0.367 A  
ENDROOT
BRANCH   3   7
HETATM    7  C   UNL     1     -10.074  17.732  67.789  1.00  0.00    -0.345 A  
HETATM    8  C   UNL     1      -8.105  19.176  67.747  1.00  0.00    -0.278 A  
HETATM    9  C   UNL     1     -10.214  20.092  67.436  1.00  0.00    -0.406 A  
HETATM   10  C   UNL     1      -8.680  17.905  67.891  1.00  0.00    -0.252 A  
HETATM   11  N   UNL     1      -8.881  20.265  67.537  1.00  0.00    -0.336 NA 
HETATM   12  C   UNL     1     -10.844  18.866  67.541  1.00  0.00    -0.440 A  
BRANCH   8  13
HETATM   13  C   UNL     1      -6.593  19.408  67.877  1.00  0.00    -0.258 C  
HETATM   14  F   UNL     1      -5.633  21.044  69.352  1.00  0.00    -0.377 F  
HETATM   15  C   UNL     1      -5.799  18.136  67.483  1.00  0.00    -0.153 C  
HETATM   16  C   UNL     1      -6.175  20.509  66.877  1.00  0.00    -0.252 C  
HETATM   17  F   UNL     1      -5.286  18.962  69.859  1.00  0.00    -0.185 F  
HETATM   18  F   UNL     1      -7.240  19.847  70.176  1.00  0.00    -0.294 F  
HETATM   19  C   UNL     1      -6.195  19.808  69.318  1.00  0.00    -0.312 C  
ENDBRANCH   8  13
ENDBRANCH   3   7
BRANCH   6  20
HETATM   20  N   UNL     1     -11.914  13.032  66.867  1.00  0.00    -0.377 N  
HETATM   21  H   UNL     1     -12.829  12.971  66.420  1.00  0.00     0.000 HD 
BRANCH  20  22
HETATM   22  C   UNL     1     -11.065  11.960  66.755  1.00  0.00    -0.308 C  
HETATM   23  O   UNL     1     -10.590  11.321  67.690  1.00  0.00    -0.194 OA 
BRANCH  22  24
HETATM   24  N   UNL     1     -10.750  11.621  65.446  1.00  0.00    -0.283 N  
HETATM   25  C   UNL     1     -10.246  10.303  65.098  1.00  0.00    -0.224 C  
HETATM   26  C   UNL     1      -9.306  10.573  63.938  1.00  0.00    -0.314 C  
HETATM   27  C   UNL     1      -9.937  11.756  63.209  1.00  0.00    -0.435 C  
HETATM   28  C   UNL     1     -10.748  12.502  64.273  1.00  0.00    -0.369 C  
BRANCH  28  29
HETATM   29  C   UNL     1     -12.182  12.760  63.776  1.00  0.00    -0.489 C  
HETATM   30  N   UNL     1     -12.394  13.937  63.113  1.00  0.00    -1.106 N  
HETATM   31  O   UNL     1     -13.120  12.021  64.061  1.00  0.00    -0.660 OA 
HETATM   32  H1  UNL     1     -13.344  14.108  62.785  1.00  0.00     0.000 HD 
HETATM   33  H2  UNL     1     -11.642  14.607  62.957  1.00  0.00     0.000 HD 
ENDBRANCH  28  29
ENDBRANCH  22  24
ENDBRANCH  20  22
ENDBRANCH   6  20
TORSDOF 6
ENDMDL
MODEL        4
REMARK 921   NORMALIZED FREE ENERGY PREDICTED BY IDOCK:   -7.96 KCAL/MOL
REMARK 922        TOTAL FREE ENERGY PREDICTED BY IDOCK:  -11.84 KCAL/MOL
REMARK 923 INTER-LIGAND FREE ENERGY PREDICTED BY IDOCK:  -10.48 KCAL/MOL
REMARK 924 INTRA-LIGAND FREE ENERGY PREDICTED BY IDOCK:   -1.37 KCAL/MOL
REMARK 927      BINDING AFFINITY PREDICTED BY RF-SCORE:    0.00 PKD
ROOT
HETATM    1  C   UNL     1     -11.116  10.791  67.423  1.00  0.00    -0.363 C  
HETATM    2  C   UNL     1     -11.492  11.923  68.312  1.00  0.00    -0.311 A  
HETATM    3  C   UNL     1     -11.889  11.909  69.651  1.00  0.00    -0.337 A  
HETATM    4  S   UNL     1     -12.281  13.534  70.109  1.00  0.00    -0.298 SA 
HETATM    5  N   UNL     1     -11.421  13.181  67.726  1.00  0.00    -0.293 NA 
HETATM    6  C   UNL     1     -11.792  14.093  68.578  1.00  0.00    -0.355 A  
ENDROOT
BRANCH   3   7
HETATM    7  C   UNL     1     -12.046  10.814  70.632  1.00  0.00    -0.467 A  
HETATM    8  C   UNL     1     -11.218   8.821  71.776  1.00  0.00    -0.340 A  
HETATM    9  C   UNL     1     -13.338   9.630  72.257  1.00  0.00    -0.408 A  
HETATM   10  C   UNL     1     -11.036   9.856  70.846  1.00  0.00    -0.418 A  
HETATM   11  N   UNL     1     -12.378   8.707  72.464  1.00  0.00    -0.367 NA 
HETATM   12  C   UNL     1     -13.216  10.689  71.378  1.00  0.00    -0.420 A  
BRANCH   8  13
HETATM   13  C   UNL     1     -10.152   7.744  72.018  1.00  0.00    -0.244 C  
HETATM   14  F   UNL     1     -10.560   5.394  71.721  1.00  0.00    -0.259 F  
HETATM   15  C   UNL     1      -8.724   8.325  71.848  1.00  0.00    -0.230 C  
HETATM   16  C   UNL     1     -10.255   7.267  73.484  1.00  0.00    -0.404 C  
HETATM   17  F   UNL     1      -9.199   6.325  70.310  1.00  0.00    -0.151 F  
HETATM   18  F   UNL     1     -11.331   6.698  70.171  1.00  0.00    -0.314 F  
HETATM   19  C   UNL     1     -10.313   6.548  71.049  1.00  0.00    -0.206 C  
ENDBRANCH   8  13
ENDBRANCH   3   7
BRANCH   6  20
HETATM   20  N   UNL     1     -11.854  15.452  68.446  1.00  0.00    -0.503 N  
HETATM   21  H   UNL     1     -12.686  15.858  68.017  1.00  0.00     0.000 HD 
BRANCH  20  22
HETATM   22  C   UNL     1     -10.856  16.299  68.858  1.00  0.00    -0.317 C  
HETATM   23  O   UNL     1     -10.265  16.241  69.932  1.00  0.00    -0.214 OA 
BRANCH  22  24
HETATM   24  N   UNL     1     -10.535  17.287  67.936  1.00  0.00    -0.367 N  
HETATM   25  C   UNL     1     -10.273  18.656  68.345  1.00  0.00    -0.371 C  
HETATM   26  C   UNL     1     -10.787  19.483  67.182  1.00  0.00    -0.555 C  
HETATM   27  C   UNL     1     -10.525  18.613  65.956  1.00  0.00    -0.456 C  
HETATM   28  C   UNL     1     -10.523  17.172  66.474  1.00  0.00    -0.255 C  
BRANCH  28  29
HETATM   29  C   UNL     1      -9.267  16.426  65.990  1.00  0.00    -0.293 C  
HETATM   30  N   UNL     1      -9.410  15.088  65.747  1.00  0.00    -0.483 N  
HETATM   31  O   UNL     1      -8.162  16.959  65.943  1.00  0.00    -0.478 OA 
HETATM   32  H1  UNL     1      -8.577  14.594  65.427  1.00  0.00     0.000 HD 
HETATM   33  H2  UNL     1     -10.301  14.611  65.878  1.00  0.00     0.000 HD 
ENDBRANCH  28  29
ENDBRANCH  22  24
ENDBRANCH  20  22
ENDBRANCH   6  20
TORSDOF 6
ENDMDL
MODEL        5
REMARK 921   NORMALIZED FREE ENERGY PREDICTED BY IDOCK:   -7.84 KCAL/MOL
REMARK 922        TOTAL FREE ENERGY PREDICTED BY IDOCK:  -11.68 KCAL/MOL
REMARK 923 INTER-LIGAND FREE ENERGY PREDICTED BY IDOCK:  -10.54 KCAL/MOL
REMARK 924 INTRA-LIGAND FREE ENERGY PREDICTED BY IDOCK:   -1.14 KCAL/MOL
REMARK 927      BINDING AFFINITY PREDICTED BY RF-SCORE:    0.00 PKD
ROOT
HETATM    1  C   UNL     1     -12.310  14.888  70.297  1.00  0.00    -0.393 C  
HETATM    2  C   UNL     1     -11.925  13.742  69.432  1.00  0.00    -0.347 A  
HETATM    3  C   UNL     1     -11.369  13.740  68.150  1.00  0.00    -0.284 A  
HETATM    4  S   UNL     1     -11.229  12.093  67.630  1.00  0.00    -0.308 SA 
HETATM    5  N   UNL     1     -12.134  12.486  69.990  1.00  0.00    -0.301 NA 
HETATM    6  C   UNL     1     -11.788  11.558  69.144  1.00  0.00    -0.340 A  
ENDROOT
BRANCH   3   7
HETATM    7  C   UNL     1     -10.958  14.833  67.243  1.00  0.00    -0.318 A  
HETATM    8  C   UNL     1      -9.879  16.983  66.823  1.00  0.00    -0.278 A  
HETATM    9  C   UNL     1     -10.903  15.847  65.079  1.00  0.00    -0.426 A  
HETATM   10  C   UNL     1     -10.247  15.957  67.705  1.00  0.00    -0.260 A  
HETATM   11  N   UNL     1     -10.226  16.927  65.515  1.00  0.00    -0.614 NA 
HETATM   12  C   UNL     1     -11.274  14.788  65.886  1.00  0.00    -0.340 A  
BRANCH   8  13
HETATM   13  C   UNL     1      -9.126  18.235  67.294  1.00  0.00    -0.256 C  
HETATM   14  F   UNL     1      -9.786  20.470  66.707  1.00  0.00    -0.538 F  
HETATM   15  C   UNL     1      -8.356  17.959  68.612  1.00  0.00    -0.276 C  
HETATM   16  C   UNL     1      -8.059  18.598  66.236  1.00  0.00    -0.267 C  
HETATM   17  F   UNL     1     -10.016  19.909  68.791  1.00  0.00    -0.459 F  
HETATM   18  F   UNL     1     -11.383  19.130  67.298  1.00  0.00    -0.467 F  
HETATM   19  C   UNL     1     -10.083  19.428  67.526  1.00  0.00    -0.398 C  
ENDBRANCH   8  13
ENDBRANCH   3   7
BRANCH   6  20
HETATM   20  N   UNL     1     -11.799  10.197  69.275  1.00  0.00    -0.501 N  
HETATM   21  H   UNL     1     -12.642   9.692  69.001  1.00  0.00     0.000 HD 
BRANCH  20  22
HETATM   22  C   UNL     1     -10.736   9.475  69.756  1.00  0.00    -0.239 C  
HETATM   23  O   UNL     1      -9.732   9.943  70.286  1.00  0.00    -0.248 OA 
BRANCH  22  24
HETATM   24  N   UNL     1     -10.866   8.101  69.596  1.00  0.00    -0.204 N  
HETATM   25  C   UNL     1     -11.727   7.310  70.459  1.00  0.00    -0.228 C  
HETATM   26  C   UNL     1     -11.010   5.977  70.555  1.00  0.00    -0.388 C  
HETATM   27  C   UNL     1     -10.334   5.812  69.197  1.00  0.00    -0.316 C  
HETATM   28  C   UNL     1     -10.118   7.236  68.677  1.00  0.00    -0.176 C  
BRANCH  28  29
HETATM   29  C   UNL     1     -10.650   7.372  67.239  1.00  0.00    -0.323 C  
HETATM   30  N   UNL     1     -11.138   6.234  66.659  1.00  0.00    -0.748 N  
HETATM   31  O   UNL     1     -10.533   8.407  66.589  1.00  0.00    -0.294 OA 
HETATM   32  H1  UNL     1     -11.490   6.325  65.706  1.00  0.00     0.000 HD 
HETATM   33  H2  UNL     1     -11.149   5.343  67.154  1.00  0.00     0.000 HD 
ENDBRANCH  28  29
ENDBRANCH  22  24
ENDBRANCH  20  22
ENDBRANCH   6  20
TORSDOF 6
ENDMDL
MODEL        6
REMARK 921   NORMALIZED FREE ENERGY PREDICTED BY IDOCK:   -7.79 KCAL/MOL
REMARK 922        TOTAL FREE ENERGY PREDICTED BY IDOCK:  -11.62 KCAL/MOL
REMARK 923 INTER-LIGAND FREE ENERGY PREDICTED BY IDOCK:  -10.55 KCAL/MOL
REMARK 924 INTRA-LIGAND FREE ENERGY PREDICTED BY IDOCK:   -1.08 KCAL/MOL
REMARK 927      BINDING AFFINITY PREDICTED BY RF-SCORE:    0.00 PKD
ROOT
HETATM    1  C   UNL     1     -12.382  15.121  70.085  1.00  0.00    -0.385 C  
HETATM    2  C   UNL     1     -12.003  13.953  69.246  1.00  0.00    -0.357 A  
HETATM    3  C   UNL     1     -11.521  13.917  67.935  1.00  0.00    -0.318 A  
HETATM    4  S   UNL     1     -11.349  12.255  67.475  1.00  0.00    -0.348 SA 
HETATM    5  N   UNL     1     -12.133  12.715  69.865  1.00  0.00    -0.287 NA 
HETATM    6  C   UNL     1     -11.802  11.765  69.040  1.00  0.00    -0.317 A  
ENDROOT
BRANCH   3   7
HETATM    7  C   UNL     1     -11.203  14.983  66.962  1.00  0.00    -0.328 A  
HETATM    8  C   UNL     1     -10.430  17.236  66.423  1.00  0.00    -0.263 A  
HETATM    9  C   UNL     1     -11.114  15.814  64.722  1.00  0.00    -0.400 A  
HETATM   10  C   UNL     1     -10.713  16.240  67.368  1.00  0.00    -0.287 A  
HETATM   11  N   UNL     1     -10.649  17.020  65.104  1.00  0.00    -0.687 NA 
HETATM   12  C   UNL     1     -11.389  14.779  65.596  1.00  0.00    -0.343 A  
BRANCH   8  13
HETATM   13  C   UNL     1      -9.920  18.626  66.828  1.00  0.00    -0.381 C  
HETATM   14  F   UNL     1      -7.732  19.013  67.741  1.00  0.00    -0.248 F  
HETATM   15  C   UNL     1     -10.656  19.741  66.040  1.00  0.00    -0.573 C  
HETATM   16  C   UNL     1     -10.251  18.858  68.320  1.00  0.00    -0.442 C  
HETATM   17  F   UNL     1      -8.105  19.807  65.756  1.00  0.00    -0.336 F  
HETATM   18  F   UNL     1      -7.830  17.675  66.041  1.00  0.00    -0.287 F  
HETATM   19  C   UNL     1      -8.400  18.775  66.584  1.00  0.00    -0.288 C  
ENDBRANCH   8  13
ENDBRANCH   3   7
BRANCH   6  20
HETATM   20  N   UNL     1     -11.754  10.412  69.226  1.00  0.00    -0.470 N  
HETATM   21  H   UNL     1     -12.401   9.828  68.696  1.00  0.00     0.000 HD 
BRANCH  20  22
HETATM   22  C   UNL     1     -10.881   9.796  70.087  1.00  0.00    -0.291 C  
HETATM   23  O   UNL     1      -9.714  10.124  70.280  1.00  0.00    -0.146 OA 
BRANCH  22  24
HETATM   24  N   UNL     1     -11.424   8.714  70.768  1.00  0.00    -0.271 N  
HETATM   25  C   UNL     1     -10.601   7.608  71.225  1.00  0.00    -0.219 C  
HETATM   26  C   UNL     1     -11.520   6.407  71.113  1.00  0.00    -0.381 C  
HETATM   27  C   UNL     1     -12.909   6.964  71.412  1.00  0.00    -0.365 C  
HETATM   28  C   UNL     1     -12.843   8.444  71.024  1.00  0.00     0.034 C  
BRANCH  28  29
HETATM   29  C   UNL     1     -13.374   9.327  72.167  1.00  0.00    -0.468 C  
HETATM   30  N   UNL     1     -14.350   8.783  72.954  1.00  0.00    -0.700 N  
HETATM   31  O   UNL     1     -13.042  10.501  72.300  1.00  0.00    -0.394 OA 
HETATM   32  H1  UNL     1     -14.702   9.368  73.712  1.00  0.00     0.000 HD 
HETATM   33  H2  UNL     1     -14.708   7.841  72.792  1.00  0.00     0.000 HD 
ENDBRANCH  28  29
ENDBRANCH  22  24
ENDBRANCH  20  22
ENDBRANCH   6  20
TORSDOF 6
ENDMDL
MODEL        7
REMARK 921   NORMALIZED FREE ENERGY PREDICTED BY IDOCK:   -7.78 KCAL/MOL
REMARK 922        TOTAL FREE ENERGY PREDICTED BY IDOCK:  -11.60 KCAL/MOL
REMARK 923 INTER-LIGAND FREE ENERGY PREDICTED BY IDOCK:  -10.47 KCAL/MOL
REMARK 924 INTRA-LIGAND FREE ENERGY PREDICTED BY IDOCK:   -1.13 KCAL/MOL
REMARK 927      BINDING AFFINITY PREDICTED BY RF-SCORE:    0.00 PKD
ROOT
HETATM    1  C   UNL     1     -12.111  14.809  70.071  1.00  0.00    -0.380 C  
HETATM    2  C   UNL     1     -11.828  13.656  69.175  1.00  0.00    -0.348 A  
HETATM    3  C   UNL     1     -11.436  13.645  67.834  1.00  0.00    -0.314 A  
HETATM    4  S   UNL     1     -11.350  11.994  67.315  1.00  0.00    -0.336 SA 
HETATM    5  N   UNL     1     -11.958  12.404  69.766  1.00  0.00    -0.310 NA 
HETATM    6  C   UNL     1     -11.714  11.470  68.892  1.00  0.00    -0.339 A  
ENDROOT
BRANCH   3   7
HETATM    7  C   UNL     1     -11.148  14.731  66.873  1.00  0.00    -0.339 A  
HETATM    8  C   UNL     1     -10.401  16.998  66.356  1.00  0.00    -0.303 A  
HETATM    9  C   UNL     1     -11.118  15.603  64.648  1.00  0.00    -0.373 A  
HETATM   10  C   UNL     1     -10.656  15.983  67.290  1.00  0.00    -0.313 A  
HETATM   11  N   UNL     1     -10.651  16.805  65.040  1.00  0.00    -0.705 NA 
HETATM   12  C   UNL     1     -11.365  14.550  65.509  1.00  0.00    -0.335 A  
BRANCH   8  13
HETATM   13  C   UNL     1      -9.890  18.384  66.775  1.00  0.00    -0.351 C  
HETATM   14  F   UNL     1      -7.735  18.748  67.773  1.00  0.00    -0.234 F  
HETATM   15  C   UNL     1     -10.579  19.503  65.952  1.00  0.00    -0.572 C  
HETATM   16  C   UNL     1     -10.278  18.629  68.251  1.00  0.00    -0.423 C  
HETATM   17  F   UNL     1      -8.018  19.535  65.770  1.00  0.00    -0.314 F  
HETATM   18  F   UNL     1      -7.783  17.401  66.077  1.00  0.00    -0.301 F  
HETATM   19  C   UNL     1      -8.359  18.512  66.591  1.00  0.00    -0.272 C  
ENDBRANCH   8  13
ENDBRANCH   3   7
BRANCH   6  20
HETATM   20  N   UNL     1     -11.700  10.111  69.035  1.00  0.00    -0.501 N  
HETATM   21  H   UNL     1     -12.468   9.574  68.632  1.00  0.00     0.000 HD 
BRANCH  20  22
HETATM   22  C   UNL     1     -10.707   9.429  69.693  1.00  0.00    -0.235 C  
HETATM   23  O   UNL     1      -9.802   9.938  70.350  1.00  0.00    -0.246 OA 
BRANCH  22  24
HETATM   24  N   UNL     1     -10.784   8.049  69.562  1.00  0.00    -0.215 N  
HETATM   25  C   UNL     1     -11.596   7.242  70.457  1.00  0.00    -0.258 C  
HETATM   26  C   UNL     1     -10.826   5.940  70.565  1.00  0.00    -0.366 C  
HETATM   27  C   UNL     1     -10.169   5.775  69.197  1.00  0.00    -0.289 C  
HETATM   28  C   UNL     1     -10.020   7.196  68.646  1.00  0.00    -0.159 C  
BRANCH  28  29
HETATM   29  C   UNL     1     -10.583   7.282  67.216  1.00  0.00    -0.325 C  
HETATM   30  N   UNL     1     -11.050   6.117  66.673  1.00  0.00    -0.759 N  
HETATM   31  O   UNL     1     -10.509   8.304  66.539  1.00  0.00    -0.255 OA 
HETATM   32  H1  UNL     1     -11.423   6.174  65.726  1.00  0.00     0.000 HD 
HETATM   33  H2  UNL     1     -11.026   5.238  67.189  1.00  0.00     0.000 HD 
ENDBRANCH  28  29
ENDBRANCH  22  24
ENDBRANCH  20  22
ENDBRANCH   6  20
TORSDOF 6
ENDMDL
MODEL        8
REMARK 921   NORMALIZED FREE ENERGY PREDICTED BY IDOCK:   -7.78 KCAL/MOL
REMARK 922        TOTAL FREE ENERGY PREDICTED BY IDOCK:  -11.60 KCAL/MOL
REMARK 923 INTER-LIGAND FREE ENERGY PREDICTED BY IDOCK:  -10.61 KCAL/MOL
REMARK 924 INTRA-LIGAND FREE ENERGY PREDICTED BY IDOCK:   -0.99 KCAL/MOL
REMARK 927      BINDING AFFINITY PREDICTED BY RF-SCORE:    0.00 PKD
ROOT
HETATM    1  C   UNL     1     -12.706  13.741  71.578  1.00  0.00    -0.432 C  
HETATM    2  C   UNL     1     -12.339  13.026  70.326  1.00  0.00    -0.241 A  
HETATM    3  C   UNL     1     -12.137  11.661  70.107  1.00  0.00    -0.333 A  
HETATM    4  S   UNL     1     -11.640  11.452  68.460  1.00  0.00    -0.321 SA 
HETATM    5  N   UNL     1     -12.191  13.835  69.206  1.00  0.00    -0.318 NA 
HETATM    6  C   UNL     1     -11.846  13.116  68.177  1.00  0.00    -0.348 A  
ENDROOT
BRANCH   3   7
HETATM    7  C   UNL     1     -12.238  10.484  70.997  1.00  0.00    -0.505 A  
HETATM    8  C   UNL     1     -11.424   8.328  71.805  1.00  0.00    -0.293 A  
HETATM    9  C   UNL     1     -13.362   9.238  72.698  1.00  0.00    -0.282 A  
HETATM   10  C   UNL     1     -11.297   9.437  70.955  1.00  0.00    -0.407 A  
HETATM   11  N   UNL     1     -12.468   8.229  72.661  1.00  0.00    -0.252 NA 
HETATM   12  C   UNL     1     -13.284  10.370  71.910  1.00  0.00    -0.535 A  
BRANCH   8  13
HETATM   13  C   UNL     1     -10.434   7.155  71.771  1.00  0.00    -0.219 C  
HETATM   14  F   UNL     1      -8.093   7.390  72.258  1.00  0.00    -0.096 F  
HETATM   15  C   UNL     1     -11.161   5.807  72.015  1.00  0.00    -0.318 C  
HETATM   16  C   UNL     1      -9.821   7.068  70.355  1.00  0.00    -0.184 C  
HETATM   17  F   UNL     1      -9.271   6.264  73.692  1.00  0.00    -0.127 F  
HETATM   18  F   UNL     1      -9.451   8.423  73.593  1.00  0.00    -0.271 F  
HETATM   19  C   UNL     1      -9.321   7.311  72.833  1.00  0.00    -0.154 C  
ENDBRANCH   8  13
ENDBRANCH   3   7
BRANCH   6  20
HETATM   20  N   UNL     1     -11.620  13.484  66.880  1.00  0.00    -0.344 N  
HETATM   21  H   UNL     1     -12.394  13.882  66.349  1.00  0.00     0.000 HD 
BRANCH  20  22
HETATM   22  C   UNL     1     -10.407  13.345  66.254  1.00  0.00    -0.291 C  
HETATM   23  O   UNL     1      -9.382  13.961  66.533  1.00  0.00    -0.277 OA 
BRANCH  22  24
HETATM   24  N   UNL     1     -10.404  12.414  65.224  1.00  0.00    -0.277 N  
HETATM   25  C   UNL     1     -10.083  11.017  65.458  1.00  0.00    -0.261 C  
HETATM   26  C   UNL     1      -9.395  10.587  64.176  1.00  0.00    -0.309 C  
HETATM   27  C   UNL     1     -10.078  11.409  63.087  1.00  0.00    -0.390 C  
HETATM   28  C   UNL     1     -10.587  12.670  63.791  1.00  0.00    -0.397 C  
BRANCH  28  29
HETATM   29  C   UNL     1     -12.072  12.911  63.461  1.00  0.00    -0.555 C  
HETATM   30  N   UNL     1     -12.442  14.207  63.234  1.00  0.00    -1.098 N  
HETATM   31  O   UNL     1     -12.912  12.018  63.519  1.00  0.00    -0.774 OA 
HETATM   32  H1  UNL     1     -13.426  14.366  63.015  1.00  0.00     0.000 HD 
HETATM   33  H2  UNL     1     -11.771  14.973  63.281  1.00  0.00     0.000 HD 
ENDBRANCH  28  29
ENDBRANCH  22  24
ENDBRANCH  20  22
ENDBRANCH   6  20
TORSDOF 6
ENDMDL
MODEL        9
REMARK 921   NORMALIZED FREE ENERGY PREDICTED BY IDOCK:   -7.77 KCAL/MOL
REMARK 922        TOTAL FREE ENERGY PREDICTED BY IDOCK:  -11.59 KCAL/MOL
REMARK 923 INTER-LIGAND FREE ENERGY PREDICTED BY IDOCK:  -10.64 KCAL/MOL
REMARK 924 INTRA-LIGAND FREE ENERGY PREDICTED BY IDOCK:   -0.95 KCAL/MOL
REMARK 927      BINDING AFFINITY PREDICTED BY RF-SCORE:    0.00 PKD
ROOT
HETATM    1  C   UNL     1     -12.016  15.609  70.693  1.00  0.00    -0.438 C  
HETATM    2  C   UNL     1     -11.855  14.377  69.877  1.00  0.00    -0.323 A  
HETATM    3  C   UNL     1     -11.407  14.232  68.561  1.00  0.00    -0.282 A  
HETATM    4  S   UNL     1     -11.527  12.556  68.137  1.00  0.00    -0.341 SA 
HETATM    5  N   UNL     1     -12.183  13.192  70.526  1.00  0.00    -0.361 NA 
HETATM    6  C   UNL     1     -12.030  12.183  69.718  1.00  0.00    -0.302 A  
ENDROOT
BRANCH   3   7
HETATM    7  C   UNL     1     -10.929  15.209  67.560  1.00  0.00    -0.310 A  
HETATM    8  C   UNL     1      -9.879  17.332  66.962  1.00  0.00    -0.281 A  
HETATM    9  C   UNL     1     -10.654  15.919  65.294  1.00  0.00    -0.419 A  
HETATM   10  C   UNL     1     -10.313  16.419  67.935  1.00  0.00    -0.286 A  
HETATM   11  N   UNL     1     -10.068  17.081  65.646  1.00  0.00    -0.588 NA 
HETATM   12  C   UNL     1     -11.082  14.964  66.197  1.00  0.00    -0.335 A  
BRANCH   8  13
HETATM   13  C   UNL     1      -9.227  18.672  67.332  1.00  0.00    -0.292 C  
HETATM   14  F   UNL     1     -10.008  20.789  66.508  1.00  0.00    -0.505 F  
HETATM   15  C   UNL     1      -8.494  18.576  68.696  1.00  0.00    -0.326 C  
HETATM   16  C   UNL     1      -8.146  19.003  66.279  1.00  0.00    -0.298 C  
HETATM   17  F   UNL     1     -10.282  20.417  68.628  1.00  0.00    -0.490 F  
HETATM   18  F   UNL     1     -11.536  19.406  67.175  1.00  0.00    -0.438 F  
HETATM   19  C   UNL     1     -10.268  19.813  67.415  1.00  0.00    -0.440 C  
ENDBRANCH   8  13
ENDBRANCH   3   7
BRANCH   6  20
HETATM   20  N   UNL     1     -12.210  10.845  69.935  1.00  0.00    -0.342 N  
HETATM   21  H   UNL     1     -12.190  10.219  69.130  1.00  0.00     0.000 HD 
BRANCH  20  22
HETATM   22  C   UNL     1     -12.415  10.300  71.177  1.00  0.00    -0.391 C  
HETATM   23  O   UNL     1     -13.260  10.665  71.989  1.00  0.00    -0.473 OA 
BRANCH  22  24
HETATM   24  N   UNL     1     -11.558   9.251  71.484  1.00  0.00    -0.356 N  
HETATM   25  C   UNL     1     -12.060   7.949  71.890  1.00  0.00    -0.312 C  
HETATM   26  C   UNL     1     -11.011   7.448  72.864  1.00  0.00    -0.408 C  
HETATM   27  C   UNL     1      -9.700   8.027  72.338  1.00  0.00    -0.305 C  
HETATM   28  C   UNL     1     -10.095   9.292  71.572  1.00  0.00    -0.236 C  
BRANCH  28  29
HETATM   29  C   UNL     1      -9.459   9.294  70.170  1.00  0.00    -0.226 C  
HETATM   30  N   UNL     1      -8.399  10.137  69.983  1.00  0.00    -0.351 N  
HETATM   31  O   UNL     1      -9.943   8.676  69.227  1.00  0.00    -0.184 OA 
HETATM   32  H1  UNL     1      -7.978  10.139  69.054  1.00  0.00     0.000 HD 
HETATM   33  H2  UNL     1      -8.048  10.732  70.733  1.00  0.00     0.000 HD 
ENDBRANCH  28  29
ENDBRANCH  22  24
ENDBRANCH  20  22
ENDBRANCH   6  20
TORSDOF 6
ENDMDL
MODEL       10
REMARK 921   NORMALIZED FREE ENERGY PREDICTED BY IDOCK:   -7.75 KCAL/MOL
REMARK 922        TOTAL FREE ENERGY PREDICTED BY IDOCK:  -11.56 KCAL/MOL
REMARK 923 INTER-LIGAND FREE ENERGY PREDICTED BY IDOCK:  -10.74 KCAL/MOL
REMARK 924 INTRA-LIGAND FREE ENERGY PREDICTED BY IDOCK:   -0.82 KCAL/MOL
REMARK 927      BINDING AFFINITY PREDICTED BY RF-SCORE:    0.00 PKD
ROOT
HETATM    1  C   UNL     1     -12.344  15.498  70.529  1.00  0.00    -0.461 C  
HETATM    2  C   UNL     1     -12.036  14.277  69.738  1.00  0.00    -0.339 A  
HETATM    3  C   UNL     1     -11.514  14.159  68.448  1.00  0.00    -0.302 A  
HETATM    4  S   UNL     1     -11.465  12.475  68.042  1.00  0.00    -0.338 SA 
HETATM    5  N   UNL     1     -12.290  13.074  70.388  1.00  0.00    -0.315 NA 
HETATM    6  C   UNL     1     -12.010  12.074  69.603  1.00  0.00    -0.293 A  
ENDROOT
BRANCH   3   7
HETATM    7  C   UNL     1     -11.075  15.164  67.456  1.00  0.00    -0.319 A  
HETATM    8  C   UNL     1     -10.035  17.297  66.878  1.00  0.00    -0.294 A  
HETATM    9  C   UNL     1     -10.902  15.945  65.204  1.00  0.00    -0.421 A  
HETATM   10  C   UNL     1     -10.432  16.357  67.840  1.00  0.00    -0.307 A  
HETATM   11  N   UNL     1     -10.290  17.091  65.565  1.00  0.00    -0.623 NA 
HETATM   12  C   UNL     1     -11.295  14.964  66.095  1.00  0.00    -0.307 A  
BRANCH   8  13
HETATM   13  C   UNL     1      -9.356  18.620  67.259  1.00  0.00    -0.299 C  
HETATM   14  F   UNL     1     -10.092  20.761  66.455  1.00  0.00    -0.493 F  
HETATM   15  C   UNL     1      -8.622  18.496  68.620  1.00  0.00    -0.323 C  
HETATM   16  C   UNL     1      -8.269  18.938  66.208  1.00  0.00    -0.283 C  
HETATM   17  F   UNL     1     -10.371  20.375  68.573  1.00  0.00    -0.519 F  
HETATM   18  F   UNL     1     -11.648  19.404  67.113  1.00  0.00    -0.302 F  
HETATM   19  C   UNL     1     -10.372  19.782  67.354  1.00  0.00    -0.447 C  
ENDBRANCH   8  13
ENDBRANCH   3   7
BRANCH   6  20
HETATM   20  N   UNL     1     -12.082  10.728  69.829  1.00  0.00    -0.399 N  
HETATM   21  H   UNL     1     -12.011  10.099  69.029  1.00  0.00     0.000 HD 
BRANCH  20  22
HETATM   22  C   UNL     1     -12.245  10.178  71.075  1.00  0.00    -0.374 C  
HETATM   23  O   UNL     1     -12.930  10.644  71.981  1.00  0.00    -0.461 OA 
BRANCH  22  24
HETATM   24  N   UNL     1     -11.546   8.993  71.268  1.00  0.00    -0.294 N  
HETATM   25  C   UNL     1     -10.260   8.965  71.944  1.00  0.00    -0.333 C  
HETATM   26  C   UNL     1      -9.517   7.837  71.254  1.00  0.00    -0.173 C  
HETATM   27  C   UNL     1     -10.607   6.835  70.886  1.00  0.00    -0.252 C  
HETATM   28  C   UNL     1     -11.889   7.663  70.753  1.00  0.00    -0.205 C  
BRANCH  28  29
HETATM   29  C   UNL     1     -13.027   7.031  71.575  1.00  0.00    -0.359 C  
HETATM   30  N   UNL     1     -12.660   6.116  72.522  1.00  0.00    -0.514 N  
HETATM   31  O   UNL     1     -14.211   7.231  71.321  1.00  0.00    -0.394 OA 
HETATM   32  H1  UNL     1     -13.414   5.698  73.066  1.00  0.00     0.000 HD 
HETATM   33  H2  UNL     1     -11.683   5.866  72.676  1.00  0.00     0.000 HD 
ENDBRANCH  28  29
ENDBRANCH  22  24
ENDBRANCH  20  22
ENDBRANCH   6  20
TORSDOF 6
ENDMDL
MODEL       11
REMARK 921   NORMALIZED FREE ENERGY PREDICTED BY IDOCK:   -7.73 KCAL/MOL
REMARK 922        TOTAL FREE ENERGY PREDICTED BY IDOCK:  -11.53 KCAL/MOL
REMARK 923 INTER-LIGAND FREE ENERGY PREDICTED BY IDOCK:  -10.43 KCAL/MOL
REMARK 924 INTRA-LIGAND FREE ENERGY PREDICTED BY IDOCK:   -1.10 KCAL/MOL
REMARK 927      BINDING AFFINITY PREDICTED BY RF-SCORE:    0.00 PKD
ROOT
HETATM    1  C   UNL     1     -10.357  11.308  64.720  1.00  0.00    -0.366 C  
HETATM    2  C   UNL     1     -10.850  11.732  66.058  1.00  0.00    -0.296 A  
HETATM    3  C   UNL     1     -11.152  13.012  66.531  1.00  0.00    -0.288 A  
HETATM    4  S   UNL     1     -11.594  12.873  68.202  1.00  0.00    -0.355 SA 
HETATM    5  N   UNL     1     -11.054  10.700  66.966  1.00  0.00    -0.240 NA 
HETATM    6  C   UNL     1     -11.459  11.180  68.106  1.00  0.00    -0.303 A  
ENDROOT
BRANCH   3   7
HETATM    7  C   UNL     1     -11.118  14.343  65.891  1.00  0.00    -0.319 A  
HETATM    8  C   UNL     1     -10.501  16.707  65.883  1.00  0.00    -0.313 A  
HETATM    9  C   UNL     1     -11.678  15.816  64.094  1.00  0.00    -0.067 A  
HETATM   10  C   UNL     1     -10.509  15.452  66.511  1.00  0.00    -0.295 A  
HETATM   11  N   UNL     1     -11.102  16.883  64.683  1.00  0.00    -0.990 NA 
HETATM   12  C   UNL     1     -11.700  14.547  64.642  1.00  0.00    -0.438 A  
BRANCH   8  13
HETATM   13  C   UNL     1      -9.871  17.944  66.538  1.00  0.00    -0.343 C  
HETATM   14  F   UNL     1      -7.735  17.910  67.639  1.00  0.00    -0.202 F  
HETATM   15  C   UNL     1     -10.408  19.249  65.894  1.00  0.00    -0.499 C  
HETATM   16  C   UNL     1     -10.295  17.986  68.024  1.00  0.00    -0.397 C  
HETATM   17  F   UNL     1      -7.851  19.037  65.787  1.00  0.00    -0.285 F  
HETATM   18  F   UNL     1      -7.845  16.868  65.742  1.00  0.00    -0.317 F  
HETATM   19  C   UNL     1      -8.329  17.936  66.418  1.00  0.00    -0.242 C  
ENDBRANCH   8  13
ENDBRANCH   3   7
BRANCH   6  20
HETATM   20  N   UNL     1     -11.802  10.537  69.262  1.00  0.00    -0.493 N  
HETATM   21  H   UNL     1     -12.769  10.600  69.581  1.00  0.00     0.000 HD 
BRANCH  20  22
HETATM   22  C   UNL     1     -10.916   9.811  70.017  1.00  0.00    -0.277 C  
HETATM   23  O   UNL     1      -9.701   9.983  70.058  1.00  0.00    -0.235 OA 
BRANCH  22  24
HETATM   24  N   UNL     1     -11.505   8.808  70.775  1.00  0.00    -0.277 N  
HETATM   25  C   UNL     1     -10.729   7.709  71.323  1.00  0.00    -0.228 C  
HETATM   26  C   UNL     1     -11.695   6.540  71.299  1.00  0.00    -0.386 C  
HETATM   27  C   UNL     1     -13.061   7.174  71.544  1.00  0.00    -0.427 C  
HETATM   28  C   UNL     1     -12.935   8.615  71.041  1.00  0.00     0.051 C  
BRANCH  28  29
HETATM   29  C   UNL     1     -13.434   9.605  72.109  1.00  0.00    -0.429 C  
HETATM   30  N   UNL     1     -14.219   9.086  73.101  1.00  0.00    -0.689 N  
HETATM   31  O   UNL     1     -13.253  10.816  72.020  1.00  0.00    -0.484 OA 
HETATM   32  H1  UNL     1     -14.550   9.743  73.808  1.00  0.00     0.000 HD 
HETATM   33  H2  UNL     1     -14.461   8.096  73.131  1.00  0.00     0.000 HD 
ENDBRANCH  28  29
ENDBRANCH  22  24
ENDBRANCH  20  22
ENDBRANCH   6  20
TORSDOF 6
ENDMDL
MODEL       12
REMARK 921   NORMALIZED FREE ENERGY PREDICTED BY IDOCK:   -7.61 KCAL/MOL
REMARK 922        TOTAL FREE ENERGY PREDICTED BY IDOCK:  -11.37 KCAL/MOL
REMARK 923 INTER-LIGAND FREE ENERGY PREDICTED BY IDOCK:  -10.33 KCAL/MOL
REMARK 924 INTRA-LIGAND FREE ENERGY PREDICTED BY IDOCK:   -1.05 KCAL/MOL
REMARK 927      BINDING AFFINITY PREDICTED BY RF-SCORE:    0.00 PKD
ROOT
HETATM    1  C   UNL     1     -11.097  10.649  67.659  1.00  0.00    -0.385 C  
HETATM    2  C   UNL     1     -11.532  11.764  68.541  1.00  0.00    -0.296 A  
HETATM    3  C   UNL     1     -11.935  11.735  69.879  1.00  0.00    -0.332 A  
HETATM    4  S   UNL     1     -12.409  13.340  70.329  1.00  0.00    -0.212 SA 
HETATM    5  N   UNL     1     -11.521  13.022  67.952  1.00  0.00    -0.290 NA 
HETATM    6  C   UNL     1     -11.940  13.917  68.799  1.00  0.00    -0.358 A  
ENDROOT
BRANCH   3   7
HETATM    7  C   UNL     1     -12.043  10.636  70.862  1.00  0.00    -0.489 A  
HETATM    8  C   UNL     1     -11.151   8.650  71.969  1.00  0.00    -0.367 A  
HETATM    9  C   UNL     1     -13.259   9.436  72.534  1.00  0.00    -0.325 A  
HETATM   10  C   UNL     1     -11.016   9.688  71.035  1.00  0.00    -0.431 A  
HETATM   11  N   UNL     1     -12.282   8.522  72.701  1.00  0.00    -0.326 NA 
HETATM   12  C   UNL     1     -13.182  10.498  71.653  1.00  0.00    -0.493 A  
BRANCH   8  13
HETATM   13  C   UNL     1     -10.066   7.583  72.167  1.00  0.00    -0.235 C  
HETATM   14  F   UNL     1     -10.509   5.222  72.102  1.00  0.00    -0.237 F  
HETATM   15  C   UNL     1      -8.667   8.134  71.787  1.00  0.00    -0.199 C  
HETATM   16  C   UNL     1      -9.997   7.220  73.667  1.00  0.00    -0.377 C  
HETATM   17  F   UNL     1      -9.322   6.028  70.473  1.00  0.00    -0.153 F  
HETATM   18  F   UNL     1     -11.455   6.411  70.557  1.00  0.00    -0.347 F  
HETATM   19  C   UNL     1     -10.341   6.318  71.319  1.00  0.00    -0.212 C  
ENDBRANCH   8  13
ENDBRANCH   3   7
BRANCH   6  20
HETATM   20  N   UNL     1     -12.068  15.271  68.661  1.00  0.00    -0.585 N  
HETATM   21  H   UNL     1     -12.930  15.636  68.255  1.00  0.00     0.000 HD 
BRANCH  20  22
HETATM   22  C   UNL     1     -11.100  16.165  69.041  1.00  0.00    -0.336 C  
HETATM   23  O   UNL     1     -10.851  16.506  70.194  1.00  0.00    -0.321 OA 
BRANCH  22  24
HETATM   24  N   UNL     1     -10.374  16.698  67.983  1.00  0.00    -0.290 N  
HETATM   25  C   UNL     1     -10.382  16.085  66.666  1.00  0.00    -0.298 C  
HETATM   26  C   UNL     1      -8.990  16.363  66.132  1.00  0.00    -0.367 C  
HETATM   27  C   UNL     1      -8.619  17.716  66.733  1.00  0.00    -0.276 C  
HETATM   28  C   UNL     1      -9.433  17.823  68.025  1.00  0.00    -0.281 C  
BRANCH  28  29
HETATM   29  C   UNL     1     -10.184  19.165  68.081  1.00  0.00    -0.403 C  
HETATM   30  N   UNL     1     -10.207  19.800  69.291  1.00  0.00    -0.621 N  
HETATM   31  O   UNL     1     -10.838  19.594  67.134  1.00  0.00    -0.484 OA 
HETATM   32  H1  UNL     1     -10.704  20.690  69.328  1.00  0.00     0.000 HD 
HETATM   33  H2  UNL     1      -9.751  19.405  70.113  1.00  0.00     0.000 HD 
ENDBRANCH  28  29
ENDBRANCH  22  24
ENDBRANCH  20  22
ENDBRANCH   6  20
TORSDOF 6
ENDMDL
MODEL       13
REMARK 921   NORMALIZED FREE ENERGY PREDICTED BY IDOCK:   -7.61 KCAL/MOL
REMARK 922        TOTAL FREE ENERGY PREDICTED BY IDOCK:  -11.37 KCAL/MOL
REMARK 923 INTER-LIGAND FREE ENERGY PREDICTED BY IDOCK:  -10.19 KCAL/MOL
REMARK 924 INTRA-LIGAND FREE ENERGY PREDICTED BY IDOCK:   -1.17 KCAL/MOL
REMARK 927      BINDING AFFINITY PREDICTED BY RF-SCORE:    0.00 PKD
ROOT
HETATM    1  C   UNL     1     -13.512  13.331  72.424  1.00  0.00    -0.670 C  
HETATM    2  C   UNL     1     -13.002  12.255  71.534  1.00  0.00    -0.289 A  
HETATM    3  C   UNL     1     -12.363  12.352  70.295  1.00  0.00    -0.188 A  
HETATM    4  S   UNL     1     -12.089  10.745  69.707  1.00  0.00    -0.285 SA 
HETATM    5  N   UNL     1     -13.171  10.961  72.014  1.00  0.00    -0.458 NA 
HETATM    6  C   UNL     1     -12.715  10.100  71.152  1.00  0.00    -0.396 A  
ENDROOT
BRANCH   3   7
HETATM    7  C   UNL     1     -11.959  13.512  69.472  1.00  0.00    -0.390 A  
HETATM    8  C   UNL     1     -11.369  14.522  67.328  1.00  0.00    -0.350 A  
HETATM    9  C   UNL     1     -11.339  15.810  69.257  1.00  0.00    -0.350 A  
HETATM   10  C   UNL     1     -11.762  13.406  68.082  1.00  0.00    -0.397 A  
HETATM   11  N   UNL     1     -11.144  15.715  67.926  1.00  0.00    -0.322 NA 
HETATM   12  C   UNL     1     -11.751  14.760  70.056  1.00  0.00    -0.344 A  
BRANCH   8  13
HETATM   13  C   UNL     1     -11.119  14.439  65.816  1.00  0.00    -0.316 C  
HETATM   14  F   UNL     1     -12.418  13.061  64.337  1.00  0.00    -0.423 F  
HETATM   15  C   UNL     1     -10.432  15.728  65.294  1.00  0.00    -0.427 C  
HETATM   16  C   UNL     1     -10.135  13.280  65.540  1.00  0.00    -0.274 C  
HETATM   17  F   UNL     1     -12.650  15.207  64.111  1.00  0.00    -0.512 F  
HETATM   18  F   UNL     1     -13.534  14.191  65.811  1.00  0.00    -0.455 F  
HETATM   19  C   UNL     1     -12.433  14.231  65.026  1.00  0.00    -0.400 C  
ENDBRANCH   8  13
ENDBRANCH   3   7
BRANCH   6  20
HETATM   20  N   UNL     1     -12.652   8.736  71.215  1.00  0.00    -0.426 N  
HETATM   21  H   UNL     1     -13.418   8.198  70.811  1.00  0.00     0.000 HD 
BRANCH  20  22
HETATM   22  C   UNL     1     -11.613   8.053  71.794  1.00  0.00    -0.285 C  
HETATM   23  O   UNL     1     -11.366   8.007  72.996  1.00  0.00    -0.386 OA 
BRANCH  22  24
HETATM   24  N   UNL     1     -10.805   7.377  70.889  1.00  0.00    -0.236 N  
HETATM   25  C   UNL     1     -11.354   6.431  69.933  1.00  0.00    -0.434 C  
HETATM   26  C   UNL     1     -10.256   5.395  69.783  1.00  0.00    -0.348 C  
HETATM   27  C   UNL     1      -8.963   6.187  69.955  1.00  0.00    -0.148 C  
HETATM   28  C   UNL     1      -9.339   7.394  70.817  1.00  0.00    -0.159 C  
BRANCH  28  29
HETATM   29  C   UNL     1      -8.836   8.698  70.171  1.00  0.00    -0.141 C  
HETATM   30  N   UNL     1      -8.725   8.699  68.809  1.00  0.00    -0.134 N  
HETATM   31  O   UNL     1      -8.432   9.648  70.835  1.00  0.00    -0.253 OA 
HETATM   32  H1  UNL     1      -8.392   9.563  68.381  1.00  0.00     0.000 HD 
HETATM   33  H2  UNL     1      -8.964   7.880  68.250  1.00  0.00     0.000 HD 
ENDBRANCH  28  29
ENDBRANCH  22  24
ENDBRANCH  20  22
ENDBRANCH   6  20
TORSDOF 6
ENDMDL
MODEL       14
REMARK 921   NORMALIZED FREE ENERGY PREDICTED BY IDOCK:   -7.57 KCAL/MOL
REMARK 922        TOTAL FREE ENERGY PREDICTED BY IDOCK:  -11.32 KCAL/MOL
REMARK 923 INTER-LIGAND FREE ENERGY PREDICTED BY IDOCK:  -10.00 KCAL/MOL
REMARK 924 INTRA-LIGAND FREE ENERGY PREDICTED BY IDOCK:   -1.32 KCAL/MOL
REMARK 927      BINDING AFFINITY PREDICTED BY RF-SCORE:    0.00 PKD
ROOT
HETATM    1  C   UNL     1     -11.608  11.924  65.692  1.00  0.00    -0.275 C  
HETATM    2  C   UNL     1     -11.529  12.464  67.075  1.00  0.00    -0.358 A  
HETATM    3  C   UNL     1     -11.239  13.760  67.510  1.00  0.00    -0.294 A  
HETATM    4  S   UNL     1     -11.209  13.748  69.242  1.00  0.00    -0.214 SA 
HETATM    5  N   UNL     1     -11.802  11.547  68.083  1.00  0.00    -0.573 NA 
HETATM    6  C   UNL     1     -11.682  12.114  69.249  1.00  0.00    -0.328 A  
ENDROOT
BRANCH   3   7
HETATM    7  C   UNL     1     -10.942  15.011  66.780  1.00  0.00    -0.323 A  
HETATM    8  C   UNL     1      -9.977  17.252  66.665  1.00  0.00    -0.294 A  
HETATM    9  C   UNL     1     -11.101  16.384  64.830  1.00  0.00    -0.235 A  
HETATM   10  C   UNL     1     -10.235  16.072  67.378  1.00  0.00    -0.273 A  
HETATM   11  N   UNL     1     -10.428  17.405  65.397  1.00  0.00    -0.651 NA 
HETATM   12  C   UNL     1     -11.366  15.185  65.464  1.00  0.00    -0.274 A  
BRANCH   8  13
HETATM   13  C   UNL     1      -9.233  18.439  67.291  1.00  0.00    -0.271 C  
HETATM   14  F   UNL     1      -9.952  20.720  67.052  1.00  0.00    -0.598 F  
HETATM   15  C   UNL     1      -8.418  17.994  68.532  1.00  0.00    -0.314 C  
HETATM   16  C   UNL     1      -8.207  18.975  66.267  1.00  0.00    -0.294 C  
HETATM   17  F   UNL     1     -10.107  19.860  69.039  1.00  0.00    -0.496 F  
HETATM   18  F   UNL     1     -11.505  19.273  67.488  1.00  0.00    -0.401 F  
HETATM   19  C   UNL     1     -10.205  19.564  67.720  1.00  0.00    -0.429 C  
ENDBRANCH   8  13
ENDBRANCH   3   7
BRANCH   6  20
HETATM   20  N   UNL     1     -11.879  11.606  70.502  1.00  0.00    -0.488 N  
HETATM   21  H   UNL     1     -11.619  12.181  71.303  1.00  0.00     0.000 HD 
BRANCH  20  22
HETATM   22  C   UNL     1     -12.408  10.363  70.740  1.00  0.00    -0.367 C  
HETATM   23  O   UNL     1     -13.600  10.070  70.697  1.00  0.00    -0.194 OA 
BRANCH  22  24
HETATM   24  N   UNL     1     -11.463   9.395  71.055  1.00  0.00    -0.305 N  
HETATM   25  C   UNL     1     -11.507   8.664  72.309  1.00  0.00    -0.353 C  
HETATM   26  C   UNL     1     -10.045   8.415  72.631  1.00  0.00    -0.322 C  
HETATM   27  C   UNL     1      -9.381   8.254  71.266  1.00  0.00    -0.218 C  
HETATM   28  C   UNL     1     -10.260   9.043  70.292  1.00  0.00    -0.201 C  
BRANCH  28  29
HETATM   29  C   UNL     1     -10.618   8.181  69.068  1.00  0.00    -0.151 C  
HETATM   30  N   UNL     1     -10.496   8.780  67.845  1.00  0.00    -0.318 N  
HETATM   31  O   UNL     1     -11.107   7.060  69.173  1.00  0.00    -0.188 OA 
HETATM   32  H1  UNL     1     -10.733   8.208  67.034  1.00  0.00     0.000 HD 
HETATM   33  H2  UNL     1     -10.185   9.746  67.749  1.00  0.00     0.000 HD 
ENDBRANCH  28  29
ENDBRANCH  22  24
ENDBRANCH  20  22
ENDBRANCH   6  20
TORSDOF 6
ENDMDL
MODEL       15
REMARK 921   NORMALIZED FREE ENERGY PREDICTED BY IDOCK:   -7.45 KCAL/MOL
REMARK 922        TOTAL FREE ENERGY PREDICTED BY IDOCK:  -11.16 KCAL/MOL
REMARK 923 INTER-LIGAND FREE ENERGY PREDICTED BY IDOCK:  -10.68 KCAL/MOL
REMARK 924 INTRA-LIGAND FREE ENERGY PREDICTED BY IDOCK:   -0.48 KCAL/MOL
REMARK 927      BINDING AFFINITY PREDICTED BY RF-SCORE:    0.00 PKD
ROOT
HETATM    1  C   UNL     1     -12.225  12.654  65.207  1.00  0.00    -0.532 C  
HETATM    2  C   UNL     1     -11.586  12.839  66.537  1.00  0.00    -0.376 A  
HETATM    3  C   UNL     1     -10.936  13.957  67.065  1.00  0.00    -0.295 A  
HETATM    4  S   UNL     1     -10.323  13.531  68.629  1.00  0.00    -0.172 SA 
HETATM    5  N   UNL     1     -11.661  11.740  67.386  1.00  0.00    -0.588 NA 
HETATM    6  C   UNL     1     -11.053  11.999  68.507  1.00  0.00    -0.244 A  
ENDROOT
BRANCH   3   7
HETATM    7  C   UNL     1     -10.685  15.310  66.524  1.00  0.00    -0.311 A  
HETATM    8  C   UNL     1      -9.811  17.580  66.739  1.00  0.00    -0.306 A  
HETATM    9  C   UNL     1     -10.880  16.937  64.784  1.00  0.00     0.129 A  
HETATM   10  C   UNL     1     -10.027  16.302  67.276  1.00  0.00    -0.250 A  
HETATM   11  N   UNL     1     -10.256  17.893  65.499  1.00  0.00    -0.543 NA 
HETATM   12  C   UNL     1     -11.102  15.650  65.239  1.00  0.00    -0.310 A  
BRANCH   8  13
HETATM   13  C   UNL     1      -9.122  18.696  67.537  1.00  0.00    -0.293 C  
HETATM   14  F   UNL     1      -9.759  21.008  67.392  1.00  0.00    -0.607 F  
HETATM   15  C   UNL     1      -8.470  18.136  68.828  1.00  0.00    -0.224 C  
HETATM   16  C   UNL     1      -7.970  19.274  66.685  1.00  0.00    -0.288 C  
HETATM   17  F   UNL     1     -10.168  20.009  69.275  1.00  0.00    -0.508 F  
HETATM   18  F   UNL     1     -11.383  19.580  67.531  1.00  0.00    -0.507 F  
HETATM   19  C   UNL     1     -10.114  19.815  67.935  1.00  0.00    -0.430 C  
ENDBRANCH   8  13
ENDBRANCH   3   7
BRANCH   6  20
HETATM   20  N   UNL     1     -10.902  11.229  69.627  1.00  0.00    -0.445 N  
HETATM   21  H   UNL     1     -10.871  11.696  70.534  1.00  0.00     0.000 HD 
BRANCH  20  22
HETATM   22  C   UNL     1     -10.788   9.862  69.596  1.00  0.00    -0.253 C  
HETATM   23  O   UNL     1     -10.692   9.174  68.584  1.00  0.00    -0.197 OA 
BRANCH  22  24
HETATM   24  N   UNL     1     -10.791   9.265  70.850  1.00  0.00    -0.269 N  
HETATM   25  C   UNL     1      -9.576   9.130  71.635  1.00  0.00    -0.156 C  
HETATM   26  C   UNL     1      -9.779   7.830  72.389  1.00  0.00    -0.249 C  
HETATM   27  C   UNL     1     -11.283   7.768  72.638  1.00  0.00    -0.438 C  
HETATM   28  C   UNL     1     -11.914   8.594  71.514  1.00  0.00    -0.306 C  
BRANCH  28  29
HETATM   29  C   UNL     1     -12.906   9.621  72.090  1.00  0.00    -0.375 C  
HETATM   30  N   UNL     1     -13.889   9.129  72.902  1.00  0.00    -0.901 N  
HETATM   31  O   UNL     1     -12.905  10.800  71.748  1.00  0.00    -0.435 OA 
HETATM   32  H1  UNL     1     -14.546   9.810  73.283  1.00  0.00     0.000 HD 
HETATM   33  H2  UNL     1     -13.962   8.135  73.115  1.00  0.00     0.000 HD 
ENDBRANCH  28  29
ENDBRANCH  22  24
ENDBRANCH  20  22
ENDBRANCH   6  20
TORSDOF 6
ENDMDL
MODEL       16
REMARK 921   NORMALIZED FREE ENERGY PREDICTED BY IDOCK:   -7.33 KCAL/MOL
REMARK 922        TOTAL FREE ENERGY PREDICTED BY IDOCK:  -11.00 KCAL/MOL
REMARK 923 INTER-LIGAND FREE ENERGY PREDICTED BY IDOCK:  -10.17 KCAL/MOL
REMARK 924 INTRA-LIGAND FREE ENERGY PREDICTED BY IDOCK:   -0.83 KCAL/MOL
REMARK 927      BINDING AFFINITY PREDICTED BY RF-SCORE:    0.00 PKD
ROOT
HETATM    1  C   UNL     1     -10.375  11.021  67.047  1.00  0.00    -0.269 C  
HETATM    2  C   UNL     1     -10.893  12.258  67.691  1.00  0.00    -0.225 A  
HETATM    3  C   UNL     1     -11.514  12.422  68.932  1.00  0.00    -0.307 A  
HETATM    4  S   UNL     1     -11.972  14.087  69.084  1.00  0.00    -0.348 SA 
HETATM    5  N   UNL     1     -10.718  13.424  66.956  1.00  0.00    -0.267 NA 
HETATM    6  C   UNL     1     -11.226  14.437  67.596  1.00  0.00    -0.313 A  
ENDROOT
BRANCH   3   7
HETATM    7  C   UNL     1     -11.841  11.471  70.015  1.00  0.00    -0.435 A  
HETATM    8  C   UNL     1     -11.537   9.335  71.161  1.00  0.00    -0.327 A  
HETATM    9  C   UNL     1     -13.115  10.847  71.939  1.00  0.00    -0.432 A  
HETATM   10  C   UNL     1     -11.199  10.222  70.129  1.00  0.00    -0.387 A  
HETATM   11  N   UNL     1     -12.508   9.649  72.051  1.00  0.00    -0.358 NA 
HETATM   12  C   UNL     1     -12.813  11.779  70.964  1.00  0.00    -0.309 A  
BRANCH   8  13
HETATM   13  C   UNL     1     -10.878   7.956  71.302  1.00  0.00    -0.263 C  
HETATM   14  F   UNL     1     -12.036   6.020  72.131  1.00  0.00    -0.351 F  
HETATM   15  C   UNL     1      -9.689   7.804  70.319  1.00  0.00    -0.179 C  
HETATM   16  C   UNL     1     -10.285   7.834  72.724  1.00  0.00    -0.360 C  
HETATM   17  F   UNL     1     -11.484   5.992  70.032  1.00  0.00    -0.432 F  
HETATM   18  F   UNL     1     -13.121   7.242  70.709  1.00  0.00    -0.299 F  
HETATM   19  C   UNL     1     -11.882   6.809  71.036  1.00  0.00    -0.376 C  
ENDBRANCH   8  13
ENDBRANCH   3   7
BRANCH   6  20
HETATM   20  N   UNL     1     -11.259  15.763  67.266  1.00  0.00    -0.209 N  
HETATM   21  H   UNL     1     -11.959  16.356  67.713  1.00  0.00     0.000 HD 
BRANCH  20  22
HETATM   22  C   UNL     1     -10.400  16.340  66.364  1.00  0.00    -0.314 C  
HETATM   23  O   UNL     1     -10.411  16.163  65.149  1.00  0.00    -0.560 OA 
BRANCH  22  24
HETATM   24  N   UNL     1      -9.459  17.185  66.938  1.00  0.00    -0.250 N  
HETATM   25  C   UNL     1      -8.108  16.737  67.230  1.00  0.00    -0.177 C  
HETATM   26  C   UNL     1      -7.735  17.512  68.479  1.00  0.00    -0.272 C  
HETATM   27  C   UNL     1      -8.462  18.846  68.327  1.00  0.00    -0.365 C  
HETATM   28  C   UNL     1      -9.671  18.548  67.437  1.00  0.00    -0.303 C  
BRANCH  28  29
HETATM   29  C   UNL     1      -9.747  19.554  66.274  1.00  0.00    -0.402 C  
HETATM   30  N   UNL     1      -8.647  20.342  66.078  1.00  0.00    -0.575 N  
HETATM   31  O   UNL     1     -10.775  19.739  65.630  1.00  0.00    -0.505 OA 
HETATM   32  H1  UNL     1      -8.697  21.008  65.307  1.00  0.00     0.000 HD 
HETATM   33  H2  UNL     1      -7.821  20.267  66.671  1.00  0.00     0.000 HD 
ENDBRANCH  28  29
ENDBRANCH  22  24
ENDBRANCH  20  22
ENDBRANCH   6  20
TORSDOF 6
ENDMDL
MODEL       17
REMARK 921   NORMALIZED FREE ENERGY PREDICTED BY IDOCK:   -7.31 KCAL/MOL
REMARK 922        TOTAL FREE ENERGY PREDICTED BY IDOCK:  -10.97 KCAL/MOL
REMARK 923 INTER-LIGAND FREE ENERGY PREDICTED BY IDOCK:   -9.81 KCAL/MOL
REMARK 924 INTRA-LIGAND FREE ENERGY PREDICTED BY IDOCK:   -1.16 KCAL/MOL
REMARK 927      BINDING AFFINITY PREDICTED BY RF-SCORE:    0.00 PKD
ROOT
HETATM    1  C   UNL     1     -11.743  11.943  66.996  1.00  0.00    -0.304 C  
HETATM    2  C   UNL     1     -11.621  12.901  68.127  1.00  0.00    -0.336 A  
HETATM    3  C   UNL     1     -11.720  12.672  69.502  1.00  0.00    -0.308 A  
HETATM    4  S   UNL     1     -11.575  14.199  70.309  1.00  0.00    -0.146 SA 
HETATM    5  N   UNL     1     -11.352  14.214  67.761  1.00  0.00    -0.291 NA 
HETATM    6  C   UNL     1     -11.289  14.969  68.820  1.00  0.00    -0.291 A  
ENDROOT
BRANCH   3   7
HETATM    7  C   UNL     1     -11.946  11.444  70.292  1.00  0.00    -0.460 A  
HETATM    8  C   UNL     1     -11.515   9.087  70.769  1.00  0.00    -0.282 A  
HETATM    9  C   UNL     1     -13.060  10.258  72.043  1.00  0.00    -0.425 A  
HETATM   10  C   UNL     1     -11.272  10.240  70.007  1.00  0.00    -0.376 A  
HETATM   11  N   UNL     1     -12.423   9.101  71.773  1.00  0.00    -0.346 NA 
HETATM   12  C   UNL     1     -12.851  11.436  71.352  1.00  0.00    -0.502 A  
BRANCH   8  13
HETATM   13  C   UNL     1     -10.820   7.751  70.472  1.00  0.00    -0.245 C  
HETATM   14  F   UNL     1      -8.440   7.447  70.594  1.00  0.00    -0.127 F  
HETATM   15  C   UNL     1     -11.783   6.558  70.711  1.00  0.00    -0.427 C  
HETATM   16  C   UNL     1     -10.443   7.712  68.974  1.00  0.00    -0.214 C  
HETATM   17  F   UNL     1      -9.624   6.418  72.094  1.00  0.00    -0.152 F  
HETATM   18  F   UNL     1      -9.341   8.565  72.217  1.00  0.00    -0.270 F  
HETATM   19  C   UNL     1      -9.563   7.549  71.351  1.00  0.00    -0.155 C  
ENDBRANCH   8  13
ENDBRANCH   3   7
BRANCH   6  20
HETATM   20  N   UNL     1     -11.025  16.306  68.936  1.00  0.00    -0.314 N  
HETATM   21  H   UNL     1     -11.788  16.927  69.204  1.00  0.00     0.000 HD 
BRANCH  20  22
HETATM   22  C   UNL     1      -9.788  16.855  68.711  1.00  0.00    -0.269 C  
HETATM   23  O   UNL     1      -8.750  16.543  69.287  1.00  0.00    -0.195 OA 
BRANCH  22  24
HETATM   24  N   UNL     1      -9.777  17.846  67.738  1.00  0.00    -0.275 N  
HETATM   25  C   UNL     1      -8.770  18.893  67.727  1.00  0.00    -0.292 C  
HETATM   26  C   UNL     1      -9.510  20.096  67.171  1.00  0.00    -0.537 C  
HETATM   27  C   UNL     1     -10.514  19.500  66.188  1.00  0.00    -0.613 C  
HETATM   28  C   UNL     1     -10.777  18.078  66.690  1.00  0.00    -0.143 C  
BRANCH  28  29
HETATM   29  C   UNL     1     -10.618  17.062  65.543  1.00  0.00    -0.173 C  
HETATM   30  N   UNL     1      -9.633  16.126  65.691  1.00  0.00    -0.235 N  
HETATM   31  O   UNL     1     -11.246  17.152  64.493  1.00  0.00    -1.104 OA 
HETATM   32  H1  UNL     1      -9.527  15.454  64.932  1.00  0.00     0.000 HD 
HETATM   33  H2  UNL     1      -9.035  16.102  66.517  1.00  0.00     0.000 HD 
ENDBRANCH  28  29
ENDBRANCH  22  24
ENDBRANCH  20  22
ENDBRANCH   6  20
TORSDOF 6
ENDMDL
MODEL       18
REMARK 921   NORMALIZED FREE ENERGY PREDICTED BY IDOCK:   -7.28 KCAL/MOL
REMARK 922        TOTAL FREE ENERGY PREDICTED BY IDOCK:  -10.93 KCAL/MOL
REMARK 923 INTER-LIGAND FREE ENERGY PREDICTED BY IDOCK:   -9.90 KCAL/MOL
REMARK 924 INTRA-LIGAND FREE ENERGY PREDICTED BY IDOCK:   -1.03 KCAL/MOL
REMARK 927      BINDING AFFINITY PREDICTED BY RF-SCORE:    0.00 PKD
ROOT
HETATM    1  C   UNL     1     -13.777  13.138  72.218  1.00  0.00    -0.647 C  
HETATM    2  C   UNL     1     -12.924  12.125  71.542  1.00  0.00    -0.295 A  
HETATM    3  C   UNL     1     -12.184  12.228  70.362  1.00  0.00    -0.288 A  
HETATM    4  S   UNL     1     -11.469  10.682  70.042  1.00  0.00    -0.347 SA 
HETATM    5  N   UNL     1     -12.837  10.899  72.192  1.00  0.00    -0.233 NA 
HETATM    6  C   UNL     1     -12.091  10.082  71.507  1.00  0.00    -0.387 A  
ENDROOT
BRANCH   3   7
HETATM    7  C   UNL     1     -11.973  13.343  69.414  1.00  0.00    -0.369 A  
HETATM    8  C   UNL     1     -11.500  14.198  67.176  1.00  0.00    -0.353 A  
HETATM    9  C   UNL     1     -11.785  15.678  68.939  1.00  0.00    -0.384 A  
HETATM   10  C   UNL     1     -11.707  13.120  68.049  1.00  0.00    -0.394 A  
HETATM   11  N   UNL     1     -11.525  15.472  67.632  1.00  0.00    -0.267 NA 
HETATM   12  C   UNL     1     -12.024  14.666  69.849  1.00  0.00    -0.381 A  
BRANCH   8  13
HETATM   13  C   UNL     1     -11.181  13.994  65.688  1.00  0.00    -0.310 C  
HETATM   14  F   UNL     1     -12.545  12.672  64.216  1.00  0.00    -0.461 F  
HETATM   15  C   UNL     1     -10.330  15.167  65.136  1.00  0.00    -0.416 C  
HETATM   16  C   UNL     1     -10.318  12.722  65.537  1.00  0.00    -0.301 C  
HETATM   17  F   UNL     1     -12.526  14.812  63.855  1.00  0.00    -0.496 F  
HETATM   18  F   UNL     1     -13.605  14.005  65.554  1.00  0.00    -0.357 F  
HETATM   19  C   UNL     1     -12.467  13.878  64.835  1.00  0.00    -0.391 C  
ENDBRANCH   8  13
ENDBRANCH   3   7
BRANCH   6  20
HETATM   20  N   UNL     1     -11.714   8.796  71.776  1.00  0.00    -0.321 N  
HETATM   21  H   UNL     1     -12.444   8.100  71.930  1.00  0.00     0.000 HD 
BRANCH  20  22
HETATM   22  C   UNL     1     -10.405   8.390  71.850  1.00  0.00    -0.283 C  
HETATM   23  O   UNL     1      -9.524   8.931  72.513  1.00  0.00    -0.287 OA 
BRANCH  22  24
HETATM   24  N   UNL     1     -10.115   7.268  71.085  1.00  0.00    -0.187 N  
HETATM   25  C   UNL     1      -8.917   7.191  70.267  1.00  0.00    -0.152 C  
HETATM   26  C   UNL     1      -9.349   6.354  69.077  1.00  0.00    -0.127 C  
HETATM   27  C   UNL     1     -10.375   5.382  69.651  1.00  0.00    -0.361 C  
HETATM   28  C   UNL     1     -10.962   6.089  70.875  1.00  0.00    -0.289 C  
BRANCH  28  29
HETATM   29  C   UNL     1     -10.927   5.161  72.104  1.00  0.00    -0.104 C  
HETATM   30  N   UNL     1     -11.632   5.575  73.200  1.00  0.00    -0.531 N  
HETATM   31  O   UNL     1     -10.210   4.167  72.157  1.00  0.00    -0.182 OA 
HETATM   32  H1  UNL     1     -11.608   4.961  74.013  1.00  0.00     0.000 HD 
HETATM   33  H2  UNL     1     -12.153   6.452  73.203  1.00  0.00     0.000 HD 
ENDBRANCH  28  29
ENDBRANCH  22  24
ENDBRANCH  20  22
ENDBRANCH   6  20
TORSDOF 6
ENDMDL
MODEL       19
REMARK 921   NORMALIZED FREE ENERGY PREDICTED BY IDOCK:   -7.27 KCAL/MOL
REMARK 922        TOTAL FREE ENERGY PREDICTED BY IDOCK:  -10.91 KCAL/MOL
REMARK 923 INTER-LIGAND FREE ENERGY PREDICTED BY IDOCK:   -9.63 KCAL/MOL
REMARK 924 INTRA-LIGAND FREE ENERGY PREDICTED BY IDOCK:   -1.28 KCAL/MOL
REMARK 927      BINDING AFFINITY PREDICTED BY RF-SCORE:    0.00 PKD
ROOT
HETATM    1  C   UNL     1     -11.908  12.047  65.121  1.00  0.00    -0.278 C  
HETATM    2  C   UNL     1     -11.765  12.586  66.500  1.00  0.00    -0.391 A  
HETATM    3  C   UNL     1     -11.450  11.921  67.687  1.00  0.00    -0.317 A  
HETATM    4  S   UNL     1     -11.519  13.073  68.980  1.00  0.00    -0.318 SA 
HETATM    5  N   UNL     1     -11.956  13.958  66.620  1.00  0.00    -0.421 NA 
HETATM    6  C   UNL     1     -11.833  14.319  67.865  1.00  0.00    -0.358 A  
ENDROOT
BRANCH   3   7
HETATM    7  C   UNL     1     -11.135  10.507  67.982  1.00  0.00    -0.361 A  
HETATM    8  C   UNL     1     -11.010   8.610  69.516  1.00  0.00    -0.055 A  
HETATM    9  C   UNL     1     -10.309   8.364  67.319  1.00  0.00    -0.299 A  
HETATM   10  C   UNL     1     -11.328   9.953  69.263  1.00  0.00    -0.116 A  
HETATM   11  N   UNL     1     -10.486   7.829  68.543  1.00  0.00    -0.194 NA 
HETATM   12  C   UNL     1     -10.624   9.670  66.992  1.00  0.00    -0.267 A  
BRANCH   8  13
HETATM   13  C   UNL     1     -11.181   7.978  70.905  1.00  0.00    -0.282 C  
HETATM   14  F   UNL     1      -9.441   6.751  72.018  1.00  0.00    -0.145 F  
HETATM   15  C   UNL     1     -12.275   8.714  71.721  1.00  0.00    -0.403 C  
HETATM   16  C   UNL     1     -11.675   6.524  70.728  1.00  0.00    -0.427 C  
HETATM   17  F   UNL     1      -9.994   8.658  72.896  1.00  0.00    -0.320 F  
HETATM   18  F   UNL     1      -8.840   8.599  71.060  1.00  0.00    -0.146 F  
HETATM   19  C   UNL     1      -9.864   8.006  71.715  1.00  0.00    -0.183 C  
ENDBRANCH   8  13
ENDBRANCH   3   7
BRANCH   6  20
HETATM   20  N   UNL     1     -11.913  15.558  68.436  1.00  0.00    -0.506 N  
HETATM   21  H   UNL     1     -12.838  15.956  68.598  1.00  0.00     0.000 HD 
BRANCH  20  22
HETATM   22  C   UNL     1     -10.816  16.295  68.802  1.00  0.00    -0.317 C  
HETATM   23  O   UNL     1     -10.139  16.120  69.812  1.00  0.00    -0.245 OA 
BRANCH  22  24
HETATM   24  N   UNL     1     -10.495  17.315  67.915  1.00  0.00    -0.367 N  
HETATM   25  C   UNL     1     -10.280  18.679  68.365  1.00  0.00    -0.371 C  
HETATM   26  C   UNL     1     -10.784  19.521  67.208  1.00  0.00    -0.604 C  
HETATM   27  C   UNL     1     -10.465  18.690  65.968  1.00  0.00    -0.456 C  
HETATM   28  C   UNL     1     -10.440  17.237  66.451  1.00  0.00    -0.263 C  
BRANCH  28  29
HETATM   29  C   UNL     1      -9.152  16.535  65.985  1.00  0.00    -0.255 C  
HETATM   30  N   UNL     1      -9.229  15.183  65.795  1.00  0.00    -0.452 N  
HETATM   31  O   UNL     1      -8.075  17.120  65.906  1.00  0.00    -0.516 OA 
HETATM   32  H1  UNL     1      -8.375  14.719  65.487  1.00  0.00     0.000 HD 
HETATM   33  H2  UNL     1     -10.094  14.668  65.954  1.00  0.00     0.000 HD 
ENDBRANCH  28  29
ENDBRANCH  22  24
ENDBRANCH  20  22
ENDBRANCH   6  20
TORSDOF 6
ENDMDL
MODEL       20
REMARK 921   NORMALIZED FREE ENERGY PREDICTED BY IDOCK:   -7.26 KCAL/MOL
REMARK 922        TOTAL FREE ENERGY PREDICTED BY IDOCK:  -10.90 KCAL/MOL
REMARK 923 INTER-LIGAND FREE ENERGY PREDICTED BY IDOCK:  -10.02 KCAL/MOL
REMARK 924 INTRA-LIGAND FREE ENERGY PREDICTED BY IDOCK:   -0.89 KCAL/MOL
REMARK 927      BINDING AFFINITY PREDICTED BY RF-SCORE:    0.00 PKD
ROOT
HETATM    1  C   UNL     1     -10.637  11.564  64.898  1.00  0.00    -0.360 C  
HETATM    2  C   UNL     1     -10.677  12.056  66.301  1.00  0.00    -0.267 A  
HETATM    3  C   UNL     1     -10.734  13.365  66.784  1.00  0.00    -0.277 A  
HETATM    4  S   UNL     1     -10.666  13.300  68.514  1.00  0.00    -0.263 SA 
HETATM    5  N   UNL     1     -10.674  11.063  67.274  1.00  0.00    -0.249 NA 
HETATM    6  C   UNL     1     -10.685  11.600  68.460  1.00  0.00    -0.218 A  
ENDROOT
BRANCH   3   7
HETATM    7  C   UNL     1     -10.798  14.676  66.102  1.00  0.00    -0.321 A  
HETATM    8  C   UNL     1     -10.369  17.079  66.025  1.00  0.00    -0.315 A  
HETATM    9  C   UNL     1     -11.455  16.044  64.256  1.00  0.00    -0.157 A  
HETATM   10  C   UNL     1     -10.285  15.848  66.692  1.00  0.00    -0.293 A  
HETATM   11  N   UNL     1     -10.971  17.170  64.816  1.00  0.00    -0.924 NA 
HETATM   12  C   UNL     1     -11.382  14.795  64.843  1.00  0.00    -0.411 A  
BRANCH   8  13
HETATM   13  C   UNL     1      -9.846  18.382  66.646  1.00  0.00    -0.362 C  
HETATM   14  F   UNL     1      -7.680  18.578  67.668  1.00  0.00    -0.223 F  
HETATM   15  C   UNL     1     -10.535  19.617  66.011  1.00  0.00    -0.622 C  
HETATM   16  C   UNL     1     -10.219  18.399  68.146  1.00  0.00    -0.410 C  
HETATM   17  F   UNL     1      -7.976  19.664  65.812  1.00  0.00    -0.322 F  
HETATM   18  F   UNL     1      -7.751  17.507  65.786  1.00  0.00    -0.294 F  
HETATM   19  C   UNL     1      -8.316  18.529  66.469  1.00  0.00    -0.281 C  
ENDBRANCH   8  13
ENDBRANCH   3   7
BRANCH   6  20
HETATM   20  N   UNL     1     -10.713  11.012  69.694  1.00  0.00    -0.428 N  
HETATM   21  H   UNL     1      -9.845  10.625  70.064  1.00  0.00     0.000 HD 
BRANCH  20  22
HETATM   22  C   UNL     1     -11.846  10.915  70.461  1.00  0.00    -0.360 C  
HETATM   23  O   UNL     1     -12.603  11.840  70.741  1.00  0.00    -0.317 OA 
BRANCH  22  24
HETATM   24  N   UNL     1     -12.103   9.635  70.934  1.00  0.00    -0.302 N  
HETATM   25  C   UNL     1     -13.410   9.256  71.442  1.00  0.00    -0.325 C  
HETATM   26  C   UNL     1     -13.093   8.250  72.532  1.00  0.00    -0.129 C  
HETATM   27  C   UNL     1     -11.838   7.538  72.035  1.00  0.00    -0.331 C  
HETATM   28  C   UNL     1     -11.141   8.542  71.114  1.00  0.00    -0.260 C  
BRANCH  28  29
HETATM   29  C   UNL     1     -10.794   7.887  69.765  1.00  0.00    -0.202 C  
HETATM   30  N   UNL     1     -11.549   6.808  69.399  1.00  0.00    -0.624 N  
HETATM   31  O   UNL     1      -9.816   8.223  69.102  1.00  0.00    -0.172 OA 
HETATM   32  H1  UNL     1     -11.319   6.374  68.505  1.00  0.00     0.000 HD 
HETATM   33  H2  UNL     1     -12.302   6.455  69.990  1.00  0.00     0.000 HD 
ENDBRANCH  28  29
ENDBRANCH  22  24
ENDBRANCH  20  22
ENDBRANCH   6  20
TORSDOF 6
ENDMDL
MODEL       21
REMARK 921   NORMALIZED FREE ENERGY PREDICTED BY IDOCK:   -7.26 KCAL/MOL
REMARK 922        TOTAL FREE ENERGY PREDICTED BY IDOCK:  -10.90 KCAL/MOL
REMARK 923 INTER-LIGAND FREE ENERGY PREDICTED BY IDOCK:   -9.66 KCAL/MOL
REMARK 924 INTRA-LIGAND FREE ENERGY PREDICTED BY IDOCK:   -1.24 KCAL/MOL
REMARK 927      BINDING AFFINITY PREDICTED BY RF-SCORE:    0.00 PKD
ROOT
HETATM    1  C   UNL     1     -11.836  15.045  70.132  1.00  0.00    -0.357 C  
HETATM    2  C   UNL     1     -11.716  13.901  69.189  1.00  0.00    -0.338 A  
HETATM    3  C   UNL     1     -11.457  13.901  67.816  1.00  0.00    -0.323 A  
HETATM    4  S   UNL     1     -11.529  12.262  67.258  1.00  0.00    -0.362 SA 
HETATM    5  N   UNL     1     -11.869  12.644  69.764  1.00  0.00    -0.327 NA 
HETATM    6  C   UNL     1     -11.771  11.720  68.853  1.00  0.00    -0.323 A  
ENDROOT
BRANCH   3   7
HETATM    7  C   UNL     1     -11.195  14.992  66.854  1.00  0.00    -0.323 A  
HETATM    8  C   UNL     1     -10.452  17.258  66.328  1.00  0.00    -0.268 A  
HETATM    9  C   UNL     1     -11.231  15.878  64.634  1.00  0.00    -0.351 A  
HETATM   10  C   UNL     1     -10.682  16.238  67.263  1.00  0.00    -0.265 A  
HETATM   11  N   UNL     1     -10.745  17.075  65.019  1.00  0.00    -0.693 NA 
HETATM   12  C   UNL     1     -11.457  14.821  65.496  1.00  0.00    -0.329 A  
BRANCH   8  13
HETATM   13  C   UNL     1      -9.920  18.638  66.739  1.00  0.00    -0.381 C  
HETATM   14  F   UNL     1      -7.718  18.990  67.634  1.00  0.00    -0.242 F  
HETATM   15  C   UNL     1     -10.648  19.769  65.966  1.00  0.00    -0.573 C  
HETATM   16  C   UNL     1     -10.233  18.864  68.235  1.00  0.00    -0.442 C  
HETATM   17  F   UNL     1      -8.100  19.803  65.658  1.00  0.00    -0.331 F  
HETATM   18  F   UNL     1      -7.851  17.665  65.924  1.00  0.00    -0.294 F  
HETATM   19  C   UNL     1      -8.400  18.769  66.481  1.00  0.00    -0.297 C  
ENDBRANCH   8  13
ENDBRANCH   3   7
BRANCH   6  20
HETATM   20  N   UNL     1     -11.830  10.359  68.966  1.00  0.00    -0.525 N  
HETATM   21  H   UNL     1     -12.703   9.891  68.720  1.00  0.00     0.000 HD 
BRANCH  20  22
HETATM   22  C   UNL     1     -10.779   9.589  69.393  1.00  0.00    -0.225 C  
HETATM   23  O   UNL     1     -10.591   9.206  70.544  1.00  0.00    -0.204 OA 
BRANCH  22  24
HETATM   24  N   UNL     1      -9.881   9.249  68.389  1.00  0.00    -0.151 N  
HETATM   25  C   UNL     1      -8.502   9.707  68.410  1.00  0.00    -0.118 C  
HETATM   26  C   UNL     1      -8.159   9.877  66.943  1.00  0.00    -0.113 C  
HETATM   27  C   UNL     1      -8.965   8.790  66.237  1.00  0.00    -0.211 C  
HETATM   28  C   UNL     1     -10.166   8.522  67.147  1.00  0.00    -0.284 C  
BRANCH  28  29
HETATM   29  C   UNL     1     -10.315   7.013  67.415  1.00  0.00    -0.244 C  
HETATM   30  N   UNL     1     -11.573   6.493  67.288  1.00  0.00    -0.644 N  
HETATM   31  O   UNL     1      -9.392   6.326  67.842  1.00  0.00    -0.117 OA 
HETATM   32  H1  UNL     1     -11.671   5.494  67.465  1.00  0.00     0.000 HD 
HETATM   33  H2  UNL     1     -12.370   7.075  67.030  1.00  0.00     0.000 HD 
ENDBRANCH  28  29
ENDBRANCH  22  24
ENDBRANCH  20  22
ENDBRANCH   6  20
TORSDOF 6
ENDMDL
MODEL       22
REMARK 921   NORMALIZED FREE ENERGY PREDICTED BY IDOCK:   -7.25 KCAL/MOL
REMARK 922        TOTAL FREE ENERGY PREDICTED BY IDOCK:  -10.89 KCAL/MOL
REMARK 923 INTER-LIGAND FREE ENERGY PREDICTED BY IDOCK:   -9.56 KCAL/MOL
REMARK 924 INTRA-LIGAND FREE ENERGY PREDICTED BY IDOCK:   -1.33 KCAL/MOL
REMARK 927      BINDING AFFINITY PREDICTED BY RF-SCORE:    0.00 PKD
ROOT
HETATM    1  C   UNL     1     -13.141  13.845  72.256  1.00  0.00    -0.512 C  
HETATM    2  C   UNL     1     -12.655  13.337  70.945  1.00  0.00    -0.306 A  
HETATM    3  C   UNL     1     -12.386  12.026  70.543  1.00  0.00    -0.282 A  
HETATM    4  S   UNL     1     -11.762  12.080  68.927  1.00  0.00    -0.326 SA 
HETATM    5  N   UNL     1     -12.456  14.309  69.972  1.00  0.00    -0.336 NA 
HETATM    6  C   UNL     1     -12.009  13.763  68.878  1.00  0.00    -0.359 A  
ENDROOT
BRANCH   3   7
HETATM    7  C   UNL     1     -12.508  10.727  71.238  1.00  0.00    -0.504 A  
HETATM    8  C   UNL     1     -11.570   8.605  72.002  1.00  0.00    -0.370 A  
HETATM    9  C   UNL     1     -13.798   9.098  72.419  1.00  0.00    -0.457 A  
HETATM   10  C   UNL     1     -11.423   9.836  71.344  1.00  0.00    -0.435 A  
HETATM   11  N   UNL     1     -12.765   8.238  72.520  1.00  0.00    -0.239 NA 
HETATM   12  C   UNL     1     -13.717  10.336  71.809  1.00  0.00    -0.141 A  
BRANCH   8  13
HETATM   13  C   UNL     1     -10.419   7.596  72.115  1.00  0.00    -0.270 C  
HETATM   14  F   UNL     1     -10.601   5.303  71.420  1.00  0.00    -0.275 F  
HETATM   15  C   UNL     1      -9.045   8.316  72.111  1.00  0.00    -0.279 C  
HETATM   16  C   UNL     1     -10.527   6.875  73.477  1.00  0.00    -0.382 C  
HETATM   17  F   UNL     1      -9.284   6.568  70.246  1.00  0.00    -0.150 F  
HETATM   18  F   UNL     1     -11.436   6.777  70.069  1.00  0.00    -0.330 F  
HETATM   19  C   UNL     1     -10.438   6.570  70.958  1.00  0.00    -0.222 C  
ENDBRANCH   8  13
ENDBRANCH   3   7
BRANCH   6  20
HETATM   20  N   UNL     1     -11.703  14.327  67.672  1.00  0.00    -0.369 N  
HETATM   21  H   UNL     1     -12.338  15.028  67.291  1.00  0.00     0.000 HD 
BRANCH  20  22
HETATM   22  C   UNL     1     -10.585  14.000  66.946  1.00  0.00    -0.280 C  
HETATM   23  O   UNL     1      -9.423  14.157  67.309  1.00  0.00    -0.215 OA 
BRANCH  22  24
HETATM   24  N   UNL     1     -10.859  13.453  65.699  1.00  0.00    -0.280 N  
HETATM   25  C   UNL     1     -11.058  14.286  64.526  1.00  0.00    -0.312 C  
HETATM   26  C   UNL     1     -12.074  13.514  63.706  1.00  0.00    -0.482 C  
HETATM   27  C   UNL     1     -11.759  12.049  63.996  1.00  0.00    -0.498 C  
HETATM   28  C   UNL     1     -11.105  12.042  65.380  1.00  0.00    -0.320 C  
BRANCH  28  29
HETATM   29  C   UNL     1      -9.787  11.247  65.350  1.00  0.00    -0.237 C  
HETATM   30  N   UNL     1      -9.103  11.158  66.531  1.00  0.00    -0.176 N  
HETATM   31  O   UNL     1      -9.300  10.819  64.308  1.00  0.00    -0.215 OA 
HETATM   32  H1  UNL     1      -8.230  10.632  66.511  1.00  0.00     0.000 HD 
HETATM   33  H2  UNL     1      -9.448  11.596  67.385  1.00  0.00     0.000 HD 
ENDBRANCH  28  29
ENDBRANCH  22  24
ENDBRANCH  20  22
ENDBRANCH   6  20
TORSDOF 6
ENDMDL
MODEL       23
REMARK 921   NORMALIZED FREE ENERGY PREDICTED BY IDOCK:   -7.20 KCAL/MOL
REMARK 922        TOTAL FREE ENERGY PREDICTED BY IDOCK:  -10.81 KCAL/MOL
REMARK 923 INTER-LIGAND FREE ENERGY PREDICTED BY IDOCK:   -9.43 KCAL/MOL
REMARK 924 INTRA-LIGAND FREE ENERGY PREDICTED BY IDOCK:   -1.39 KCAL/MOL
REMARK 927      BINDING AFFINITY PREDICTED BY RF-SCORE:    0.00 PKD
ROOT
HETATM    1  C   UNL     1     -10.574   7.643  67.048  1.00  0.00    -0.406 C  
HETATM    2  C   UNL     1     -10.252   9.069  67.321  1.00  0.00    -0.256 A  
HETATM    3  C   UNL     1     -10.341   9.789  68.515  1.00  0.00    -0.202 A  
HETATM    4  S   UNL     1      -9.911  11.434  68.180  1.00  0.00    -0.195 SA 
HETATM    5  N   UNL     1      -9.775   9.786  66.229  1.00  0.00    -0.216 NA 
HETATM    6  C   UNL     1      -9.549  11.021  66.570  1.00  0.00    -0.195 A  
ENDROOT
BRANCH   3   7
HETATM    7  C   UNL     1     -10.747   9.402  69.882  1.00  0.00    -0.258 A  
HETATM    8  C   UNL     1     -10.532   7.997  71.868  1.00  0.00    -0.236 A  
HETATM    9  C   UNL     1     -12.154   9.653  71.798  1.00  0.00    -0.369 A  
HETATM   10  C   UNL     1     -10.119   8.348  70.575  1.00  0.00    -0.211 A  
HETATM   11  N   UNL     1     -11.561   8.643  72.465  1.00  0.00    -0.319 NA 
HETATM   12  C   UNL     1     -11.781  10.070  70.534  1.00  0.00    -0.400 A  
BRANCH   8  13
HETATM   13  C   UNL     1      -9.890   6.838  72.644  1.00  0.00    -0.183 C  
HETATM   14  F   UNL     1     -11.083   4.848  73.269  1.00  0.00    -0.276 F  
HETATM   15  C   UNL     1      -8.356   6.802  72.423  1.00  0.00    -0.109 C  
HETATM   16  C   UNL     1     -10.106   7.076  74.156  1.00  0.00    -0.290 C  
HETATM   17  F   UNL     1      -9.529   4.614  71.772  1.00  0.00    -0.160 F  
HETATM   18  F   UNL     1     -11.410   5.559  71.249  1.00  0.00    -0.278 F  
HETATM   19  C   UNL     1     -10.478   5.470  72.225  1.00  0.00    -0.217 C  
ENDBRANCH   8  13
ENDBRANCH   3   7
BRANCH   6  20
HETATM   20  N   UNL     1      -9.056  12.063  65.834  1.00  0.00    -0.414 N  
HETATM   21  H   UNL     1      -8.046  12.195  65.800  1.00  0.00     0.000 HD 
BRANCH  20  22
HETATM   22  C   UNL     1      -9.850  12.941  65.139  1.00  0.00    -0.068 C  
HETATM   23  O   UNL     1     -10.388  12.719  64.058  1.00  0.00    -0.415 OA 
BRANCH  22  24
HETATM   24  N   UNL     1     -10.017  14.170  65.764  1.00  0.00    -0.317 N  
HETATM   25  C   UNL     1      -8.930  14.820  66.475  1.00  0.00    -0.233 C  
HETATM   26  C   UNL     1      -9.629  15.553  67.605  1.00  0.00    -0.210 C  
HETATM   27  C   UNL     1     -10.978  15.956  67.016  1.00  0.00    -0.189 C  
HETATM   28  C   UNL     1     -11.263  14.929  65.918  1.00  0.00    -0.328 C  
BRANCH  28  29
HETATM   29  C   UNL     1     -11.644  15.634  64.603  1.00  0.00    -0.249 C  
HETATM   30  N   UNL     1     -12.398  14.912  63.720  1.00  0.00    -1.071 N  
HETATM   31  O   UNL     1     -11.198  16.735  64.295  1.00  0.00    -1.163 OA 
HETATM   32  H1  UNL     1     -12.649  15.380  62.850  1.00  0.00     0.000 HD 
HETATM   33  H2  UNL     1     -12.692  13.957  63.922  1.00  0.00     0.000 HD 
ENDBRANCH  28  29
ENDBRANCH  22  24
ENDBRANCH  20  22
ENDBRANCH   6  20
TORSDOF 6
ENDMDL
MODEL       24
REMARK 921   NORMALIZED FREE ENERGY PREDICTED BY IDOCK:   -7.13 KCAL/MOL
REMARK 922        TOTAL FREE ENERGY PREDICTED BY IDOCK:  -10.72 KCAL/MOL
REMARK 923 INTER-LIGAND FREE ENERGY PREDICTED BY IDOCK:   -9.72 KCAL/MOL
REMARK 924 INTRA-LIGAND FREE ENERGY PREDICTED BY IDOCK:   -1.00 KCAL/MOL
REMARK 927      BINDING AFFINITY PREDICTED BY RF-SCORE:    0.00 PKD
ROOT
HETATM    1  C   UNL     1     -12.042  14.073  65.391  1.00  0.00    -0.411 C  
HETATM    2  C   UNL     1     -11.498  13.507  66.654  1.00  0.00    -0.339 A  
HETATM    3  C   UNL     1     -10.422  13.939  67.432  1.00  0.00    -0.263 A  
HETATM    4  S   UNL     1     -10.221  12.817  68.737  1.00  0.00    -0.001 SA 
HETATM    5  N   UNL     1     -12.172  12.393  67.139  1.00  0.00    -0.418 NA 
HETATM    6  C   UNL     1     -11.603  11.965  68.229  1.00  0.00    -0.327 A  
ENDROOT
BRANCH   3   7
HETATM    7  C   UNL     1      -9.492  15.082  67.299  1.00  0.00    -0.212 A  
HETATM    8  C   UNL     1      -9.020  17.478  67.315  1.00  0.00    -0.235 A  
HETATM    9  C   UNL     1      -7.320  15.970  66.848  1.00  0.00    -0.201 A  
HETATM   10  C   UNL     1      -9.922  16.413  67.457  1.00  0.00    -0.250 A  
HETATM   11  N   UNL     1      -7.725  17.247  66.994  1.00  0.00    -0.185 NA 
HETATM   12  C   UNL     1      -8.147  14.873  67.001  1.00  0.00    -0.200 A  
BRANCH   8  13
HETATM   13  C   UNL     1      -9.456  18.943  67.454  1.00  0.00    -0.334 C  
HETATM   14  F   UNL     1     -10.058  20.323  65.582  1.00  0.00    -0.537 F  
HETATM   15  C   UNL     1     -10.051  19.216  68.860  1.00  0.00    -0.422 C  
HETATM   16  C   UNL     1      -8.207  19.844  67.328  1.00  0.00    -0.350 C  
HETATM   17  F   UNL     1     -11.661  19.790  66.945  1.00  0.00    -0.272 F  
HETATM   18  F   UNL     1     -10.859  18.310  65.577  1.00  0.00    -0.453 F  
HETATM   19  C   UNL     1     -10.511  19.332  66.392  1.00  0.00    -0.474 C  
ENDBRANCH   8  13
ENDBRANCH   3   7
BRANCH   6  20
HETATM   20  N   UNL     1     -11.938  10.924  69.049  1.00  0.00    -0.468 N  
HETATM   21  H   UNL     1     -12.757  11.026  69.649  1.00  0.00     0.000 HD 
BRANCH  20  22
HETATM   22  C   UNL     1     -11.231   9.750  69.110  1.00  0.00    -0.061 C  
HETATM   23  O   UNL     1     -10.822   9.109  68.146  1.00  0.00    -0.172 OA 
BRANCH  22  24
HETATM   24  N   UNL     1     -10.992   9.299  70.402  1.00  0.00    -0.242 N  
HETATM   25  C   UNL     1      -9.665   9.340  70.991  1.00  0.00    -0.271 C  
HETATM   26  C   UNL     1      -9.635   8.121  71.895  1.00  0.00    -0.264 C  
HETATM   27  C   UNL     1     -11.073   7.982  72.387  1.00  0.00    -0.416 C  
HETATM   28  C   UNL     1     -11.937   8.629  71.301  1.00  0.00    -0.293 C  
BRANCH  28  29
HETATM   29  C   UNL     1     -12.916   9.642  71.923  1.00  0.00    -0.435 C  
HETATM   30  N   UNL     1     -13.971   9.121  72.619  1.00  0.00    -0.780 N  
HETATM   31  O   UNL     1     -12.839  10.848  71.708  1.00  0.00    -0.431 OA 
HETATM   32  H1  UNL     1     -14.620   9.792  73.030  1.00  0.00     0.000 HD 
HETATM   33  H2  UNL     1     -14.103   8.115  72.720  1.00  0.00     0.000 HD 
ENDBRANCH  28  29
ENDBRANCH  22  24
ENDBRANCH  20  22
ENDBRANCH   6  20
TORSDOF 6
ENDMDL
MODEL       25
REMARK 921   NORMALIZED FREE ENERGY PREDICTED BY IDOCK:   -7.11 KCAL/MOL
REMARK 922        TOTAL FREE ENERGY PREDICTED BY IDOCK:  -10.70 KCAL/MOL
REMARK 923 INTER-LIGAND FREE ENERGY PREDICTED BY IDOCK:   -9.48 KCAL/MOL
REMARK 924 INTRA-LIGAND FREE ENERGY PREDICTED BY IDOCK:   -1.21 KCAL/MOL
REMARK 927      BINDING AFFINITY PREDICTED BY RF-SCORE:    0.00 PKD
ROOT
HETATM    1  C   UNL     1      -7.916  13.098  67.233  1.00  0.00    -0.140 C  
HETATM    2  C   UNL     1      -9.351  12.767  67.439  1.00  0.00    -0.193 A  
HETATM    3  C   UNL     1     -10.492  13.463  67.033  1.00  0.00    -0.257 A  
HETATM    4  S   UNL     1     -11.878  12.622  67.647  1.00  0.00    -0.261 SA 
HETATM    5  N   UNL     1      -9.591  11.581  68.122  1.00  0.00    -0.181 NA 
HETATM    6  C   UNL     1     -10.871  11.400  68.269  1.00  0.00    -0.209 A  
ENDROOT
BRANCH   3   7
HETATM    7  C   UNL     1     -10.675  14.711  66.262  1.00  0.00    -0.316 A  
HETATM    8  C   UNL     1     -10.437  17.128  66.004  1.00  0.00    -0.266 A  
HETATM    9  C   UNL     1     -11.481  15.888  64.344  1.00  0.00    -0.264 A  
HETATM   10  C   UNL     1     -10.241  15.958  66.753  1.00  0.00    -0.283 A  
HETATM   11  N   UNL     1     -11.072  17.086  64.809  1.00  0.00    -0.906 NA 
HETATM   12  C   UNL     1     -11.297  14.694  65.016  1.00  0.00    -0.390 A  
BRANCH   8  13
HETATM   13  C   UNL     1     -10.002  18.509  66.516  1.00  0.00    -0.401 C  
HETATM   14  F   UNL     1      -7.917  18.899  67.646  1.00  0.00    -0.250 F  
HETATM   15  C   UNL     1     -10.690  19.643  65.712  1.00  0.00    -0.493 C  
HETATM   16  C   UNL     1     -10.475  18.664  67.979  1.00  0.00    -0.395 C  
HETATM   17  F   UNL     1      -8.126  19.775  65.671  1.00  0.00    -0.331 F  
HETATM   18  F   UNL     1      -7.825  17.638  65.886  1.00  0.00    -0.294 F  
HETATM   19  C   UNL     1      -8.470  18.700  66.421  1.00  0.00    -0.272 C  
ENDBRANCH   8  13
ENDBRANCH   3   7
BRANCH   6  20
HETATM   20  N   UNL     1     -11.556  10.369  68.850  1.00  0.00    -0.486 N  
HETATM   21  H   UNL     1     -12.120   9.766  68.251  1.00  0.00     0.000 HD 
BRANCH  20  22
HETATM   22  C   UNL     1     -11.525  10.103  70.195  1.00  0.00    -0.296 C  
HETATM   23  O   UNL     1     -12.160  10.701  71.059  1.00  0.00    -0.340 OA 
BRANCH  22  24
HETATM   24  N   UNL     1     -10.681   9.057  70.547  1.00  0.00    -0.226 N  
HETATM   25  C   UNL     1     -10.115   8.948  71.880  1.00  0.00    -0.322 C  
HETATM   26  C   UNL     1      -8.757   8.316  71.643  1.00  0.00    -0.213 C  
HETATM   27  C   UNL     1      -8.972   7.400  70.442  1.00  0.00    -0.150 C  
HETATM   28  C   UNL     1     -10.143   8.013  69.669  1.00  0.00    -0.198 C  
BRANCH  28  29
HETATM   29  C   UNL     1     -11.209   6.945  69.366  1.00  0.00    -0.167 C  
HETATM   30  N   UNL     1     -11.447   6.679  68.046  1.00  0.00    -0.585 N  
HETATM   31  O   UNL     1     -11.905   6.442  70.244  1.00  0.00    -0.396 OA 
HETATM   32  H1  UNL     1     -12.154   5.971  67.846  1.00  0.00     0.000 HD 
HETATM   33  H2  UNL     1     -10.945   7.163  67.302  1.00  0.00     0.000 HD 
ENDBRANCH  28  29
ENDBRANCH  22  24
ENDBRANCH  20  22
ENDBRANCH   6  20
TORSDOF 6
ENDMDL
MODEL       26
REMARK 921   NORMALIZED FREE ENERGY PREDICTED BY IDOCK:   -7.07 KCAL/MOL
REMARK 922        TOTAL FREE ENERGY PREDICTED BY IDOCK:  -10.64 KCAL/MOL
REMARK 923 INTER-LIGAND FREE ENERGY PREDICTED BY IDOCK:   -9.94 KCAL/MOL
REMARK 924 INTRA-LIGAND FREE ENERGY PREDICTED BY IDOCK:   -0.70 KCAL/MOL
REMARK 927      BINDING AFFINITY PREDICTED BY RF-SCORE:    0.00 PKD
ROOT
HETATM    1  C   UNL     1     -12.247  13.729  70.066  1.00  0.00    -0.407 C  
HETATM    2  C   UNL     1     -11.758  13.413  68.698  1.00  0.00    -0.349 A  
HETATM    3  C   UNL     1     -11.091  12.277  68.231  1.00  0.00    -0.240 A  
HETATM    4  S   UNL     1     -10.703  12.533  66.562  1.00  0.00    -0.246 SA 
HETATM    5  N   UNL     1     -12.018  14.384  67.739  1.00  0.00    -0.362 NA 
HETATM    6  C   UNL     1     -11.529  14.020  66.589  1.00  0.00    -0.364 A  
ENDROOT
BRANCH   3   7
HETATM    7  C   UNL     1     -10.673  11.025  68.897  1.00  0.00    -0.249 A  
HETATM    8  C   UNL     1     -11.065   9.192  70.463  1.00  0.00    -0.260 A  
HETATM    9  C   UNL     1      -9.069   9.296  69.285  1.00  0.00    -0.151 A  
HETATM   10  C   UNL     1     -11.492  10.374  69.840  1.00  0.00    -0.368 A  
HETATM   11  N   UNL     1      -9.845   8.670  70.192  1.00  0.00    -0.177 NA 
HETATM   12  C   UNL     1      -9.437  10.447  68.614  1.00  0.00    -0.167 A  
BRANCH   8  13
HETATM   13  C   UNL     1     -11.917   8.468  71.514  1.00  0.00    -0.354 C  
HETATM   14  F   UNL     1     -13.825   7.116  70.962  1.00  0.00    -0.438 F  
HETATM   15  C   UNL     1     -11.096   8.188  72.800  1.00  0.00    -0.407 C  
HETATM   16  C   UNL     1     -13.078   9.397  71.934  1.00  0.00    -0.505 C  
HETATM   17  F   UNL     1     -12.093   6.070  71.748  1.00  0.00    -0.347 F  
HETATM   18  F   UNL     1     -12.071   6.840  69.720  1.00  0.00    -0.294 F  
HETATM   19  C   UNL     1     -12.467   7.124  70.982  1.00  0.00    -0.316 C  
ENDBRANCH   8  13
ENDBRANCH   3   7
BRANCH   6  20
HETATM   20  N   UNL     1     -11.572  14.646  65.374  1.00  0.00    -0.350 N  
HETATM   21  H   UNL     1     -12.025  14.163  64.598  1.00  0.00     0.000 HD 
BRANCH  20  22
HETATM   22  C   UNL     1     -11.037  15.888  65.143  1.00  0.00    -0.311 C  
HETATM   23  O   UNL     1     -11.364  16.652  64.239  1.00  0.00    -1.116 OA 
BRANCH  22  24
HETATM   24  N   UNL     1     -10.042  16.253  66.041  1.00  0.00    -0.336 N  
HETATM   25  C   UNL     1      -8.809  15.495  66.165  1.00  0.00    -0.238 C  
HETATM   26  C   UNL     1      -8.451  15.629  67.633  1.00  0.00    -0.169 C  
HETATM   27  C   UNL     1      -8.953  17.018  68.018  1.00  0.00    -0.230 C  
HETATM   28  C   UNL     1     -10.098  17.319  67.047  1.00  0.00    -0.303 C  
BRANCH  28  29
HETATM   29  C   UNL     1      -9.906  18.700  66.396  1.00  0.00    -0.367 C  
HETATM   30  N   UNL     1     -10.969  19.195  65.693  1.00  0.00    -0.188 N  
HETATM   31  O   UNL     1      -8.824  19.281  66.392  1.00  0.00    -0.328 OA 
HETATM   32  H1  UNL     1     -10.841  20.111  65.262  1.00  0.00     0.000 HD 
HETATM   33  H2  UNL     1     -11.842  18.677  65.605  1.00  0.00     0.000 HD 
ENDBRANCH  28  29
ENDBRANCH  22  24
ENDBRANCH  20  22
ENDBRANCH   6  20
TORSDOF 6
ENDMDL
MODEL       27
REMARK 921   NORMALIZED FREE ENERGY PREDICTED BY IDOCK:   -7.06 KCAL/MOL
REMARK 922        TOTAL FREE ENERGY PREDICTED BY IDOCK:  -10.63 KCAL/MOL
REMARK 923 INTER-LIGAND FREE ENERGY PREDICTED BY IDOCK:   -9.12 KCAL/MOL
REMARK 924 INTRA-LIGAND FREE ENERGY PREDICTED BY IDOCK:   -1.51 KCAL/MOL
REMARK 927      BINDING AFFINITY PREDICTED BY RF-SCORE:    0.00 PKD
ROOT
HETATM    1  C   UNL     1     -12.252  14.172  69.634  1.00  0.00    -0.376 C  
HETATM    2  C   UNL     1     -11.359  13.299  68.826  1.00  0.00    -0.290 A  
HETATM    3  C   UNL     1     -10.743  13.550  67.597  1.00  0.00    -0.248 A  
HETATM    4  S   UNL     1      -9.898  12.114  67.121  1.00  0.00    -0.199 SA 
HETATM    5  N   UNL     1     -11.084  12.057  69.386  1.00  0.00    -0.180 NA 
HETATM    6  C   UNL     1     -10.319  11.368  68.591  1.00  0.00    -0.203 A  
ENDROOT
BRANCH   3   7
HETATM    7  C   UNL     1     -10.738  14.732  66.710  1.00  0.00    -0.309 A  
HETATM    8  C   UNL     1     -10.257  17.086  66.272  1.00  0.00    -0.329 A  
HETATM    9  C   UNL     1     -11.249  15.787  64.627  1.00  0.00    -0.363 A  
HETATM   10  C   UNL     1     -10.240  15.979  67.134  1.00  0.00    -0.278 A  
HETATM   11  N   UNL     1     -10.778  16.984  65.027  1.00  0.00    -0.693 NA 
HETATM   12  C   UNL     1     -11.239  14.649  65.412  1.00  0.00    -0.347 A  
BRANCH   8  13
HETATM   13  C   UNL     1      -9.747  18.467  66.707  1.00  0.00    -0.345 C  
HETATM   14  F   UNL     1      -7.585  18.826  67.690  1.00  0.00    -0.226 F  
HETATM   15  C   UNL     1     -10.449  19.596  65.907  1.00  0.00    -0.591 C  
HETATM   16  C   UNL     1     -10.122  18.688  68.190  1.00  0.00    -0.418 C  
HETATM   17  F   UNL     1      -7.890  19.642  65.702  1.00  0.00    -0.322 F  
HETATM   18  F   UNL     1      -7.643  17.504  65.974  1.00  0.00    -0.293 F  
HETATM   19  C   UNL     1      -8.219  18.604  66.510  1.00  0.00    -0.286 C  
ENDBRANCH   8  13
ENDBRANCH   3   7
BRANCH   6  20
HETATM   20  N   UNL     1      -9.784  10.119  68.744  1.00  0.00    -0.165 N  
HETATM   21  H   UNL     1      -8.864  10.037  69.177  1.00  0.00     0.000 HD 
BRANCH  20  22
HETATM   22  C   UNL     1     -10.419   8.969  68.347  1.00  0.00    -0.192 C  
HETATM   23  O   UNL     1     -10.870   8.750  67.227  1.00  0.00    -0.214 OA 
BRANCH  22  24
HETATM   24  N   UNL     1     -10.532   8.011  69.346  1.00  0.00    -0.222 N  
HETATM   25  C   UNL     1      -9.652   6.857  69.400  1.00  0.00    -0.147 C  
HETATM   26  C   UNL     1     -10.530   5.762  69.975  1.00  0.00    -0.353 C  
HETATM   27  C   UNL     1     -11.472   6.494  70.926  1.00  0.00    -0.408 C  
HETATM   28  C   UNL     1     -11.565   7.923  70.383  1.00  0.00    -0.081 C  
BRANCH  28  29
HETATM   29  C   UNL     1     -11.306   8.944  71.505  1.00  0.00    -0.325 C  
HETATM   30  N   UNL     1     -12.099  10.059  71.509  1.00  0.00    -0.395 N  
HETATM   31  O   UNL     1     -10.363   8.842  72.284  1.00  0.00    -0.325 OA 
HETATM   32  H1  UNL     1     -11.927  10.735  72.253  1.00  0.00     0.000 HD 
HETATM   33  H2  UNL     1     -12.822  10.205  70.806  1.00  0.00     0.000 HD 
ENDBRANCH  28  29
ENDBRANCH  22  24
ENDBRANCH  20  22
ENDBRANCH   6  20
TORSDOF 6
ENDMDL
MODEL       28
REMARK 921   NORMALIZED FREE ENERGY PREDICTED BY IDOCK:   -7.05 KCAL/MOL
REMARK 922        TOTAL FREE ENERGY PREDICTED BY IDOCK:  -10.62 KCAL/MOL
REMARK 923 INTER-LIGAND FREE ENERGY PREDICTED BY IDOCK:  -10.20 KCAL/MOL
REMARK 924 INTRA-LIGAND FREE ENERGY PREDICTED BY IDOCK:   -0.42 KCAL/MOL
REMARK 927      BINDING AFFINITY PREDICTED BY RF-SCORE:    0.00 PKD
ROOT
HETATM    1  C   UNL     1     -13.214  13.522  72.238  1.00  0.00    -0.571 C  
HETATM    2  C   UNL     1     -12.586  13.075  70.966  1.00  0.00    -0.299 A  
HETATM    3  C   UNL     1     -12.268  11.784  70.536  1.00  0.00    -0.347 A  
HETATM    4  S   UNL     1     -11.472  11.913  69.002  1.00  0.00    -0.322 SA 
HETATM    5  N   UNL     1     -12.288  14.091  70.066  1.00  0.00    -0.345 NA 
HETATM    6  C   UNL     1     -11.723  13.596  69.003  1.00  0.00    -0.333 A  
ENDROOT
BRANCH   3   7
HETATM    7  C   UNL     1     -12.456  10.455  71.154  1.00  0.00    -0.509 A  
HETATM    8  C   UNL     1     -11.602   8.287  71.886  1.00  0.00    -0.315 A  
HETATM    9  C   UNL     1     -13.852   8.786  72.145  1.00  0.00    -0.457 A  
HETATM   10  C   UNL     1     -11.391   9.546  71.304  1.00  0.00    -0.446 A  
HETATM   11  N   UNL     1     -12.838   7.910  72.288  1.00  0.00    -0.184 NA 
HETATM   12  C   UNL     1     -13.711  10.052  71.607  1.00  0.00    -0.194 A  
BRANCH   8  13
HETATM   13  C   UNL     1     -10.472   7.259  72.042  1.00  0.00    -0.228 C  
HETATM   14  F   UNL     1     -10.725   4.929  71.511  1.00  0.00    -0.259 F  
HETATM   15  C   UNL     1      -9.082   7.943  71.956  1.00  0.00    -0.198 C  
HETATM   16  C   UNL     1     -10.563   6.636  73.453  1.00  0.00    -0.333 C  
HETATM   17  F   UNL     1      -9.409   6.077  70.222  1.00  0.00    -0.151 F  
HETATM   18  F   UNL     1     -11.558   6.328  70.081  1.00  0.00    -0.420 F  
HETATM   19  C   UNL     1     -10.544   6.157  70.959  1.00  0.00    -0.246 C  
ENDBRANCH   8  13
ENDBRANCH   3   7
BRANCH   6  20
HETATM   20  N   UNL     1     -11.291  14.215  67.864  1.00  0.00    -0.279 N  
HETATM   21  H   UNL     1     -11.990  14.587  67.221  1.00  0.00     0.000 HD 
BRANCH  20  22
HETATM   22  C   UNL     1      -9.966  14.362  67.538  1.00  0.00    -0.224 C  
HETATM   23  O   UNL     1      -9.087  13.523  67.713  1.00  0.00    -0.187 OA 
BRANCH  22  24
HETATM   24  N   UNL     1      -9.655  15.590  66.968  1.00  0.00    -0.220 N  
HETATM   25  C   UNL     1      -8.322  16.158  67.059  1.00  0.00    -0.215 C  
HETATM   26  C   UNL     1      -8.572  17.653  67.119  1.00  0.00    -0.238 C  
HETATM   27  C   UNL     1      -9.820  17.862  66.265  1.00  0.00    -0.307 C  
HETATM   28  C   UNL     1     -10.577  16.532  66.324  1.00  0.00    -0.223 C  
BRANCH  28  29
HETATM   29  C   UNL     1     -10.946  16.058  64.907  1.00  0.00    -0.384 C  
HETATM   30  N   UNL     1     -10.589  14.779  64.580  1.00  0.00    -0.564 N  
HETATM   31  O   UNL     1     -11.421  16.813  64.063  1.00  0.00    -1.198 OA 
HETATM   32  H1  UNL     1     -10.834  14.466  63.641  1.00  0.00     0.000 HD 
HETATM   33  H2  UNL     1     -10.104  14.172  65.240  1.00  0.00     0.000 HD 
ENDBRANCH  28  29
ENDBRANCH  22  24
ENDBRANCH  20  22
ENDBRANCH   6  20
TORSDOF 6
ENDMDL
MODEL       29
REMARK 921   NORMALIZED FREE ENERGY PREDICTED BY IDOCK:   -7.05 KCAL/MOL
REMARK 922        TOTAL FREE ENERGY PREDICTED BY IDOCK:  -10.61 KCAL/MOL
REMARK 923 INTER-LIGAND FREE ENERGY PREDICTED BY IDOCK:   -9.71 KCAL/MOL
REMARK 924 INTRA-LIGAND FREE ENERGY PREDICTED BY IDOCK:   -0.91 KCAL/MOL
REMARK 927      BINDING AFFINITY PREDICTED BY RF-SCORE:    0.00 PKD
ROOT
HETATM    1  C   UNL     1     -10.968  10.766  66.890  1.00  0.00    -0.255 C  
HETATM    2  C   UNL     1     -11.182  12.074  67.565  1.00  0.00    -0.294 A  
HETATM    3  C   UNL     1     -11.593  12.345  68.872  1.00  0.00    -0.316 A  
HETATM    4  S   UNL     1     -11.744  14.063  69.039  1.00  0.00    -0.350 SA 
HETATM    5  N   UNL     1     -10.917  13.191  66.782  1.00  0.00    -0.276 NA 
HETATM    6  C   UNL     1     -11.158  14.278  67.457  1.00  0.00    -0.298 A  
ENDROOT
BRANCH   3   7
HETATM    7  C   UNL     1     -11.925  11.466  70.013  1.00  0.00    -0.442 A  
HETATM    8  C   UNL     1     -11.680   9.378  71.257  1.00  0.00    -0.360 A  
HETATM    9  C   UNL     1     -13.155  11.002  72.010  1.00  0.00    -0.344 A  
HETATM   10  C   UNL     1     -11.338  10.195  70.169  1.00  0.00    -0.372 A  
HETATM   11  N   UNL     1     -12.601   9.783  72.162  1.00  0.00    -0.331 NA 
HETATM   12  C   UNL     1     -12.846  11.869  70.978  1.00  0.00    -0.291 A  
BRANCH   8  13
HETATM   13  C   UNL     1     -11.082   7.977  71.446  1.00  0.00    -0.278 C  
HETATM   14  F   UNL     1     -12.328   6.118  72.321  1.00  0.00    -0.368 F  
HETATM   15  C   UNL     1      -9.891   7.745  70.480  1.00  0.00    -0.182 C  
HETATM   16  C   UNL     1     -10.507   7.874  72.877  1.00  0.00    -0.422 C  
HETATM   17  F   UNL     1     -11.760   6.002  70.230  1.00  0.00    -0.417 F  
HETATM   18  F   UNL     1     -13.348   7.341  70.852  1.00  0.00    -0.355 F  
HETATM   19  C   UNL     1     -12.132   6.866  71.205  1.00  0.00    -0.373 C  
ENDBRANCH   8  13
ENDBRANCH   3   7
BRANCH   6  20
HETATM   20  N   UNL     1     -11.015  15.589  67.099  1.00  0.00    -0.317 N  
HETATM   21  H   UNL     1     -11.816  16.211  67.210  1.00  0.00     0.000 HD 
BRANCH  20  22
HETATM   22  C   UNL     1      -9.850  16.114  66.598  1.00  0.00    -0.249 C  
HETATM   23  O   UNL     1      -9.060  15.530  65.861  1.00  0.00    -0.323 OA 
BRANCH  22  24
HETATM   24  N   UNL     1      -9.599  17.420  66.996  1.00  0.00    -0.265 N  
HETATM   25  C   UNL     1     -10.542  18.164  67.813  1.00  0.00    -0.389 C  
HETATM   26  C   UNL     1     -10.375  19.596  67.340  1.00  0.00    -0.581 C  
HETATM   27  C   UNL     1      -8.900  19.699  66.962  1.00  0.00    -0.376 C  
HETATM   28  C   UNL     1      -8.476  18.275  66.594  1.00  0.00    -0.265 C  
BRANCH  28  29
HETATM   29  C   UNL     1      -7.191  17.883  67.345  1.00  0.00    -0.184 C  
HETATM   30  N   UNL     1      -6.376  16.976  66.726  1.00  0.00    -0.198 N  
HETATM   31  O   UNL     1      -6.958  18.257  68.491  1.00  0.00    -0.236 OA 
HETATM   32  H1  UNL     1      -5.524  16.717  67.224  1.00  0.00     0.000 HD 
HETATM   33  H2  UNL     1      -6.608  16.581  65.815  1.00  0.00     0.000 HD 
ENDBRANCH  28  29
ENDBRANCH  22  24
ENDBRANCH  20  22
ENDBRANCH   6  20
TORSDOF 6
ENDMDL
MODEL       30
REMARK 921   NORMALIZED FREE ENERGY PREDICTED BY IDOCK:   -7.05 KCAL/MOL
REMARK 922        TOTAL FREE ENERGY PREDICTED BY IDOCK:  -10.61 KCAL/MOL
REMARK 923 INTER-LIGAND FREE ENERGY PREDICTED BY IDOCK:   -9.82 KCAL/MOL
REMARK 924 INTRA-LIGAND FREE ENERGY PREDICTED BY IDOCK:   -0.79 KCAL/MOL
REMARK 927      BINDING AFFINITY PREDICTED BY RF-SCORE:    0.00 PKD
ROOT
HETATM    1  C   UNL     1     -13.396  14.210  71.797  1.00  0.00    -0.459 C  
HETATM    2  C   UNL     1     -13.017  12.827  71.402  1.00  0.00    -0.266 A  
HETATM    3  C   UNL     1     -12.325  12.382  70.272  1.00  0.00    -0.188 A  
HETATM    4  S   UNL     1     -12.269  10.651  70.328  1.00  0.00    -0.336 SA 
HETATM    5  N   UNL     1     -13.392  11.833  72.298  1.00  0.00    -0.303 NA 
HETATM    6  C   UNL     1     -13.036  10.666  71.846  1.00  0.00    -0.458 A  
ENDROOT
BRANCH   3   7
HETATM    7  C   UNL     1     -11.725  13.098  69.127  1.00  0.00    -0.376 A  
HETATM    8  C   UNL     1     -11.197  13.284  66.749  1.00  0.00    -0.304 A  
HETATM    9  C   UNL     1     -10.487  14.931  68.221  1.00  0.00    -0.239 A  
HETATM   10  C   UNL     1     -11.784  12.587  67.816  1.00  0.00    -0.419 A  
HETATM   11  N   UNL     1     -10.536  14.446  66.964  1.00  0.00    -0.272 NA 
HETATM   12  C   UNL     1     -11.066  14.312  69.312  1.00  0.00    -0.297 A  
BRANCH   8  13
HETATM   13  C   UNL     1     -11.218  12.746  65.312  1.00  0.00    -0.328 C  
HETATM   14  F   UNL     1     -13.215  11.973  64.222  1.00  0.00    -0.509 F  
HETATM   15  C   UNL     1     -10.039  13.323  64.485  1.00  0.00    -0.241 C  
HETATM   16  C   UNL     1     -11.012  11.216  65.353  1.00  0.00    -0.151 C  
HETATM   17  F   UNL     1     -12.339  13.804  63.451  1.00  0.00    -0.543 F  
HETATM   18  F   UNL     1     -13.396  13.818  65.344  1.00  0.00    -0.445 F  
HETATM   19  C   UNL     1     -12.540  13.094  64.588  1.00  0.00    -0.322 C  
ENDBRANCH   8  13
ENDBRANCH   3   7
BRANCH   6  20
HETATM   20  N   UNL     1     -13.177   9.424  72.401  1.00  0.00    -0.504 N  
HETATM   21  H   UNL     1     -13.517   9.360  73.361  1.00  0.00     0.000 HD 
BRANCH  20  22
HETATM   22  C   UNL     1     -12.886   8.260  71.736  1.00  0.00    -0.338 C  
HETATM   23  O   UNL     1     -13.681   7.588  71.086  1.00  0.00    -0.285 OA 
BRANCH  22  24
HETATM   24  N   UNL     1     -11.561   7.859  71.849  1.00  0.00    -0.277 N  
HETATM   25  C   UNL     1     -10.905   7.743  73.140  1.00  0.00    -0.339 C  
HETATM   26  C   UNL     1      -9.466   8.120  72.847  1.00  0.00    -0.345 C  
HETATM   27  C   UNL     1      -9.227   7.623  71.424  1.00  0.00    -0.152 C  
HETATM   28  C   UNL     1     -10.607   7.617  70.761  1.00  0.00    -0.221 C  
BRANCH  28  29
HETATM   29  C   UNL     1     -10.877   6.261  70.085  1.00  0.00    -0.313 C  
HETATM   30  N   UNL     1     -10.342   5.160  70.694  1.00  0.00    -0.251 N  
HETATM   31  O   UNL     1     -11.430   6.168  68.993  1.00  0.00    -0.340 OA 
HETATM   32  H1  UNL     1     -10.521   4.261  70.246  1.00  0.00     0.000 HD 
HETATM   33  H2  UNL     1      -9.794   5.234  71.551  1.00  0.00     0.000 HD 
ENDBRANCH  28  29
ENDBRANCH  22  24
ENDBRANCH  20  22
ENDBRANCH   6  20
TORSDOF 6
ENDMDL
MODEL       31
REMARK 921   NORMALIZED FREE ENERGY PREDICTED BY IDOCK:   -7.04 KCAL/MOL
REMARK 922        TOTAL FREE ENERGY PREDICTED BY IDOCK:  -10.60 KCAL/MOL
REMARK 923 INTER-LIGAND FREE ENERGY PREDICTED BY IDOCK:   -9.70 KCAL/MOL
REMARK 924 INTRA-LIGAND FREE ENERGY PREDICTED BY IDOCK:   -0.90 KCAL/MOL
REMARK 927      BINDING AFFINITY PREDICTED BY RF-SCORE:    0.00 PKD
ROOT
HETATM    1  C   UNL     1     -12.486  15.188  70.409  1.00  0.00    -0.416 C  
HETATM    2  C   UNL     1     -11.985  14.472  69.205  1.00  0.00    -0.319 A  
HETATM    3  C   UNL     1     -11.744  13.109  69.015  1.00  0.00    -0.321 A  
HETATM    4  S   UNL     1     -11.080  12.899  67.428  1.00  0.00    -0.286 SA 
HETATM    5  N   UNL     1     -11.736  15.278  68.101  1.00  0.00    -0.330 NA 
HETATM    6  C   UNL     1     -11.280  14.560  67.116  1.00  0.00    -0.333 A  
ENDROOT
BRANCH   3   7
HETATM    7  C   UNL     1     -11.918  11.936  69.898  1.00  0.00    -0.398 A  
HETATM    8  C   UNL     1     -11.437   9.621  70.512  1.00  0.00    -0.285 A  
HETATM    9  C   UNL     1     -12.934  10.862  71.776  1.00  0.00    -0.451 A  
HETATM   10  C   UNL     1     -11.244  10.721  69.663  1.00  0.00    -0.355 A  
HETATM   11  N   UNL     1     -12.296   9.696  71.555  1.00  0.00    -0.364 NA 
HETATM   12  C   UNL     1     -12.771  11.993  70.998  1.00  0.00    -0.337 A  
BRANCH   8  13
HETATM   13  C   UNL     1     -10.741   8.274  70.273  1.00  0.00    -0.237 C  
HETATM   14  F   UNL     1      -8.354   7.997  70.311  1.00  0.00    -0.115 F  
HETATM   15  C   UNL     1     -11.679   7.092  70.631  1.00  0.00    -0.384 C  
HETATM   16  C   UNL     1     -10.428   8.139  68.766  1.00  0.00    -0.198 C  
HETATM   17  F   UNL     1      -9.462   7.060  71.926  1.00  0.00    -0.143 F  
HETATM   18  F   UNL     1      -9.197   9.212  71.895  1.00  0.00    -0.320 F  
HETATM   19  C   UNL     1      -9.445   8.141  71.108  1.00  0.00    -0.157 C  
ENDBRANCH   8  13
ENDBRANCH   3   7
BRANCH   6  20
HETATM   20  N   UNL     1     -10.929  14.924  65.846  1.00  0.00    -0.331 N  
HETATM   21  H   UNL     1     -10.940  14.210  65.118  1.00  0.00     0.000 HD 
BRANCH  20  22
HETATM   22  C   UNL     1     -10.562  16.200  65.499  1.00  0.00    -0.377 C  
HETATM   23  O   UNL     1     -11.085  16.882  64.622  1.00  0.00    -0.934 OA 
BRANCH  22  24
HETATM   24  N   UNL     1      -9.501  16.706  66.237  1.00  0.00    -0.281 N  
HETATM   25  C   UNL     1      -8.203  16.053  66.255  1.00  0.00    -0.184 C  
HETATM   26  C   UNL     1      -7.683  16.327  67.654  1.00  0.00    -0.161 C  
HETATM   27  C   UNL     1      -8.248  17.700  68.005  1.00  0.00    -0.242 C  
HETATM   28  C   UNL     1      -9.523  17.839  67.169  1.00  0.00    -0.265 C  
BRANCH  28  29
HETATM   29  C   UNL     1      -9.526  19.177  66.407  1.00  0.00    -0.354 C  
HETATM   30  N   UNL     1     -10.697  19.883  66.420  1.00  0.00    -0.415 N  
HETATM   31  O   UNL     1      -8.579  19.543  65.716  1.00  0.00    -0.407 OA 
HETATM   32  H1  UNL     1     -10.699  20.769  65.915  1.00  0.00     0.000 HD 
HETATM   33  H2  UNL     1     -11.524  19.540  66.908  1.00  0.00     0.000 HD 
ENDBRANCH  28  29
ENDBRANCH  22  24
ENDBRANCH  20  22
ENDBRANCH   6  20
TORSDOF 6
ENDMDL
MODEL       32
REMARK 921   NORMALIZED FREE ENERGY PREDICTED BY IDOCK:   -7.00 KCAL/MOL
REMARK 922        TOTAL FREE ENERGY PREDICTED BY IDOCK:  -10.55 KCAL/MOL
REMARK 923 INTER-LIGAND FREE ENERGY PREDICTED BY IDOCK:   -9.01 KCAL/MOL
REMARK 924 INTRA-LIGAND FREE ENERGY PREDICTED BY IDOCK:   -1.53 KCAL/MOL
REMARK 927      BINDING AFFINITY PREDICTED BY RF-SCORE:    0.00 PKD
ROOT
HETATM    1  C   UNL     1     -12.561  13.755  71.752  1.00  0.00    -0.319 C  
HETATM    2  C   UNL     1     -12.266  13.070  70.465  1.00  0.00    -0.313 A  
HETATM    3  C   UNL     1     -12.106  11.708  70.198  1.00  0.00    -0.333 A  
HETATM    4  S   UNL     1     -11.688  11.537  68.525  1.00  0.00    -0.296 SA 
HETATM    5  N   UNL     1     -12.149  13.909  69.363  1.00  0.00    -0.339 NA 
HETATM    6  C   UNL     1     -11.867  13.213  68.300  1.00  0.00    -0.349 A  
ENDROOT
BRANCH   3   7
HETATM    7  C   UNL     1     -12.195  10.508  71.058  1.00  0.00    -0.505 A  
HETATM    8  C   UNL     1     -11.215   8.508  72.060  1.00  0.00    -0.348 A  
HETATM    9  C   UNL     1     -13.436   9.036  72.475  1.00  0.00    -0.429 A  
HETATM   10  C   UNL     1     -11.099   9.645  71.247  1.00  0.00    -0.426 A  
HETATM   11  N   UNL     1     -12.392   8.203  72.656  1.00  0.00    -0.250 NA 
HETATM   12  C   UNL     1     -13.384  10.186  71.709  1.00  0.00    -0.485 A  
BRANCH   8  13
HETATM   13  C   UNL     1     -10.051   7.530  72.269  1.00  0.00    -0.244 C  
HETATM   14  F   UNL     1     -10.287   5.144  72.104  1.00  0.00    -0.231 F  
HETATM   15  C   UNL     1      -8.690   8.212  71.970  1.00  0.00    -0.221 C  
HETATM   16  C   UNL     1     -10.013   7.118  73.758  1.00  0.00    -0.373 C  
HETATM   17  F   UNL     1      -9.107   6.109  70.558  1.00  0.00    -0.146 F  
HETATM   18  F   UNL     1     -11.267   6.307  70.561  1.00  0.00    -0.317 F  
HETATM   19  C   UNL     1     -10.181   6.280  71.367  1.00  0.00    -0.201 C  
ENDBRANCH   8  13
ENDBRANCH   3   7
BRANCH   6  20
HETATM   20  N   UNL     1     -11.691  13.614  67.005  1.00  0.00    -0.362 N  
HETATM   21  H   UNL     1     -12.514  13.881  66.465  1.00  0.00     0.000 HD 
BRANCH  20  22
HETATM   22  C   UNL     1     -10.465  13.675  66.392  1.00  0.00    -0.288 C  
HETATM   23  O   UNL     1      -9.998  12.828  65.636  1.00  0.00    -0.269 OA 
BRANCH  22  24
HETATM   24  N   UNL     1      -9.735  14.817  66.696  1.00  0.00    -0.255 N  
HETATM   25  C   UNL     1     -10.286  16.148  66.507  1.00  0.00    -0.308 C  
HETATM   26  C   UNL     1      -9.079  16.986  66.131  1.00  0.00    -0.239 C  
HETATM   27  C   UNL     1      -7.925  16.354  66.904  1.00  0.00    -0.269 C  
HETATM   28  C   UNL     1      -8.331  14.893  67.115  1.00  0.00    -0.221 C  
BRANCH  28  29
HETATM   29  C   UNL     1      -8.177  14.498  68.595  1.00  0.00    -0.152 C  
HETATM   30  N   UNL     1      -8.966  15.166  69.489  1.00  0.00    -0.421 N  
HETATM   31  O   UNL     1      -7.309  13.720  68.981  1.00  0.00    -0.105 OA 
HETATM   32  H1  UNL     1      -8.863  14.903  70.470  1.00  0.00     0.000 HD 
HETATM   33  H2  UNL     1      -9.622  15.887  69.192  1.00  0.00     0.000 HD 
ENDBRANCH  28  29
ENDBRANCH  22  24
ENDBRANCH  20  22
ENDBRANCH   6  20
TORSDOF 6
ENDMDL
MODEL       33
REMARK 921   NORMALIZED FREE ENERGY PREDICTED BY IDOCK:   -6.99 KCAL/MOL
REMARK 922        TOTAL FREE ENERGY PREDICTED BY IDOCK:  -10.53 KCAL/MOL
REMARK 923 INTER-LIGAND FREE ENERGY PREDICTED BY IDOCK:   -9.38 KCAL/MOL
REMARK 924 INTRA-LIGAND FREE ENERGY PREDICTED BY IDOCK:   -1.15 KCAL/MOL
REMARK 927      BINDING AFFINITY PREDICTED BY RF-SCORE:    0.00 PKD
ROOT
HETATM    1  C   UNL     1     -13.251  11.302  71.819  1.00  0.00    -0.480 C  
HETATM    2  C   UNL     1     -12.186  10.706  70.969  1.00  0.00    -0.393 A  
HETATM    3  C   UNL     1     -11.525  11.243  69.861  1.00  0.00    -0.293 A  
HETATM    4  S   UNL     1     -10.451  10.033  69.241  1.00  0.00    -0.241 SA 
HETATM    5  N   UNL     1     -11.777   9.431  71.343  1.00  0.00    -0.349 NA 
HETATM    6  C   UNL     1     -10.865   8.995  70.523  1.00  0.00    -0.251 A  
ENDROOT
BRANCH   3   7
HETATM    7  C   UNL     1     -11.625  12.553  69.182  1.00  0.00    -0.375 A  
HETATM    8  C   UNL     1     -11.374  13.973  67.211  1.00  0.00    -0.330 A  
HETATM    9  C   UNL     1     -12.105  14.894  69.211  1.00  0.00    -0.251 A  
HETATM   10  C   UNL     1     -11.279  12.716  67.827  1.00  0.00    -0.319 A  
HETATM   11  N   UNL     1     -11.772  15.059  67.915  1.00  0.00    -0.331 NA 
HETATM   12  C   UNL     1     -12.061  13.681  69.873  1.00  0.00    -0.406 A  
BRANCH   8  13
HETATM   13  C   UNL     1     -10.981  14.196  65.744  1.00  0.00    -0.301 C  
HETATM   14  F   UNL     1     -12.131  13.170  63.900  1.00  0.00    -0.425 F  
HETATM   15  C   UNL     1     -10.251  15.552  65.563  1.00  0.00    -0.415 C  
HETATM   16  C   UNL     1      -9.973  13.101  65.330  1.00  0.00    -0.203 C  
HETATM   17  F   UNL     1     -12.346  15.321  64.097  1.00  0.00    -0.502 F  
HETATM   18  F   UNL     1     -13.384  13.995  65.463  1.00  0.00    -0.514 F  
HETATM   19  C   UNL     1     -12.214  14.176  64.809  1.00  0.00    -0.440 C  
ENDBRANCH   8  13
ENDBRANCH   3   7
BRANCH   6  20
HETATM   20  N   UNL     1     -10.170   7.818  70.521  1.00  0.00    -0.200 N  
HETATM   21  H   UNL     1      -9.164   7.851  70.690  1.00  0.00     0.000 HD 
BRANCH  20  22
HETATM   22  C   UNL     1     -10.752   6.595  70.306  1.00  0.00    -0.246 C  
HETATM   23  O   UNL     1     -11.773   6.181  70.849  1.00  0.00    -0.282 OA 
BRANCH  22  24
HETATM   24  N   UNL     1     -10.081   5.801  69.385  1.00  0.00    -0.194 N  
HETATM   25  C   UNL     1      -9.764   4.411  69.663  1.00  0.00    -0.219 C  
HETATM   26  C   UNL     1      -8.448   4.191  68.940  1.00  0.00    -0.099 C  
HETATM   27  C   UNL     1      -8.537   5.094  67.712  1.00  0.00    -0.103 C  
HETATM   28  C   UNL     1      -9.497   6.219  68.106  1.00  0.00    -0.113 C  
BRANCH  28  29
HETATM   29  C   UNL     1     -10.589   6.397  67.036  1.00  0.00    -0.327 C  
HETATM   30  N   UNL     1     -10.869   5.304  66.264  1.00  0.00    -0.677 N  
HETATM   31  O   UNL     1     -11.099   7.487  66.790  1.00  0.00    -0.094 OA 
HETATM   32  H1  UNL     1     -11.593   5.422  65.555  1.00  0.00     0.000 HD 
HETATM   33  H2  UNL     1     -10.381   4.418  66.391  1.00  0.00     0.000 HD 
ENDBRANCH  28  29
ENDBRANCH  22  24
ENDBRANCH  20  22
ENDBRANCH   6  20
TORSDOF 6
ENDMDL
MODEL       34
REMARK 921   NORMALIZED FREE ENERGY PREDICTED BY IDOCK:   -6.95 KCAL/MOL
REMARK 922        TOTAL FREE ENERGY PREDICTED BY IDOCK:  -10.48 KCAL/MOL
REMARK 923 INTER-LIGAND FREE ENERGY PREDICTED BY IDOCK:   -9.93 KCAL/MOL
REMARK 924 INTRA-LIGAND FREE ENERGY PREDICTED BY IDOCK:   -0.56 KCAL/MOL
REMARK 927      BINDING AFFINITY PREDICTED BY RF-SCORE:    0.00 PKD
ROOT
HETATM    1  C   UNL     1     -12.552  12.378  64.690  1.00  0.00    -0.459 C  
HETATM    2  C   UNL     1     -12.004  12.786  66.011  1.00  0.00    -0.432 A  
HETATM    3  C   UNL     1     -11.204  12.067  66.903  1.00  0.00    -0.320 A  
HETATM    4  S   UNL     1     -10.966  13.045  68.314  1.00  0.00    -0.273 SA 
HETATM    5  N   UNL     1     -12.321  14.079  66.408  1.00  0.00    -0.461 NA 
HETATM    6  C   UNL     1     -11.816  14.324  67.582  1.00  0.00    -0.385 A  
ENDROOT
BRANCH   3   7
HETATM    7  C   UNL     1     -10.620  10.710  66.845  1.00  0.00    -0.311 A  
HETATM    8  C   UNL     1     -10.092   8.555  67.864  1.00  0.00    -0.207 A  
HETATM    9  C   UNL     1      -9.426   8.994  65.686  1.00  0.00    -0.203 A  
HETATM   10  C   UNL     1     -10.664   9.833  67.946  1.00  0.00    -0.312 A  
HETATM   11  N   UNL     1      -9.461   8.151  66.737  1.00  0.00    -0.183 NA 
HETATM   12  C   UNL     1      -9.992  10.255  65.687  1.00  0.00    -0.347 A  
BRANCH   8  13
HETATM   13  C   UNL     1     -10.096   7.580  69.051  1.00  0.00    -0.192 C  
HETATM   14  F   UNL     1     -12.036   6.332  69.724  1.00  0.00    -0.479 F  
HETATM   15  C   UNL     1      -8.671   7.038  69.331  1.00  0.00    -0.133 C  
HETATM   16  C   UNL     1     -10.526   8.350  70.320  1.00  0.00    -0.225 C  
HETATM   17  F   UNL     1     -10.394   5.189  68.882  1.00  0.00    -0.259 F  
HETATM   18  F   UNL     1     -11.644   6.407  67.594  1.00  0.00    -0.331 F  
HETATM   19  C   UNL     1     -11.038   6.378  68.804  1.00  0.00    -0.326 C  
ENDBRANCH   8  13
ENDBRANCH   3   7
BRANCH   6  20
HETATM   20  N   UNL     1     -11.854  15.461  68.340  1.00  0.00    -0.503 N  
HETATM   21  H   UNL     1     -12.766  15.839  68.598  1.00  0.00     0.000 HD 
BRANCH  20  22
HETATM   22  C   UNL     1     -10.732  16.121  68.771  1.00  0.00    -0.294 C  
HETATM   23  O   UNL     1      -9.989  15.755  69.678  1.00  0.00    -0.271 OA 
BRANCH  22  24
HETATM   24  N   UNL     1     -10.468  17.300  68.086  1.00  0.00    -0.365 N  
HETATM   25  C   UNL     1      -9.544  18.294  68.604  1.00  0.00    -0.335 C  
HETATM   26  C   UNL     1     -10.129  19.610  68.127  1.00  0.00    -0.556 C  
HETATM   27  C   UNL     1     -10.772  19.274  66.785  1.00  0.00    -0.526 C  
HETATM   28  C   UNL     1     -11.119  17.785  66.864  1.00  0.00     0.330 C  
BRANCH  28  29
HETATM   29  C   UNL     1     -10.588  17.040  65.625  1.00  0.00    -0.197 C  
HETATM   30  N   UNL     1      -9.453  16.299  65.801  1.00  0.00    -0.267 N  
HETATM   31  O   UNL     1     -11.071  17.194  64.507  1.00  0.00    -1.105 OA 
HETATM   32  H1  UNL     1      -9.101  15.805  64.980  1.00  0.00     0.000 HD 
HETATM   33  H2  UNL     1      -8.983  16.242  66.704  1.00  0.00     0.000 HD 
ENDBRANCH  28  29
ENDBRANCH  22  24
ENDBRANCH  20  22
ENDBRANCH   6  20
TORSDOF 6
ENDMDL
MODEL       35
REMARK 921   NORMALIZED FREE ENERGY PREDICTED BY IDOCK:   -6.95 KCAL/MOL
REMARK 922        TOTAL FREE ENERGY PREDICTED BY IDOCK:  -10.48 KCAL/MOL
REMARK 923 INTER-LIGAND FREE ENERGY PREDICTED BY IDOCK:   -9.31 KCAL/MOL
REMARK 924 INTRA-LIGAND FREE ENERGY PREDICTED BY IDOCK:   -1.17 KCAL/MOL
REMARK 927      BINDING AFFINITY PREDICTED BY RF-SCORE:    0.00 PKD
ROOT
HETATM    1  C   UNL     1     -12.654  14.191  65.591  1.00  0.00    -0.495 C  
HETATM    2  C   UNL     1     -11.957  13.368  66.616  1.00  0.00    -0.399 A  
HETATM    3  C   UNL     1     -11.243  13.771  67.747  1.00  0.00    -0.288 A  
HETATM    4  S   UNL     1     -10.588  12.354  68.499  1.00  0.00    -0.222 SA 
HETATM    5  N   UNL     1     -12.044  11.993  66.427  1.00  0.00    -0.537 NA 
HETATM    6  C   UNL     1     -11.383  11.371  67.360  1.00  0.00    -0.288 A  
ENDROOT
BRANCH   3   7
HETATM    7  C   UNL     1     -10.959  15.103  68.321  1.00  0.00    -0.276 A  
HETATM    8  C   UNL     1     -10.024  17.354  68.163  1.00  0.00    -0.308 A  
HETATM    9  C   UNL     1     -11.025  16.657  70.137  1.00  0.00    -0.098 A  
HETATM   10  C   UNL     1     -10.289  16.102  67.589  1.00  0.00    -0.288 A  
HETATM   11  N   UNL     1     -10.380  17.616  69.443  1.00  0.00    -0.165 NA 
HETATM   12  C   UNL     1     -11.342  15.413  69.625  1.00  0.00    -0.315 A  
BRANCH   8  13
HETATM   13  C   UNL     1      -9.274  18.459  67.406  1.00  0.00    -0.275 C  
HETATM   14  F   UNL     1     -10.224  19.674  65.564  1.00  0.00    -0.423 F  
HETATM   15  C   UNL     1      -8.182  19.104  68.299  1.00  0.00    -0.369 C  
HETATM   16  C   UNL     1      -8.534  17.821  66.208  1.00  0.00    -0.225 C  
HETATM   17  F   UNL     1      -9.887  20.796  67.392  1.00  0.00    -0.580 F  
HETATM   18  F   UNL     1     -11.519  19.372  67.275  1.00  0.00    -0.456 F  
HETATM   19  C   UNL     1     -10.230  19.573  66.918  1.00  0.00    -0.426 C  
ENDBRANCH   8  13
ENDBRANCH   3   7
BRANCH   6  20
HETATM   20  N   UNL     1     -11.219  10.032  67.583  1.00  0.00    -0.432 N  
HETATM   21  H   UNL     1     -12.045   9.474  67.796  1.00  0.00     0.000 HD 
BRANCH  20  22
HETATM   22  C   UNL     1     -10.003   9.400  67.534  1.00  0.00    -0.199 C  
HETATM   23  O   UNL     1      -9.181   9.495  66.626  1.00  0.00    -0.143 OA 
BRANCH  22  24
HETATM   24  N   UNL     1      -9.737   8.596  68.634  1.00  0.00    -0.160 N  
HETATM   25  C   UNL     1      -9.462   9.160  69.944  1.00  0.00    -0.186 C  
HETATM   26  C   UNL     1      -8.479   8.181  70.558  1.00  0.00    -0.125 C  
HETATM   27  C   UNL     1      -8.891   6.826  69.988  1.00  0.00    -0.142 C  
HETATM   28  C   UNL     1      -9.573   7.138  68.654  1.00  0.00    -0.140 C  
BRANCH  28  29
HETATM   29  C   UNL     1     -10.937   6.430  68.566  1.00  0.00    -0.319 C  
HETATM   30  N   UNL     1     -11.480   6.306  67.317  1.00  0.00    -0.636 N  
HETATM   31  O   UNL     1     -11.575   6.103  69.563  1.00  0.00    -0.396 OA 
HETATM   32  H1  UNL     1     -12.383   5.836  67.259  1.00  0.00     0.000 HD 
HETATM   33  H2  UNL     1     -11.005   6.663  66.488  1.00  0.00     0.000 HD 
ENDBRANCH  28  29
ENDBRANCH  22  24
ENDBRANCH  20  22
ENDBRANCH   6  20
TORSDOF 6
ENDMDL
MODEL       36
REMARK 921   NORMALIZED FREE ENERGY PREDICTED BY IDOCK:   -6.93 KCAL/MOL
REMARK 922        TOTAL FREE ENERGY PREDICTED BY IDOCK:  -10.46 KCAL/MOL
REMARK 923 INTER-LIGAND FREE ENERGY PREDICTED BY IDOCK:   -9.19 KCAL/MOL
REMARK 924 INTRA-LIGAND FREE ENERGY PREDICTED BY IDOCK:   -1.27 KCAL/MOL
REMARK 927      BINDING AFFINITY PREDICTED BY RF-SCORE:    0.00 PKD
ROOT
HETATM    1  C   UNL     1     -10.105  11.264  64.583  1.00  0.00    -0.343 C  
HETATM    2  C   UNL     1     -10.678  11.564  65.922  1.00  0.00    -0.272 A  
HETATM    3  C   UNL     1     -11.037  12.792  66.483  1.00  0.00    -0.286 A  
HETATM    4  S   UNL     1     -11.564  12.505  68.109  1.00  0.00    -0.355 SA 
HETATM    5  N   UNL     1     -10.907  10.454  66.728  1.00  0.00    -0.169 NA 
HETATM    6  C   UNL     1     -11.384  10.828  67.880  1.00  0.00    -0.299 A  
ENDROOT
BRANCH   3   7
HETATM    7  C   UNL     1     -11.000  14.174  65.959  1.00  0.00    -0.304 A  
HETATM    8  C   UNL     1     -10.362  16.524  66.145  1.00  0.00    -0.334 A  
HETATM    9  C   UNL     1     -11.574  15.800  64.304  1.00  0.00    -0.191 A  
HETATM   10  C   UNL     1     -10.373  15.221  66.662  1.00  0.00    -0.281 A  
HETATM   11  N   UNL     1     -10.979  16.808  64.974  1.00  0.00    -0.579 NA 
HETATM   12  C   UNL     1     -11.599  14.489  64.741  1.00  0.00    -0.414 A  
BRANCH   8  13
HETATM   13  C   UNL     1      -9.712  17.696  66.894  1.00  0.00    -0.292 C  
HETATM   14  F   UNL     1      -7.516  17.586  67.863  1.00  0.00    -0.187 F  
HETATM   15  C   UNL     1     -10.302  19.052  66.426  1.00  0.00    -0.520 C  
HETATM   16  C   UNL     1     -10.050  17.570  68.396  1.00  0.00    -0.358 C  
HETATM   17  F   UNL     1      -7.754  18.902  66.154  1.00  0.00    -0.262 F  
HETATM   18  F   UNL     1      -7.722  16.752  65.874  1.00  0.00    -0.326 F  
HETATM   19  C   UNL     1      -8.179  17.731  66.687  1.00  0.00    -0.259 C  
ENDBRANCH   8  13
ENDBRANCH   3   7
BRANCH   6  20
HETATM   20  N   UNL     1     -11.773  10.083  68.958  1.00  0.00    -0.486 N  
HETATM   21  H   UNL     1     -12.770   9.921  69.098  1.00  0.00     0.000 HD 
BRANCH  20  22
HETATM   22  C   UNL     1     -10.894   9.541  69.861  1.00  0.00    -0.246 C  
HETATM   23  O   UNL     1     -10.139  10.174  70.595  1.00  0.00    -0.076 OA 
BRANCH  22  24
HETATM   24  N   UNL     1     -10.904   8.153  69.899  1.00  0.00    -0.241 N  
HETATM   25  C   UNL     1     -11.851   7.419  70.720  1.00  0.00    -0.258 C  
HETATM   26  C   UNL     1     -11.078   6.183  71.141  1.00  0.00    -0.360 C  
HETATM   27  C   UNL     1     -10.162   5.889  69.957  1.00  0.00    -0.286 C  
HETATM   28  C   UNL     1      -9.951   7.237  69.264  1.00  0.00    -0.170 C  
BRANCH  28  29
HETATM   29  C   UNL     1     -10.226   7.118  67.754  1.00  0.00    -0.184 C  
HETATM   30  N   UNL     1     -11.496   6.765  67.392  1.00  0.00    -0.716 N  
HETATM   31  O   UNL     1      -9.335   7.206  66.913  1.00  0.00    -0.142 OA 
HETATM   32  H1  UNL     1     -11.678   6.686  66.391  1.00  0.00     0.000 HD 
HETATM   33  H2  UNL     1     -12.222   6.590  68.086  1.00  0.00     0.000 HD 
ENDBRANCH  28  29
ENDBRANCH  22  24
ENDBRANCH  20  22
ENDBRANCH   6  20
TORSDOF 6
ENDMDL
MODEL       37
REMARK 921   NORMALIZED FREE ENERGY PREDICTED BY IDOCK:   -6.93 KCAL/MOL
REMARK 922        TOTAL FREE ENERGY PREDICTED BY IDOCK:  -10.45 KCAL/MOL
REMARK 923 INTER-LIGAND FREE ENERGY PREDICTED BY IDOCK:   -9.42 KCAL/MOL
REMARK 924 INTRA-LIGAND FREE ENERGY PREDICTED BY IDOCK:   -1.03 KCAL/MOL
REMARK 927      BINDING AFFINITY PREDICTED BY RF-SCORE:    0.00 PKD
ROOT
HETATM    1  C   UNL     1     -10.093  11.273  64.600  1.00  0.00    -0.343 C  
HETATM    2  C   UNL     1     -10.580  11.550  65.977  1.00  0.00    -0.261 A  
HETATM    3  C   UNL     1     -10.820  12.773  66.608  1.00  0.00    -0.264 A  
HETATM    4  S   UNL     1     -11.290  12.448  68.244  1.00  0.00    -0.310 SA 
HETATM    5  N   UNL     1     -10.852  10.423  66.744  1.00  0.00    -0.169 NA 
HETATM    6  C   UNL     1     -11.246  10.776  67.934  1.00  0.00    -0.318 A  
ENDROOT
BRANCH   3   7
HETATM    7  C   UNL     1     -10.705  14.172  66.143  1.00  0.00    -0.297 A  
HETATM    8  C   UNL     1      -9.856  16.450  66.380  1.00  0.00    -0.294 A  
HETATM    9  C   UNL     1     -11.261  15.921  64.612  1.00  0.00    -0.351 A  
HETATM   10  C   UNL     1      -9.939  15.127  66.840  1.00  0.00    -0.243 A  
HETATM   11  N   UNL     1     -10.534  16.841  65.276  1.00  0.00    -0.662 NA 
HETATM   12  C   UNL     1     -11.365  14.596  64.992  1.00  0.00    -0.390 A  
BRANCH   8  13
HETATM   13  C   UNL     1      -9.054  17.525  67.126  1.00  0.00    -0.247 C  
HETATM   14  F   UNL     1      -9.632  19.857  67.100  1.00  0.00    -0.388 F  
HETATM   15  C   UNL     1      -8.287  16.915  68.328  1.00  0.00    -0.224 C  
HETATM   16  C   UNL     1      -7.981  18.093  66.169  1.00  0.00    -0.222 C  
HETATM   17  F   UNL     1      -9.871  18.822  68.993  1.00  0.00    -0.376 F  
HETATM   18  F   UNL     1     -11.275  18.472  67.378  1.00  0.00    -0.387 F  
HETATM   19  C   UNL     1      -9.963  18.661  67.651  1.00  0.00    -0.341 C  
ENDBRANCH   8  13
ENDBRANCH   3   7
BRANCH   6  20
HETATM   20  N   UNL     1     -11.639  10.011  68.996  1.00  0.00    -0.489 N  
HETATM   21  H   UNL     1     -12.638   9.902  69.169  1.00  0.00     0.000 HD 
BRANCH  20  22
HETATM   22  C   UNL     1     -10.761   9.381  69.842  1.00  0.00    -0.234 C  
HETATM   23  O   UNL     1      -9.959   9.938  70.586  1.00  0.00    -0.215 OA 
BRANCH  22  24
HETATM   24  N   UNL     1     -10.833   7.995  69.804  1.00  0.00    -0.229 N  
HETATM   25  C   UNL     1     -11.798   7.258  70.602  1.00  0.00    -0.252 C  
HETATM   26  C   UNL     1     -11.074   5.968  70.939  1.00  0.00    -0.352 C  
HETATM   27  C   UNL     1     -10.193   5.700  69.722  1.00  0.00    -0.321 C  
HETATM   28  C   UNL     1      -9.933   7.074  69.100  1.00  0.00    -0.165 C  
BRANCH  28  29
HETATM   29  C   UNL     1     -10.240   7.051  67.591  1.00  0.00    -0.193 C  
HETATM   30  N   UNL     1     -11.535   6.794  67.237  1.00  0.00    -0.729 N  
HETATM   31  O   UNL     1      -9.359   7.132  66.740  1.00  0.00    -0.149 OA 
HETATM   32  H1  UNL     1     -11.738   6.779  66.238  1.00  0.00     0.000 HD 
HETATM   33  H2  UNL     1     -12.259   6.626  67.935  1.00  0.00     0.000 HD 
ENDBRANCH  28  29
ENDBRANCH  22  24
ENDBRANCH  20  22
ENDBRANCH   6  20
TORSDOF 6
ENDMDL
MODEL       38
REMARK 921   NORMALIZED FREE ENERGY PREDICTED BY IDOCK:   -6.88 KCAL/MOL
REMARK 922        TOTAL FREE ENERGY PREDICTED BY IDOCK:  -10.39 KCAL/MOL
REMARK 923 INTER-LIGAND FREE ENERGY PREDICTED BY IDOCK:   -9.18 KCAL/MOL
REMARK 924 INTRA-LIGAND FREE ENERGY PREDICTED BY IDOCK:   -1.21 KCAL/MOL
REMARK 927      BINDING AFFINITY PREDICTED BY RF-SCORE:    0.00 PKD
ROOT
HETATM    1  C   UNL     1     -12.280  15.045  64.081  1.00  0.00    -0.234 C  
HETATM    2  C   UNL     1     -11.497  14.025  64.829  1.00  0.00    -0.369 A  
HETATM    3  C   UNL     1     -10.840  14.132  66.057  1.00  0.00    -0.297 A  
HETATM    4  S   UNL     1     -10.029  12.631  66.362  1.00  0.00    -0.259 SA 
HETATM    5  N   UNL     1     -11.423  12.777  64.223  1.00  0.00    -0.349 NA 
HETATM    6  C   UNL     1     -10.699  11.971  64.944  1.00  0.00    -0.301 A  
ENDROOT
BRANCH   3   7
HETATM    7  C   UNL     1     -10.714  15.242  67.025  1.00  0.00    -0.313 A  
HETATM    8  C   UNL     1      -9.907  17.459  67.656  1.00  0.00    -0.282 A  
HETATM    9  C   UNL     1     -11.109  16.193  69.183  1.00  0.00    -0.329 A  
HETATM   10  C   UNL     1     -10.018  16.427  66.714  1.00  0.00    -0.277 A  
HETATM   11  N   UNL     1     -10.441  17.327  68.893  1.00  0.00    -0.342 NA 
HETATM   12  C   UNL     1     -11.281  15.147  68.295  1.00  0.00    -0.315 A  
BRANCH   8  13
HETATM   13  C   UNL     1      -9.135  18.753  67.363  1.00  0.00    -0.293 C  
HETATM   14  F   UNL     1      -9.722  20.267  65.592  1.00  0.00    -0.466 F  
HETATM   15  C   UNL     1      -8.406  19.266  68.632  1.00  0.00    -0.407 C  
HETATM   16  C   UNL     1      -8.033  18.446  66.324  1.00  0.00    -0.264 C  
HETATM   17  F   UNL     1     -10.019  20.987  67.618  1.00  0.00    -0.566 F  
HETATM   18  F   UNL     1     -11.367  19.508  66.780  1.00  0.00    -0.439 F  
HETATM   19  C   UNL     1     -10.066  19.874  66.845  1.00  0.00    -0.450 C  
ENDBRANCH   8  13
ENDBRANCH   3   7
BRANCH   6  20
HETATM   20  N   UNL     1     -10.382  10.656  64.750  1.00  0.00    -0.327 N  
HETATM   21  H   UNL     1     -11.004  10.089  64.173  1.00  0.00     0.000 HD 
BRANCH  20  22
HETATM   22  C   UNL     1      -9.272  10.057  65.288  1.00  0.00    -0.218 C  
HETATM   23  O   UNL     1      -8.109  10.411  65.112  1.00  0.00    -0.153 OA 
BRANCH  22  24
HETATM   24  N   UNL     1      -9.553   8.958  66.091  1.00  0.00    -0.254 N  
HETATM   25  C   UNL     1      -8.732   7.761  66.061  1.00  0.00    -0.161 C  
HETATM   26  C   UNL     1      -9.720   6.642  66.331  1.00  0.00    -0.128 C  
HETATM   27  C   UNL     1     -10.752   7.266  67.266  1.00  0.00    -0.391 C  
HETATM   28  C   UNL     1     -10.718   8.766  66.962  1.00  0.00    -0.116 C  
BRANCH  28  29
HETATM   29  C   UNL     1     -10.571   9.578  68.262  1.00  0.00    -0.216 C  
HETATM   30  N   UNL     1     -11.677  10.265  68.679  1.00  0.00    -0.512 N  
HETATM   31  O   UNL     1      -9.494   9.713  68.836  1.00  0.00    -0.150 OA 
HETATM   32  H1  UNL     1     -11.580  10.803  69.540  1.00  0.00     0.000 HD 
HETATM   33  H2  UNL     1     -12.552  10.242  68.156  1.00  0.00     0.000 HD 
ENDBRANCH  28  29
ENDBRANCH  22  24
ENDBRANCH  20  22
ENDBRANCH   6  20
TORSDOF 6
ENDMDL
MODEL       39
REMARK 921   NORMALIZED FREE ENERGY PREDICTED BY IDOCK:   -6.88 KCAL/MOL
REMARK 922        TOTAL FREE ENERGY PREDICTED BY IDOCK:  -10.38 KCAL/MOL
REMARK 923 INTER-LIGAND FREE ENERGY PREDICTED BY IDOCK:   -9.51 KCAL/MOL
REMARK 924 INTRA-LIGAND FREE ENERGY PREDICTED BY IDOCK:   -0.88 KCAL/MOL
REMARK 927      BINDING AFFINITY PREDICTED BY RF-SCORE:    0.00 PKD
ROOT
HETATM    1  C   UNL     1      -5.661  13.376  67.829  1.00  0.00    -0.112 C  
HETATM    2  C   UNL     1      -7.131  13.529  67.664  1.00  0.00    -0.168 A  
HETATM    3  C   UNL     1      -7.889  14.684  67.456  1.00  0.00    -0.193 A  
HETATM    4  S   UNL     1      -9.561  14.230  67.432  1.00  0.00    -0.219 SA 
HETATM    5  N   UNL     1      -7.856  12.343  67.706  1.00  0.00    -0.141 NA 
HETATM    6  C   UNL     1      -9.127  12.591  67.577  1.00  0.00    -0.187 A  
ENDROOT
BRANCH   3   7
HETATM    7  C   UNL     1      -7.514  16.106  67.306  1.00  0.00    -0.219 A  
HETATM    8  C   UNL     1      -8.070  18.484  67.304  1.00  0.00    -0.241 A  
HETATM    9  C   UNL     1      -5.903  17.807  66.828  1.00  0.00    -0.160 A  
HETATM   10  C   UNL     1      -8.453  17.144  67.461  1.00  0.00    -0.206 A  
HETATM   11  N   UNL     1      -6.798  18.805  66.971  1.00  0.00    -0.200 NA 
HETATM   12  C   UNL     1      -6.205  16.468  66.995  1.00  0.00    -0.193 A  
BRANCH   8  13
HETATM   13  C   UNL     1      -9.070  19.641  67.439  1.00  0.00    -0.392 C  
HETATM   14  F   UNL     1     -10.290  20.555  65.581  1.00  0.00    -0.440 F  
HETATM   15  C   UNL     1      -9.651  19.710  68.876  1.00  0.00    -0.421 C  
HETATM   16  C   UNL     1      -8.320  20.972  67.210  1.00  0.00    -0.017 C  
HETATM   17  F   UNL     1     -11.450  19.470  67.060  1.00  0.00    -0.431 F  
HETATM   18  F   UNL     1     -10.176  18.393  65.675  1.00  0.00    -0.312 F  
HETATM   19  C   UNL     1     -10.245  19.505  66.442  1.00  0.00    -0.479 C  
ENDBRANCH   8  13
ENDBRANCH   3   7
BRANCH   6  20
HETATM   20  N   UNL     1     -10.193  11.737  67.536  1.00  0.00    -0.194 N  
HETATM   21  H   UNL     1     -10.239  10.987  68.226  1.00  0.00     0.000 HD 
BRANCH  20  22
HETATM   22  C   UNL     1     -11.205  11.833  66.614  1.00  0.00    -0.323 C  
HETATM   23  O   UNL     1     -12.374  12.119  66.860  1.00  0.00    -0.402 OA 
BRANCH  22  24
HETATM   24  N   UNL     1     -10.811  11.570  65.309  1.00  0.00    -0.280 N  
HETATM   25  C   UNL     1     -10.275  10.277  64.919  1.00  0.00    -0.191 C  
HETATM   26  C   UNL     1      -9.272  10.618  63.833  1.00  0.00    -0.271 C  
HETATM   27  C   UNL     1      -9.869  11.837  63.136  1.00  0.00    -0.363 C  
HETATM   28  C   UNL     1     -10.748  12.516  64.189  1.00  0.00    -0.391 C  
BRANCH  28  29
HETATM   29  C   UNL     1     -12.153  12.793  63.624  1.00  0.00    -0.543 C  
HETATM   30  N   UNL     1     -12.441  14.094  63.319  1.00  0.00    -1.098 N  
HETATM   31  O   UNL     1     -13.021  11.927  63.564  1.00  0.00    -0.724 OA 
HETATM   32  H1  UNL     1     -13.372  14.278  62.945  1.00  0.00     0.000 HD 
HETATM   33  H2  UNL     1     -11.761  14.841  63.459  1.00  0.00     0.000 HD 
ENDBRANCH  28  29
ENDBRANCH  22  24
ENDBRANCH  20  22
ENDBRANCH   6  20
TORSDOF 6
ENDMDL
MODEL       40
REMARK 921   NORMALIZED FREE ENERGY PREDICTED BY IDOCK:   -6.87 KCAL/MOL
REMARK 922        TOTAL FREE ENERGY PREDICTED BY IDOCK:  -10.38 KCAL/MOL
REMARK 923 INTER-LIGAND FREE ENERGY PREDICTED BY IDOCK:   -9.25 KCAL/MOL
REMARK 924 INTRA-LIGAND FREE ENERGY PREDICTED BY IDOCK:   -1.13 KCAL/MOL
REMARK 927      BINDING AFFINITY PREDICTED BY RF-SCORE:    0.00 PKD
ROOT
HETATM    1  C   UNL     1     -12.093  14.285  65.560  1.00  0.00    -0.397 C  
HETATM    2  C   UNL     1     -11.487  13.549  66.701  1.00  0.00    -0.339 A  
HETATM    3  C   UNL     1     -10.359  13.861  67.464  1.00  0.00    -0.245 A  
HETATM    4  S   UNL     1     -10.103  12.571  68.593  1.00  0.00    -0.065 SA 
HETATM    5  N   UNL     1     -12.153  12.387  67.074  1.00  0.00    -0.529 NA 
HETATM    6  C   UNL     1     -11.528  11.810  68.060  1.00  0.00    -0.319 A  
ENDROOT
BRANCH   3   7
HETATM    7  C   UNL     1      -9.417  15.000  67.428  1.00  0.00    -0.202 A  
HETATM    8  C   UNL     1      -8.945  17.396  67.449  1.00  0.00    -0.231 A  
HETATM    9  C   UNL     1      -7.202  15.879  67.248  1.00  0.00    -0.216 A  
HETATM   10  C   UNL     1      -9.861  16.335  67.496  1.00  0.00    -0.238 A  
HETATM   11  N   UNL     1      -7.620  17.159  67.308  1.00  0.00    -0.161 NA 
HETATM   12  C   UNL     1      -8.045  14.786  67.315  1.00  0.00    -0.232 A  
BRANCH   8  13
HETATM   13  C   UNL     1      -9.393  18.864  67.495  1.00  0.00    -0.327 C  
HETATM   14  F   UNL     1      -9.990  20.122  65.536  1.00  0.00    -0.476 F  
HETATM   15  C   UNL     1     -10.000  19.219  68.877  1.00  0.00    -0.495 C  
HETATM   16  C   UNL     1      -8.149  19.765  67.323  1.00  0.00    -0.327 C  
HETATM   17  F   UNL     1     -11.599  19.662  66.918  1.00  0.00    -0.281 F  
HETATM   18  F   UNL     1     -10.777  18.106  65.650  1.00  0.00    -0.427 F  
HETATM   19  C   UNL     1     -10.442  19.179  66.403  1.00  0.00    -0.463 C  
ENDBRANCH   8  13
ENDBRANCH   3   7
BRANCH   6  20
HETATM   20  N   UNL     1     -11.835  10.673  68.754  1.00  0.00    -0.505 N  
HETATM   21  H   UNL     1     -11.900   9.795  68.239  1.00  0.00     0.000 HD 
BRANCH  20  22
HETATM   22  C   UNL     1     -12.060  10.649  70.107  1.00  0.00    -0.333 C  
HETATM   23  O   UNL     1     -12.732  11.462  70.736  1.00  0.00    -0.314 OA 
BRANCH  22  24
HETATM   24  N   UNL     1     -11.445   9.593  70.766  1.00  0.00    -0.302 N  
HETATM   25  C   UNL     1     -12.197   8.440  71.230  1.00  0.00    -0.277 C  
HETATM   26  C   UNL     1     -11.468   8.021  72.493  1.00  0.00    -0.471 C  
HETATM   27  C   UNL     1     -10.007   8.364  72.217  1.00  0.00    -0.383 C  
HETATM   28  C   UNL     1     -10.045   9.505  71.197  1.00  0.00    -0.192 C  
BRANCH  28  29
HETATM   29  C   UNL     1      -9.121   9.195  70.005  1.00  0.00    -0.192 C  
HETATM   30  N   UNL     1      -7.838   9.660  70.092  1.00  0.00    -0.160 N  
HETATM   31  O   UNL     1      -9.532   8.672  68.973  1.00  0.00    -0.152 OA 
HETATM   32  H1  UNL     1      -7.227   9.454  69.302  1.00  0.00     0.000 HD 
HETATM   33  H2  UNL     1      -7.511  10.184  70.903  1.00  0.00     0.000 HD 
ENDBRANCH  28  29
ENDBRANCH  22  24
ENDBRANCH  20  22
ENDBRANCH   6  20
TORSDOF 6
ENDMDL
MODEL       41
REMARK 921   NORMALIZED FREE ENERGY PREDICTED BY IDOCK:   -6.87 KCAL/MOL
REMARK 922        TOTAL FREE ENERGY PREDICTED BY IDOCK:  -10.37 KCAL/MOL
REMARK 923 INTER-LIGAND FREE ENERGY PREDICTED BY IDOCK:   -9.21 KCAL/MOL
REMARK 924 INTRA-LIGAND FREE ENERGY PREDICTED BY IDOCK:   -1.16 KCAL/MOL
REMARK 927      BINDING AFFINITY PREDICTED BY RF-SCORE:    0.00 PKD
ROOT
HETATM    1  C   UNL     1     -12.559  10.138  71.496  1.00  0.00    -0.537 C  
HETATM    2  C   UNL     1     -11.680  10.419  70.329  1.00  0.00    -0.321 A  
HETATM    3  C   UNL     1     -10.934   9.537  69.544  1.00  0.00    -0.195 A  
HETATM    4  S   UNL     1     -10.042  10.472  68.389  1.00  0.00    -0.172 SA 
HETATM    5  N   UNL     1     -11.604  11.755  69.956  1.00  0.00    -0.275 NA 
HETATM    6  C   UNL     1     -10.794  11.893  68.947  1.00  0.00    -0.221 A  
ENDROOT
BRANCH   3   7
HETATM    7  C   UNL     1     -10.777   8.067  69.573  1.00  0.00    -0.185 A  
HETATM    8  C   UNL     1     -10.332   5.979  70.759  1.00  0.00    -0.224 A  
HETATM    9  C   UNL     1     -10.718   5.946  68.472  1.00  0.00    -0.255 A  
HETATM   10  C   UNL     1     -10.485   7.373  70.763  1.00  0.00    -0.221 A  
HETATM   11  N   UNL     1     -10.434   5.276  69.606  1.00  0.00    -0.284 NA 
HETATM   12  C   UNL     1     -10.908   7.314  68.408  1.00  0.00    -0.109 A  
BRANCH   8  13
HETATM   13  C   UNL     1      -9.987   5.190  72.030  1.00  0.00    -0.240 C  
HETATM   14  F   UNL     1     -10.808   5.779  74.210  1.00  0.00    -0.250 F  
HETATM   15  C   UNL     1      -9.624   3.721  71.693  1.00  0.00    -0.227 C  
HETATM   16  C   UNL     1      -8.726   5.813  72.671  1.00  0.00    -0.119 C  
HETATM   17  F   UNL     1     -11.568   3.934  73.356  1.00  0.00    -0.331 F  
HETATM   18  F   UNL     1     -12.254   5.846  72.598  1.00  0.00    -0.291 F  
HETATM   19  C   UNL     1     -11.159   5.186  73.040  1.00  0.00    -0.314 C  
ENDBRANCH   8  13
ENDBRANCH   3   7
BRANCH   6  20
HETATM   20  N   UNL     1     -10.442  13.011  68.244  1.00  0.00    -0.244 N  
HETATM   21  H   UNL     1      -9.465  13.303  68.259  1.00  0.00     0.000 HD 
BRANCH  20  22
HETATM   22  C   UNL     1     -11.333  13.762  67.520  1.00  0.00    -0.309 C  
HETATM   23  O   UNL     1     -12.068  14.636  67.972  1.00  0.00    -0.286 OA 
BRANCH  22  24
HETATM   24  N   UNL     1     -11.361  13.458  66.165  1.00  0.00    -0.297 N  
HETATM   25  C   UNL     1     -12.206  12.400  65.638  1.00  0.00    -0.250 C  
HETATM   26  C   UNL     1     -11.406  11.850  64.472  1.00  0.00    -0.382 C  
HETATM   27  C   UNL     1     -10.657  13.061  63.923  1.00  0.00    -0.292 C  
HETATM   28  C   UNL     1     -10.514  14.020  65.107  1.00  0.00    -0.397 C  
BRANCH  28  29
HETATM   29  C   UNL     1     -10.986  15.433  64.718  1.00  0.00    -0.393 C  
HETATM   30  N   UNL     1     -12.052  15.506  63.866  1.00  0.00    -0.980 N  
HETATM   31  O   UNL     1     -10.371  16.445  65.044  1.00  0.00    -0.615 OA 
HETATM   32  H1  UNL     1     -12.364  16.442  63.608  1.00  0.00     0.000 HD 
HETATM   33  H2  UNL     1     -12.511  14.669  63.508  1.00  0.00     0.000 HD 
ENDBRANCH  28  29
ENDBRANCH  22  24
ENDBRANCH  20  22
ENDBRANCH   6  20
TORSDOF 6
ENDMDL
MODEL       42
REMARK 921   NORMALIZED FREE ENERGY PREDICTED BY IDOCK:   -6.85 KCAL/MOL
REMARK 922        TOTAL FREE ENERGY PREDICTED BY IDOCK:  -10.35 KCAL/MOL
REMARK 923 INTER-LIGAND FREE ENERGY PREDICTED BY IDOCK:   -8.96 KCAL/MOL
REMARK 924 INTRA-LIGAND FREE ENERGY PREDICTED BY IDOCK:   -1.39 KCAL/MOL
REMARK 927      BINDING AFFINITY PREDICTED BY RF-SCORE:    0.00 PKD
ROOT
HETATM    1  C   UNL     1     -12.344  13.779  65.669  1.00  0.00    -0.517 C  
HETATM    2  C   UNL     1     -11.284  13.140  66.494  1.00  0.00    -0.310 A  
HETATM    3  C   UNL     1     -10.497  13.685  67.511  1.00  0.00    -0.241 A  
HETATM    4  S   UNL     1      -9.379  12.469  68.033  1.00  0.00    -0.207 SA 
HETATM    5  N   UNL     1     -11.056  11.795  66.223  1.00  0.00    -0.308 NA 
HETATM    6  C   UNL     1     -10.098  11.343  66.980  1.00  0.00    -0.208 A  
ENDROOT
BRANCH   3   7
HETATM    7  C   UNL     1     -10.455  15.030  68.123  1.00  0.00    -0.245 A  
HETATM    8  C   UNL     1      -9.748  17.368  68.123  1.00  0.00    -0.291 A  
HETATM    9  C   UNL     1     -10.989  16.539  69.899  1.00  0.00    -0.270 A  
HETATM   10  C   UNL     1      -9.780  16.105  67.513  1.00  0.00    -0.233 A  
HETATM   11  N   UNL     1     -10.341  17.571  69.323  1.00  0.00    -0.271 NA 
HETATM   12  C   UNL     1     -11.083  15.277  69.342  1.00  0.00    -0.283 A  
BRANCH   8  13
HETATM   13  C   UNL     1      -9.000  18.557  67.502  1.00  0.00    -0.286 C  
HETATM   14  F   UNL     1      -9.894  19.887  65.712  1.00  0.00    -0.461 F  
HETATM   15  C   UNL     1      -7.987  19.163  68.507  1.00  0.00    -0.386 C  
HETATM   16  C   UNL     1      -8.171  18.046  66.303  1.00  0.00    -0.242 C  
HETATM   17  F   UNL     1      -9.703  20.864  67.641  1.00  0.00    -0.550 F  
HETATM   18  F   UNL     1     -11.269  19.400  67.314  1.00  0.00    -0.573 F  
HETATM   19  C   UNL     1      -9.971  19.674  67.051  1.00  0.00    -0.392 C  
ENDBRANCH   8  13
ENDBRANCH   3   7
BRANCH   6  20
HETATM   20  N   UNL     1      -9.565  10.088  67.072  1.00  0.00    -0.166 N  
HETATM   21  H   UNL     1      -8.699   9.893  66.570  1.00  0.00     0.000 HD 
BRANCH  20  22
HETATM   22  C   UNL     1     -10.133   9.076  67.804  1.00  0.00    -0.208 C  
HETATM   23  O   UNL     1     -10.648   8.060  67.344  1.00  0.00    -0.282 OA 
BRANCH  22  24
HETATM   24  N   UNL     1     -10.093   9.279  69.177  1.00  0.00    -0.192 N  
HETATM   25  C   UNL     1      -8.837   9.330  69.906  1.00  0.00    -0.185 C  
HETATM   26  C   UNL     1      -9.182   8.736  71.258  1.00  0.00    -0.309 C  
HETATM   27  C   UNL     1     -10.630   9.155  71.496  1.00  0.00    -0.428 C  
HETATM   28  C   UNL     1     -11.230   9.348  70.101  1.00  0.00    -0.219 C  
BRANCH  28  29
HETATM   29  C   UNL     1     -11.937  10.712  70.001  1.00  0.00    -0.329 C  
HETATM   30  N   UNL     1     -11.708  11.594  71.021  1.00  0.00    -0.106 N  
HETATM   31  O   UNL     1     -12.763  10.963  69.128  1.00  0.00    -0.262 OA 
HETATM   32  H1  UNL     1     -12.176  12.497  70.954  1.00  0.00     0.000 HD 
HETATM   33  H2  UNL     1     -11.100  11.359  71.806  1.00  0.00     0.000 HD 
ENDBRANCH  28  29
ENDBRANCH  22  24
ENDBRANCH  20  22
ENDBRANCH   6  20
TORSDOF 6
ENDMDL
MODEL       43
REMARK 921   NORMALIZED FREE ENERGY PREDICTED BY IDOCK:   -6.83 KCAL/MOL
REMARK 922        TOTAL FREE ENERGY PREDICTED BY IDOCK:  -10.33 KCAL/MOL
REMARK 923 INTER-LIGAND FREE ENERGY PREDICTED BY IDOCK:   -9.47 KCAL/MOL
REMARK 924 INTRA-LIGAND FREE ENERGY PREDICTED BY IDOCK:   -0.86 KCAL/MOL
REMARK 927      BINDING AFFINITY PREDICTED BY RF-SCORE:    0.00 PKD
ROOT
HETATM    1  C   UNL     1     -12.070  12.471  65.140  1.00  0.00    -0.503 C  
HETATM    2  C   UNL     1     -11.891  12.955  66.535  1.00  0.00    -0.407 A  
HETATM    3  C   UNL     1     -11.509  12.251  67.680  1.00  0.00    -0.336 A  
HETATM    4  S   UNL     1     -11.566  13.344  69.024  1.00  0.00    -0.331 SA 
HETATM    5  N   UNL     1     -12.122  14.313  66.723  1.00  0.00    -0.440 NA 
HETATM    6  C   UNL     1     -11.962  14.625  67.977  1.00  0.00    -0.257 A  
ENDROOT
BRANCH   3   7
HETATM    7  C   UNL     1     -11.138  10.837  67.901  1.00  0.00    -0.369 A  
HETATM    8  C   UNL     1     -10.906   8.878  69.340  1.00  0.00    -0.119 A  
HETATM    9  C   UNL     1     -10.255   8.759  67.117  1.00  0.00    -0.276 A  
HETATM   10  C   UNL     1     -11.276  10.218  69.158  1.00  0.00    -0.268 A  
HETATM   11  N   UNL     1     -10.381   8.161  68.319  1.00  0.00    -0.206 NA 
HETATM   12  C   UNL     1     -10.624  10.066  66.860  1.00  0.00    -0.261 A  
BRANCH   8  13
HETATM   13  C   UNL     1     -11.018   8.176  70.701  1.00  0.00    -0.255 C  
HETATM   14  F   UNL     1      -9.263   6.829  71.638  1.00  0.00    -0.144 F  
HETATM   15  C   UNL     1     -12.031   8.906  71.621  1.00  0.00    -0.415 C  
HETATM   16  C   UNL     1     -11.578   6.754  70.479  1.00  0.00    -0.426 C  
HETATM   17  F   UNL     1      -9.687   8.703  72.648  1.00  0.00    -0.342 F  
HETATM   18  F   UNL     1      -8.649   8.704  70.744  1.00  0.00    -0.121 F  
HETATM   19  C   UNL     1      -9.654   8.112  71.428  1.00  0.00    -0.165 C  
ENDBRANCH   8  13
ENDBRANCH   3   7
BRANCH   6  20
HETATM   20  N   UNL     1     -12.061  15.835  68.605  1.00  0.00    -0.504 N  
HETATM   21  H   UNL     1     -12.856  16.433  68.379  1.00  0.00     0.000 HD 
BRANCH  20  22
HETATM   22  C   UNL     1     -11.147  16.288  69.521  1.00  0.00    -0.330 C  
HETATM   23  O   UNL     1     -11.282  16.264  70.742  1.00  0.00    -0.366 OA 
BRANCH  22  24
HETATM   24  N   UNL     1      -9.990  16.811  68.958  1.00  0.00    -0.270 N  
HETATM   25  C   UNL     1      -8.821  15.986  68.709  1.00  0.00    -0.227 C  
HETATM   26  C   UNL     1      -7.658  16.937  68.920  1.00  0.00    -0.234 C  
HETATM   27  C   UNL     1      -8.189  18.291  68.457  1.00  0.00    -0.329 C  
HETATM   28  C   UNL     1      -9.707  18.217  68.647  1.00  0.00    -0.357 C  
BRANCH  28  29
HETATM   29  C   UNL     1     -10.434  18.654  67.363  1.00  0.00    -0.423 C  
HETATM   30  N   UNL     1     -10.393  17.780  66.312  1.00  0.00    -0.374 N  
HETATM   31  O   UNL     1     -10.919  19.774  67.230  1.00  0.00    -0.414 OA 
HETATM   32  H1  UNL     1     -10.875  18.070  65.462  1.00  0.00     0.000 HD 
HETATM   33  H2  UNL     1      -9.906  16.886  66.377  1.00  0.00     0.000 HD 
ENDBRANCH  28  29
ENDBRANCH  22  24
ENDBRANCH  20  22
ENDBRANCH   6  20
TORSDOF 6
ENDMDL
MODEL       44
REMARK 921   NORMALIZED FREE ENERGY PREDICTED BY IDOCK:   -6.82 KCAL/MOL
REMARK 922        TOTAL FREE ENERGY PREDICTED BY IDOCK:  -10.31 KCAL/MOL
REMARK 923 INTER-LIGAND FREE ENERGY PREDICTED BY IDOCK:   -9.63 KCAL/MOL
REMARK 924 INTRA-LIGAND FREE ENERGY PREDICTED BY IDOCK:   -0.68 KCAL/MOL
REMARK 927      BINDING AFFINITY PREDICTED BY RF-SCORE:    0.00 PKD
ROOT
HETATM    1  C   UNL     1     -12.242  13.721  69.969  1.00  0.00    -0.407 C  
HETATM    2  C   UNL     1     -11.160  13.770  68.949  1.00  0.00    -0.266 A  
HETATM    3  C   UNL     1     -10.462  12.724  68.340  1.00  0.00    -0.243 A  
HETATM    4  S   UNL     1      -9.258  13.416  67.304  1.00  0.00    -0.231 SA 
HETATM    5  N   UNL     1     -10.802  15.046  68.530  1.00  0.00    -0.242 NA 
HETATM    6  C   UNL     1      -9.835  14.976  67.661  1.00  0.00    -0.220 A  
ENDROOT
BRANCH   3   7
HETATM    7  C   UNL     1     -10.564  11.254  68.466  1.00  0.00    -0.227 A  
HETATM    8  C   UNL     1     -11.086   9.240  69.744  1.00  0.00    -0.150 A  
HETATM    9  C   UNL     1     -10.283   9.054  67.576  1.00  0.00    -0.241 A  
HETATM   10  C   UNL     1     -11.010  10.637  69.650  1.00  0.00    -0.331 A  
HETATM   11  N   UNL     1     -10.705   8.457  68.708  1.00  0.00    -0.118 NA 
HETATM   12  C   UNL     1     -10.208  10.423  67.405  1.00  0.00    -0.259 A  
BRANCH   8  13
HETATM   13  C   UNL     1     -11.542   8.531  71.027  1.00  0.00    -0.317 C  
HETATM   14  F   UNL     1     -12.907   9.582  72.701  1.00  0.00    -0.415 F  
HETATM   15  C   UNL     1     -11.579   6.993  70.829  1.00  0.00    -0.381 C  
HETATM   16  C   UNL     1     -10.503   8.802  72.137  1.00  0.00    -0.384 C  
HETATM   17  F   UNL     1     -13.831   7.978  71.569  1.00  0.00    -0.354 F  
HETATM   18  F   UNL     1     -13.501   9.912  70.644  1.00  0.00    -0.383 F  
HETATM   19  C   UNL     1     -12.946   9.000  71.475  1.00  0.00    -0.337 C  
ENDBRANCH   8  13
ENDBRANCH   3   7
BRANCH   6  20
HETATM   20  N   UNL     1      -9.195  15.969  66.972  1.00  0.00    -0.206 N  
HETATM   21  H   UNL     1      -8.176  15.943  66.924  1.00  0.00     0.000 HD 
BRANCH  20  22
HETATM   22  C   UNL     1      -9.849  16.997  66.342  1.00  0.00    -0.299 C  
HETATM   23  O   UNL     1     -10.562  16.890  65.348  1.00  0.00    -0.579 OA 
BRANCH  22  24
HETATM   24  N   UNL     1      -9.646  18.240  66.926  1.00  0.00    -0.285 N  
HETATM   25  C   UNL     1      -9.965  18.491  68.320  1.00  0.00    -0.376 C  
HETATM   26  C   UNL     1     -10.404  19.943  68.333  1.00  0.00    -0.507 C  
HETATM   27  C   UNL     1      -9.563  20.601  67.243  1.00  0.00    -0.558 C  
HETATM   28  C   UNL     1      -9.220  19.477  66.262  1.00  0.00    -0.365 C  
BRANCH  28  29
HETATM   29  C   UNL     1      -7.708  19.454  65.973  1.00  0.00    -0.296 C  
HETATM   30  N   UNL     1      -7.232  20.426  65.137  1.00  0.00    -0.452 N  
HETATM   31  O   UNL     1      -6.977  18.547  66.362  1.00  0.00    -0.202 OA 
HETATM   32  H1  UNL     1      -6.231  20.410  64.946  1.00  0.00     0.000 HD 
HETATM   33  H2  UNL     1      -7.847  21.128  64.726  1.00  0.00     0.000 HD 
ENDBRANCH  28  29
ENDBRANCH  22  24
ENDBRANCH  20  22
ENDBRANCH   6  20
TORSDOF 6
ENDMDL
MODEL       45
REMARK 921   NORMALIZED FREE ENERGY PREDICTED BY IDOCK:   -6.79 KCAL/MOL
REMARK 922        TOTAL FREE ENERGY PREDICTED BY IDOCK:  -10.26 KCAL/MOL
REMARK 923 INTER-LIGAND FREE ENERGY PREDICTED BY IDOCK:   -9.60 KCAL/MOL
REMARK 924 INTRA-LIGAND FREE ENERGY PREDICTED BY IDOCK:   -0.66 KCAL/MOL
REMARK 927      BINDING AFFINITY PREDICTED BY RF-SCORE:    0.00 PKD
ROOT
HETATM    1  C   UNL     1      -7.119  14.165  67.859  1.00  0.00    -0.168 C  
HETATM    2  C   UNL     1      -8.422  13.461  67.727  1.00  0.00    -0.181 A  
HETATM    3  C   UNL     1      -9.613  13.893  67.138  1.00  0.00    -0.247 A  
HETATM    4  S   UNL     1     -10.807  12.661  67.378  1.00  0.00    -0.250 SA 
HETATM    5  N   UNL     1      -8.454  12.175  68.255  1.00  0.00    -0.176 NA 
HETATM    6  C   UNL     1      -9.641  11.661  68.110  1.00  0.00    -0.190 A  
ENDROOT
BRANCH   3   7
HETATM    7  C   UNL     1      -9.980  15.144  66.441  1.00  0.00    -0.288 A  
HETATM    8  C   UNL     1      -9.940  17.577  66.232  1.00  0.00    -0.308 A  
HETATM    9  C   UNL     1     -11.115  16.306  64.687  1.00  0.00    -0.246 A  
HETATM   10  C   UNL     1      -9.568  16.407  66.909  1.00  0.00    -0.255 A  
HETATM   11  N   UNL     1     -10.728  17.518  65.132  1.00  0.00    -0.595 NA 
HETATM   12  C   UNL     1     -10.763  15.112  65.288  1.00  0.00    -0.422 A  
BRANCH   8  13
HETATM   13  C   UNL     1      -9.533  18.972  66.726  1.00  0.00    -0.365 C  
HETATM   14  F   UNL     1     -10.855  20.267  68.259  1.00  0.00    -0.390 F  
HETATM   15  C   UNL     1      -7.995  19.160  66.655  1.00  0.00    -0.283 C  
HETATM   16  C   UNL     1     -10.144  20.030  65.780  1.00  0.00    -0.422 C  
HETATM   17  F   UNL     1      -8.957  19.523  69.007  1.00  0.00    -0.392 F  
HETATM   18  F   UNL     1     -10.627  18.166  68.737  1.00  0.00    -0.330 F  
HETATM   19  C   UNL     1      -9.990  19.222  68.182  1.00  0.00    -0.391 C  
ENDBRANCH   8  13
ENDBRANCH   3   7
BRANCH   6  20
HETATM   20  N   UNL     1     -10.116  10.426  68.453  1.00  0.00    -0.158 N  
HETATM   21  H   UNL     1     -10.567   9.864  67.730  1.00  0.00     0.000 HD 
BRANCH  20  22
HETATM   22  C   UNL     1     -10.018   9.902  69.717  1.00  0.00    -0.243 C  
HETATM   23  O   UNL     1      -8.993   9.469  70.236  1.00  0.00    -0.221 OA 
BRANCH  22  24
HETATM   24  N   UNL     1     -11.217   9.884  70.417  1.00  0.00    -0.289 N  
HETATM   25  C   UNL     1     -12.264  10.859  70.164  1.00  0.00    -0.343 C  
HETATM   26  C   UNL     1     -12.911  11.052  71.523  1.00  0.00    -0.555 C  
HETATM   27  C   UNL     1     -12.794   9.687  72.194  1.00  0.00    -0.460 C  
HETATM   28  C   UNL     1     -11.576   9.020  71.547  1.00  0.00    -0.343 C  
BRANCH  28  29
HETATM   29  C   UNL     1     -11.930   7.602  71.065  1.00  0.00    -0.273 C  
HETATM   30  N   UNL     1     -13.248   7.246  71.132  1.00  0.00    -0.574 N  
HETATM   31  O   UNL     1     -11.072   6.780  70.755  1.00  0.00    -0.247 OA 
HETATM   32  H1  UNL     1     -13.482   6.306  70.813  1.00  0.00     0.000 HD 
HETATM   33  H2  UNL     1     -13.959   7.887  71.483  1.00  0.00     0.000 HD 
ENDBRANCH  28  29
ENDBRANCH  22  24
ENDBRANCH  20  22
ENDBRANCH   6  20
TORSDOF 6
ENDMDL
MODEL       46
REMARK 921   NORMALIZED FREE ENERGY PREDICTED BY IDOCK:   -6.78 KCAL/MOL
REMARK 922        TOTAL FREE ENERGY PREDICTED BY IDOCK:  -10.25 KCAL/MOL
REMARK 923 INTER-LIGAND FREE ENERGY PREDICTED BY IDOCK:   -9.08 KCAL/MOL
REMARK 924 INTRA-LIGAND FREE ENERGY PREDICTED BY IDOCK:   -1.17 KCAL/MOL
REMARK 927      BINDING AFFINITY PREDICTED BY RF-SCORE:    0.00 PKD
ROOT
HETATM    1  C   UNL     1     -10.358  10.572  66.219  1.00  0.00    -0.276 C  
HETATM    2  C   UNL     1     -10.210  11.902  66.867  1.00  0.00    -0.208 A  
HETATM    3  C   UNL     1     -10.585  12.317  68.147  1.00  0.00    -0.214 A  
HETATM    4  S   UNL     1     -10.233  14.007  68.287  1.00  0.00    -0.253 SA 
HETATM    5  N   UNL     1      -9.590  12.872  66.087  1.00  0.00    -0.244 NA 
HETATM    6  C   UNL     1      -9.534  13.999  66.736  1.00  0.00    -0.282 A  
ENDROOT
BRANCH   3   7
HETATM    7  C   UNL     1     -11.215  11.603  69.279  1.00  0.00    -0.328 A  
HETATM    8  C   UNL     1     -11.597   9.584  70.598  1.00  0.00    -0.283 A  
HETATM    9  C   UNL     1     -12.677  11.556  71.170  1.00  0.00    -0.356 A  
HETATM   10  C   UNL     1     -10.978  10.237  69.522  1.00  0.00    -0.300 A  
HETATM   11  N   UNL     1     -12.457  10.247  71.406  1.00  0.00    -0.392 NA 
HETATM   12  C   UNL     1     -12.080  12.268  70.146  1.00  0.00    -0.364 A  
BRANCH   8  13
HETATM   13  C   UNL     1     -11.384   8.090  70.880  1.00  0.00    -0.291 C  
HETATM   14  F   UNL     1      -9.254   7.152  71.479  1.00  0.00    -0.145 F  
HETATM   15  C   UNL     1     -12.702   7.417  71.343  1.00  0.00    -0.408 C  
HETATM   16  C   UNL     1     -10.979   7.392  69.562  1.00  0.00    -0.155 C  
HETATM   17  F   UNL     1     -10.779   7.153  73.023  1.00  0.00    -0.238 F  
HETATM   18  F   UNL     1      -9.791   9.003  72.468  1.00  0.00    -0.320 F  
HETATM   19  C   UNL     1     -10.307   7.858  71.966  1.00  0.00    -0.225 C  
ENDBRANCH   8  13
ENDBRANCH   3   7
BRANCH   6  20
HETATM   20  N   UNL     1      -8.995  15.201  66.372  1.00  0.00    -0.375 N  
HETATM   21  H   UNL     1      -7.989  15.333  66.481  1.00  0.00     0.000 HD 
BRANCH  20  22
HETATM   22  C   UNL     1      -9.734  16.241  65.867  1.00  0.00    -0.321 C  
HETATM   23  O   UNL     1     -10.475  16.185  64.889  1.00  0.00    -0.605 OA 
BRANCH  22  24
HETATM   24  N   UNL     1      -9.586  17.433  66.563  1.00  0.00    -0.270 N  
HETATM   25  C   UNL     1     -10.410  17.752  67.716  1.00  0.00    -0.380 C  
HETATM   26  C   UNL     1     -10.562  19.259  67.643  1.00  0.00    -0.553 C  
HETATM   27  C   UNL     1      -9.246  19.743  67.042  1.00  0.00    -0.449 C  
HETATM   28  C   UNL     1      -8.720  18.566  66.216  1.00  0.00    -0.203 C  
BRANCH  28  29
HETATM   29  C   UNL     1      -7.253  18.267  66.575  1.00  0.00    -0.232 C  
HETATM   30  N   UNL     1      -6.415  17.989  65.531  1.00  0.00    -0.218 N  
HETATM   31  O   UNL     1      -6.869  18.155  67.735  1.00  0.00    -0.196 OA 
HETATM   32  H1  UNL     1      -5.444  17.791  65.768  1.00  0.00     0.000 HD 
HETATM   33  H2  UNL     1      -6.745  17.981  64.566  1.00  0.00     0.000 HD 
ENDBRANCH  28  29
ENDBRANCH  22  24
ENDBRANCH  20  22
ENDBRANCH   6  20
TORSDOF 6
ENDMDL
MODEL       47
REMARK 921   NORMALIZED FREE ENERGY PREDICTED BY IDOCK:   -6.75 KCAL/MOL
REMARK 922        TOTAL FREE ENERGY PREDICTED BY IDOCK:  -10.22 KCAL/MOL
REMARK 923 INTER-LIGAND FREE ENERGY PREDICTED BY IDOCK:   -8.70 KCAL/MOL
REMARK 924 INTRA-LIGAND FREE ENERGY PREDICTED BY IDOCK:   -1.51 KCAL/MOL
REMARK 927      BINDING AFFINITY PREDICTED BY RF-SCORE:    0.00 PKD
ROOT
HETATM    1  C   UNL     1      -9.384  10.010  63.975  1.00  0.00    -0.324 C  
HETATM    2  C   UNL     1      -9.721   9.932  65.422  1.00  0.00    -0.306 A  
HETATM    3  C   UNL     1     -10.351  10.872  66.241  1.00  0.00    -0.250 A  
HETATM    4  S   UNL     1     -10.381  10.240  67.855  1.00  0.00    -0.212 SA 
HETATM    5  N   UNL     1      -9.372   8.740  66.046  1.00  0.00    -0.226 NA 
HETATM    6  C   UNL     1      -9.687   8.786  67.308  1.00  0.00    -0.183 A  
ENDROOT
BRANCH   3   7
HETATM    7  C   UNL     1     -10.908  12.214  65.970  1.00  0.00    -0.318 A  
HETATM    8  C   UNL     1     -10.827  14.648  66.149  1.00  0.00    -0.321 A  
HETATM    9  C   UNL     1     -12.607  13.631  65.064  1.00  0.00    -0.390 A  
HETATM   10  C   UNL     1     -10.270  13.389  66.413  1.00  0.00    -0.293 A  
HETATM   11  N   UNL     1     -12.004  14.759  65.489  1.00  0.00    -0.250 NA 
HETATM   12  C   UNL     1     -12.101  12.360  65.265  1.00  0.00    -0.451 A  
BRANCH   8  13
HETATM   13  C   UNL     1     -10.175  15.949  66.638  1.00  0.00    -0.293 C  
HETATM   14  F   UNL     1     -11.306  17.549  68.029  1.00  0.00    -0.236 F  
HETATM   15  C   UNL     1      -8.631  15.815  66.683  1.00  0.00    -0.322 C  
HETATM   16  C   UNL     1     -10.485  17.070  65.620  1.00  0.00    -0.229 C  
HETATM   17  F   UNL     1      -9.663  16.464  68.943  1.00  0.00    -0.216 F  
HETATM   18  F   UNL     1     -11.554  15.468  68.577  1.00  0.00    -0.308 F  
HETATM   19  C   UNL     1     -10.674  16.348  68.047  1.00  0.00    -0.334 C  
ENDBRANCH   8  13
ENDBRANCH   3   7
BRANCH   6  20
HETATM   20  N   UNL     1      -9.552   7.841  68.286  1.00  0.00    -0.153 N  
HETATM   21  H   UNL     1      -8.671   7.800  68.800  1.00  0.00     0.000 HD 
BRANCH  20  22
HETATM   22  C   UNL     1     -10.537   6.946  68.615  1.00  0.00    -0.223 C  
HETATM   23  O   UNL     1     -11.244   6.334  67.819  1.00  0.00    -0.325 OA 
BRANCH  22  24
HETATM   24  N   UNL     1     -10.703   6.761  69.982  1.00  0.00    -0.232 N  
HETATM   25  C   UNL     1      -9.762   5.982  70.767  1.00  0.00    -0.175 C  
HETATM   26  C   UNL     1     -10.628   5.345  71.837  1.00  0.00    -0.288 C  
HETATM   27  C   UNL     1     -11.719   6.377  72.103  1.00  0.00    -0.366 C  
HETATM   28  C   UNL     1     -11.842   7.181  70.806  1.00  0.00    -0.325 C  
BRANCH  28  29
HETATM   29  C   UNL     1     -11.782   8.691  71.098  1.00  0.00    -0.288 C  
HETATM   30  N   UNL     1     -12.833   9.441  70.650  1.00  0.00    -0.513 N  
HETATM   31  O   UNL     1     -10.794   9.227  71.593  1.00  0.00    -0.357 OA 
HETATM   32  H1  UNL     1     -12.793  10.441  70.844  1.00  0.00     0.000 HD 
HETATM   33  H2  UNL     1     -13.616   9.021  70.148  1.00  0.00     0.000 HD 
ENDBRANCH  28  29
ENDBRANCH  22  24
ENDBRANCH  20  22
ENDBRANCH   6  20
TORSDOF 6
ENDMDL
MODEL       48
REMARK 921   NORMALIZED FREE ENERGY PREDICTED BY IDOCK:   -6.73 KCAL/MOL
REMARK 922        TOTAL FREE ENERGY PREDICTED BY IDOCK:  -10.18 KCAL/MOL
REMARK 923 INTER-LIGAND FREE ENERGY PREDICTED BY IDOCK:   -9.13 KCAL/MOL
REMARK 924 INTRA-LIGAND FREE ENERGY PREDICTED BY IDOCK:   -1.05 KCAL/MOL
REMARK 927      BINDING AFFINITY PREDICTED BY RF-SCORE:    0.00 PKD
ROOT
HETATM    1  C   UNL     1     -10.936  11.212  66.013  1.00  0.00    -0.189 C  
HETATM    2  C   UNL     1     -10.698  10.644  67.367  1.00  0.00    -0.276 A  
HETATM    3  C   UNL     1     -10.817  11.250  68.620  1.00  0.00    -0.204 A  
HETATM    4  S   UNL     1     -10.317  10.102  69.818  1.00  0.00    -0.251 SA 
HETATM    5  N   UNL     1     -10.316   9.308  67.387  1.00  0.00    -0.246 NA 
HETATM    6  C   UNL     1     -10.111   8.920  68.613  1.00  0.00    -0.188 A  
ENDROOT
BRANCH   3   7
HETATM    7  C   UNL     1     -11.230  12.608  69.034  1.00  0.00    -0.322 A  
HETATM    8  C   UNL     1     -12.379  14.131  70.558  1.00  0.00    -0.364 A  
HETATM    9  C   UNL     1     -11.315  14.970  68.675  1.00  0.00    -0.296 A  
HETATM   10  C   UNL     1     -11.994  12.832  70.196  1.00  0.00    -0.371 A  
HETATM   11  N   UNL     1     -12.050  15.191  69.783  1.00  0.00    -0.322 NA 
HETATM   12  C   UNL     1     -10.878  13.721  68.273  1.00  0.00    -0.266 A  
BRANCH   8  13
HETATM   13  C   UNL     1     -13.234  14.413  71.802  1.00  0.00    -0.435 C  
HETATM   14  F   UNL     1     -12.389  14.258  74.045  1.00  0.00    -0.334 F  
HETATM   15  C   UNL     1     -14.410  15.366  71.465  1.00  0.00    -0.572 C  
HETATM   16  C   UNL     1     -13.871  13.087  72.274  1.00  0.00    -0.529 C  
HETATM   17  F   UNL     1     -12.890  16.247  73.336  1.00  0.00    -0.505 F  
HETATM   18  F   UNL     1     -11.105  15.252  72.611  1.00  0.00    -0.501 F  
HETATM   19  C   UNL     1     -12.401  15.047  72.940  1.00  0.00    -0.363 C  
ENDBRANCH   8  13
ENDBRANCH   3   7
BRANCH   6  20
HETATM   20  N   UNL     1      -9.752   7.695  69.102  1.00  0.00    -0.162 N  
HETATM   21  H   UNL     1      -8.758   7.473  69.166  1.00  0.00     0.000 HD 
BRANCH  20  22
HETATM   22  C   UNL     1     -10.656   6.749  69.512  1.00  0.00    -0.232 C  
HETATM   23  O   UNL     1     -11.230   5.942  68.785  1.00  0.00    -0.258 OA 
BRANCH  22  24
HETATM   24  N   UNL     1     -10.905   6.756  70.878  1.00  0.00    -0.240 N  
HETATM   25  C   UNL     1     -12.071   7.417  71.439  1.00  0.00    -0.327 C  
HETATM   26  C   UNL     1     -11.586   7.919  72.786  1.00  0.00    -0.387 C  
HETATM   27  C   UNL     1     -10.571   6.872  73.236  1.00  0.00    -0.353 C  
HETATM   28  C   UNL     1     -10.037   6.245  71.945  1.00  0.00    -0.181 C  
BRANCH  28  29
HETATM   29  C   UNL     1     -10.107   4.709  72.022  1.00  0.00    -0.197 C  
HETATM   30  N   UNL     1      -9.300   4.019  71.161  1.00  0.00    -0.133 N  
HETATM   31  O   UNL     1     -10.927   4.122  72.722  1.00  0.00    -0.128 OA 
HETATM   32  H1  UNL     1      -9.347   3.001  71.212  1.00  0.00     0.000 HD 
HETATM   33  H2  UNL     1      -8.685   4.496  70.503  1.00  0.00     0.000 HD 
ENDBRANCH  28  29
ENDBRANCH  22  24
ENDBRANCH  20  22
ENDBRANCH   6  20
TORSDOF 6
ENDMDL
MODEL       49
REMARK 921   NORMALIZED FREE ENERGY PREDICTED BY IDOCK:   -6.72 KCAL/MOL
REMARK 922        TOTAL FREE ENERGY PREDICTED BY IDOCK:  -10.17 KCAL/MOL
REMARK 923 INTER-LIGAND FREE ENERGY PREDICTED BY IDOCK:   -9.02 KCAL/MOL
REMARK 924 INTRA-LIGAND FREE ENERGY PREDICTED BY IDOCK:   -1.14 KCAL/MOL
REMARK 927      BINDING AFFINITY PREDICTED BY RF-SCORE:    0.00 PKD
ROOT
HETATM    1  C   UNL     1     -12.950   9.743  71.857  1.00  0.00    -0.535 C  
HETATM    2  C   UNL     1     -12.043  10.022  70.712  1.00  0.00    -0.327 A  
HETATM    3  C   UNL     1     -10.793   9.475  70.412  1.00  0.00    -0.282 A  
HETATM    4  S   UNL     1     -10.190  10.265  68.992  1.00  0.00    -0.224 SA 
HETATM    5  N   UNL     1     -12.519  10.953  69.796  1.00  0.00    -0.263 NA 
HETATM    6  C   UNL     1     -11.643  11.140  68.852  1.00  0.00    -0.317 A  
ENDROOT
BRANCH   3   7
HETATM    7  C   UNL     1      -9.970   8.447  71.083  1.00  0.00    -0.245 A  
HETATM    8  C   UNL     1      -8.800   6.303  71.094  1.00  0.00    -0.142 A  
HETATM    9  C   UNL     1      -8.825   7.612  73.009  1.00  0.00    -0.169 A  
HETATM   10  C   UNL     1      -9.573   7.266  70.427  1.00  0.00    -0.165 A  
HETATM   11  N   UNL     1      -8.445   6.478  72.388  1.00  0.00    -0.119 NA 
HETATM   12  C   UNL     1      -9.563   8.614  72.406  1.00  0.00    -0.305 A  
BRANCH   8  13
HETATM   13  C   UNL     1      -8.370   4.992  70.421  1.00  0.00    -0.100 C  
HETATM   14  F   UNL     1      -8.931   2.821  71.284  1.00  0.00    -0.112 F  
HETATM   15  C   UNL     1      -8.123   5.200  68.904  1.00  0.00    -0.085 C  
HETATM   16  C   UNL     1      -7.018   4.548  71.024  1.00  0.00    -0.036 C  
HETATM   17  F   UNL     1      -9.872   3.391  69.413  1.00  0.00    -0.239 F  
HETATM   18  F   UNL     1     -10.528   4.285  71.277  1.00  0.00    -0.206 F  
HETATM   19  C   UNL     1      -9.431   3.881  70.598  1.00  0.00    -0.174 C  
ENDBRANCH   8  13
ENDBRANCH   3   7
BRANCH   6  20
HETATM   20  N   UNL     1     -11.697  11.938  67.743  1.00  0.00    -0.318 N  
HETATM   21  H   UNL     1     -11.673  11.492  66.826  1.00  0.00     0.000 HD 
BRANCH  20  22
HETATM   22  C   UNL     1     -11.782  13.306  67.798  1.00  0.00    -0.358 C  
HETATM   23  O   UNL     1     -12.285  13.957  68.709  1.00  0.00    -0.348 OA 
BRANCH  22  24
HETATM   24  N   UNL     1     -11.236  13.953  66.697  1.00  0.00    -0.313 N  
HETATM   25  C   UNL     1      -9.807  14.184  66.578  1.00  0.00    -0.290 C  
HETATM   26  C   UNL     1      -9.718  15.501  65.830  1.00  0.00    -0.392 C  
HETATM   27  C   UNL     1     -10.930  15.492  64.902  1.00  0.00    -0.452 C  
HETATM   28  C   UNL     1     -11.958  14.588  65.588  1.00  0.00    -0.311 C  
BRANCH  28  29
HETATM   29  C   UNL     1     -12.492  13.533  64.603  1.00  0.00    -0.323 C  
HETATM   30  N   UNL     1     -12.422  13.849  63.275  1.00  0.00    -1.112 N  
HETATM   31  O   UNL     1     -13.068  12.515  64.977  1.00  0.00    -0.765 OA 
HETATM   32  H1  UNL     1     -12.777  13.149  62.623  1.00  0.00     0.000 HD 
HETATM   33  H2  UNL     1     -12.037  14.737  62.954  1.00  0.00     0.000 HD 
ENDBRANCH  28  29
ENDBRANCH  22  24
ENDBRANCH  20  22
ENDBRANCH   6  20
TORSDOF 6
ENDMDL
MODEL       50
REMARK 921   NORMALIZED FREE ENERGY PREDICTED BY IDOCK:   -6.71 KCAL/MOL
REMARK 922        TOTAL FREE ENERGY PREDICTED BY IDOCK:  -10.15 KCAL/MOL
REMARK 923 INTER-LIGAND FREE ENERGY PREDICTED BY IDOCK:   -9.23 KCAL/MOL
REMARK 924 INTRA-LIGAND FREE ENERGY PREDICTED BY IDOCK:   -0.92 KCAL/MOL
REMARK 927      BINDING AFFINITY PREDICTED BY RF-SCORE:    0.00 PKD
ROOT
HETATM    1  C   UNL     1     -13.512  13.426  72.643  1.00  0.00    -0.536 C  
HETATM    2  C   UNL     1     -12.917  13.325  71.283  1.00  0.00    -0.270 A  
HETATM    3  C   UNL     1     -12.354  12.222  70.637  1.00  0.00    -0.286 A  
HETATM    4  S   UNL     1     -11.751  12.752  69.102  1.00  0.00    -0.317 SA 
HETATM    5  N   UNL     1     -12.940  14.500  70.541  1.00  0.00    -0.316 NA 
HETATM    6  C   UNL     1     -12.375  14.309  69.384  1.00  0.00    -0.199 A  
ENDROOT
BRANCH   3   7
HETATM    7  C   UNL     1     -12.180  10.812  71.046  1.00  0.00    -0.485 A  
HETATM    8  C   UNL     1     -10.801   8.817  71.340  1.00  0.00    -0.289 A  
HETATM    9  C   UNL     1     -13.059   8.747  71.870  1.00  0.00    -0.378 A  
HETATM   10  C   UNL     1     -10.935  10.159  70.954  1.00  0.00    -0.241 A  
HETATM   11  N   UNL     1     -11.872   8.115  71.780  1.00  0.00    -0.284 NA 
HETATM   12  C   UNL     1     -13.256  10.073  71.533  1.00  0.00    -0.497 A  
BRANCH   8  13
HETATM   13  C   UNL     1      -9.468   8.064  71.230  1.00  0.00    -0.190 C  
HETATM   14  F   UNL     1      -7.739   8.195  72.893  1.00  0.00    -0.132 F  
HETATM   15  C   UNL     1      -9.613   6.803  70.338  1.00  0.00    -0.174 C  
HETATM   16  C   UNL     1      -8.441   8.979  70.526  1.00  0.00    -0.226 C  
HETATM   17  F   UNL     1      -8.753   6.285  72.701  1.00  0.00    -0.124 F  
HETATM   18  F   UNL     1      -9.760   7.962  73.638  1.00  0.00    -0.334 F  
HETATM   19  C   UNL     1      -8.940   7.625  72.616  1.00  0.00    -0.154 C  
ENDBRANCH   8  13
ENDBRANCH   3   7
BRANCH   6  20
HETATM   20  N   UNL     1     -12.199  15.168  68.335  1.00  0.00    -0.556 N  
HETATM   21  H   UNL     1     -12.798  15.060  67.516  1.00  0.00     0.000 HD 
BRANCH  20  22
HETATM   22  C   UNL     1     -11.260  16.168  68.325  1.00  0.00    -0.343 C  
HETATM   23  O   UNL     1     -11.331  17.224  68.948  1.00  0.00     0.170 OA 
BRANCH  22  24
HETATM   24  N   UNL     1     -10.160  15.905  67.520  1.00  0.00    -0.243 N  
HETATM   25  C   UNL     1      -9.126  14.967  67.923  1.00  0.00    -0.182 C  
HETATM   26  C   UNL     1      -7.860  15.549  67.322  1.00  0.00    -0.236 C  
HETATM   27  C   UNL     1      -8.326  16.212  66.029  1.00  0.00    -0.050 C  
HETATM   28  C   UNL     1      -9.796  16.568  66.263  1.00  0.00    -0.316 C  
BRANCH  28  29
HETATM   29  C   UNL     1     -10.667  16.059  65.101  1.00  0.00    -0.409 C  
HETATM   30  N   UNL     1     -10.512  14.747  64.752  1.00  0.00    -0.544 N  
HETATM   31  O   UNL     1     -11.373  16.808  64.431  1.00  0.00    -1.089 OA 
HETATM   32  H1  UNL     1     -11.089  14.410  63.982  1.00  0.00     0.000 HD 
HETATM   33  H2  UNL     1      -9.853  14.137  65.237  1.00  0.00     0.000 HD 
ENDBRANCH  28  29
ENDBRANCH  22  24
ENDBRANCH  20  22
ENDBRANCH   6  20
TORSDOF 6
ENDMDL
MODEL       51
REMARK 921   NORMALIZED FREE ENERGY PREDICTED BY IDOCK:   -6.66 KCAL/MOL
REMARK 922        TOTAL FREE ENERGY PREDICTED BY IDOCK:  -10.09 KCAL/MOL
REMARK 923 INTER-LIGAND FREE ENERGY PREDICTED BY IDOCK:   -8.88 KCAL/MOL
REMARK 924 INTRA-LIGAND FREE ENERGY PREDICTED BY IDOCK:   -1.21 KCAL/MOL
REMARK 927      BINDING AFFINITY PREDICTED BY RF-SCORE:    0.00 PKD
ROOT
HETATM    1  C   UNL     1      -8.602  10.215  68.708  1.00  0.00    -0.133 C  
HETATM    2  C   UNL     1      -9.835  10.060  69.525  1.00  0.00    -0.229 A  
HETATM    3  C   UNL     1     -10.938  10.909  69.641  1.00  0.00    -0.252 A  
HETATM    4  S   UNL     1     -12.016  10.228  70.815  1.00  0.00    -0.389 SA 
HETATM    5  N   UNL     1      -9.906   8.889  70.270  1.00  0.00    -0.175 NA 
HETATM    6  C   UNL     1     -11.008   8.865  70.963  1.00  0.00    -0.276 A  
ENDROOT
BRANCH   3   7
HETATM    7  C   UNL     1     -11.273  12.199  69.002  1.00  0.00    -0.314 A  
HETATM    8  C   UNL     1     -11.308  13.692  67.069  1.00  0.00    -0.324 A  
HETATM    9  C   UNL     1     -12.144  14.423  69.105  1.00  0.00    -0.281 A  
HETATM   10  C   UNL     1     -10.988  12.454  67.646  1.00  0.00    -0.276 A  
HETATM   11  N   UNL     1     -11.870  14.675  67.810  1.00  0.00    -0.353 NA 
HETATM   12  C   UNL     1     -11.881  13.219  69.731  1.00  0.00    -0.394 A  
BRANCH   8  13
HETATM   13  C   UNL     1     -10.989  14.016  65.602  1.00  0.00    -0.300 C  
HETATM   14  F   UNL     1     -12.347  13.276  63.763  1.00  0.00    -0.464 F  
HETATM   15  C   UNL     1     -10.144  15.312  65.490  1.00  0.00    -0.408 C  
HETATM   16  C   UNL     1     -10.119  12.878  65.023  1.00  0.00    -0.235 C  
HETATM   17  F   UNL     1     -12.340  15.410  64.163  1.00  0.00    -0.492 F  
HETATM   18  F   UNL     1     -13.413  14.060  65.479  1.00  0.00    -0.451 F  
HETATM   19  C   UNL     1     -12.275  14.195  64.761  1.00  0.00    -0.440 C  
ENDBRANCH   8  13
ENDBRANCH   3   7
BRANCH   6  20
HETATM   20  N   UNL     1     -11.501   7.908  71.805  1.00  0.00    -0.258 N  
HETATM   21  H   UNL     1     -12.498   7.696  71.765  1.00  0.00     0.000 HD 
BRANCH  20  22
HETATM   22  C   UNL     1     -10.725   7.217  72.701  1.00  0.00    -0.268 C  
HETATM   23  O   UNL     1     -10.075   7.712  73.617  1.00  0.00    -0.321 OA 
BRANCH  22  24
HETATM   24  N   UNL     1     -10.714   5.842  72.499  1.00  0.00    -0.221 N  
HETATM   25  C   UNL     1     -11.638   4.961  73.193  1.00  0.00    -0.213 C  
HETATM   26  C   UNL     1     -10.840   3.685  73.385  1.00  0.00    -0.314 C  
HETATM   27  C   UNL     1      -9.938   3.615  72.157  1.00  0.00    -0.238 C  
HETATM   28  C   UNL     1      -9.757   5.066  71.704  1.00  0.00    -0.170 C  
BRANCH  28  29
HETATM   29  C   UNL     1     -10.053   5.203  70.199  1.00  0.00    -0.272 C  
HETATM   30  N   UNL     1      -9.001   5.002  69.350  1.00  0.00    -0.091 N  
HETATM   31  O   UNL     1     -11.137   5.596  69.775  1.00  0.00    -0.328 OA 
HETATM   32  H1  UNL     1      -9.197   5.094  68.354  1.00  0.00     0.000 HD 
HETATM   33  H2  UNL     1      -8.069   4.773  69.696  1.00  0.00     0.000 HD 
ENDBRANCH  28  29
ENDBRANCH  22  24
ENDBRANCH  20  22
ENDBRANCH   6  20
TORSDOF 6
ENDMDL
MODEL       52
REMARK 921   NORMALIZED FREE ENERGY PREDICTED BY IDOCK:   -6.63 KCAL/MOL
REMARK 922        TOTAL FREE ENERGY PREDICTED BY IDOCK:  -10.05 KCAL/MOL
REMARK 923 INTER-LIGAND FREE ENERGY PREDICTED BY IDOCK:   -8.95 KCAL/MOL
REMARK 924 INTRA-LIGAND FREE ENERGY PREDICTED BY IDOCK:   -1.10 KCAL/MOL
REMARK 927      BINDING AFFINITY PREDICTED BY RF-SCORE:    0.00 PKD
ROOT
HETATM    1  C   UNL     1     -10.142  11.198  63.565  1.00  0.00    -0.437 C  
HETATM    2  C   UNL     1     -10.516  11.927  64.806  1.00  0.00    -0.289 A  
HETATM    3  C   UNL     1     -10.629  11.455  66.116  1.00  0.00    -0.265 A  
HETATM    4  S   UNL     1     -11.187  12.762  67.108  1.00  0.00    -0.309 SA 
HETATM    5  N   UNL     1     -10.774  13.283  64.638  1.00  0.00    -0.377 NA 
HETATM    6  C   UNL     1     -11.114  13.817  65.775  1.00  0.00    -0.289 A  
ENDROOT
BRANCH   3   7
HETATM    7  C   UNL     1     -10.403  10.124  66.718  1.00  0.00    -0.285 A  
HETATM    8  C   UNL     1     -10.511   8.573  68.601  1.00  0.00    -0.169 A  
HETATM    9  C   UNL     1      -9.600   7.876  66.584  1.00  0.00    -0.226 A  
HETATM   10  C   UNL     1     -10.746   9.843  68.054  1.00  0.00    -0.296 A  
HETATM   11  N   UNL     1      -9.922   7.602  67.864  1.00  0.00    -0.161 NA 
HETATM   12  C   UNL     1      -9.829   9.096  65.974  1.00  0.00    -0.342 A  
BRANCH   8  13
HETATM   13  C   UNL     1     -10.847   8.236  70.060  1.00  0.00    -0.232 C  
HETATM   14  F   UNL     1      -9.335   7.082  71.529  1.00  0.00    -0.153 F  
HETATM   15  C   UNL     1     -11.906   9.217  70.628  1.00  0.00    -0.222 C  
HETATM   16  C   UNL     1     -11.486   6.830  70.109  1.00  0.00    -0.404 C  
HETATM   17  F   UNL     1      -9.732   9.166  71.992  1.00  0.00    -0.374 F  
HETATM   18  F   UNL     1      -8.467   8.647  70.308  1.00  0.00    -0.109 F  
HETATM   19  C   UNL     1      -9.594   8.291  70.966  1.00  0.00    -0.160 C  
ENDBRANCH   8  13
ENDBRANCH   3   7
BRANCH   6  20
HETATM   20  N   UNL     1     -11.427  15.112  66.083  1.00  0.00    -0.229 N  
HETATM   21  H   UNL     1     -12.062  15.283  66.863  1.00  0.00     0.000 HD 
BRANCH  20  22
HETATM   22  C   UNL     1     -10.932  16.193  65.399  1.00  0.00    -0.227 C  
HETATM   23  O   UNL     1     -11.329  16.594  64.309  1.00  0.00    -1.116 OA 
BRANCH  22  24
HETATM   24  N   UNL     1      -9.892  16.847  66.047  1.00  0.00    -0.282 N  
HETATM   25  C   UNL     1     -10.038  18.201  66.552  1.00  0.00    -0.386 C  
HETATM   26  C   UNL     1      -8.652  18.796  66.387  1.00  0.00    -0.294 C  
HETATM   27  C   UNL     1      -7.707  17.618  66.606  1.00  0.00    -0.284 C  
HETATM   28  C   UNL     1      -8.514  16.375  66.221  1.00  0.00    -0.337 C  
BRANCH  28  29
HETATM   29  C   UNL     1      -8.432  15.313  67.332  1.00  0.00    -0.179 C  
HETATM   30  N   UNL     1      -7.698  14.194  67.052  1.00  0.00    -0.340 N  
HETATM   31  O   UNL     1      -9.086  15.392  68.368  1.00  0.00    -0.182 OA 
HETATM   32  H1  UNL     1      -7.644  13.490  67.788  1.00  0.00     0.000 HD 
HETATM   33  H2  UNL     1      -7.230  14.070  66.154  1.00  0.00     0.000 HD 
ENDBRANCH  28  29
ENDBRANCH  22  24
ENDBRANCH  20  22
ENDBRANCH   6  20
TORSDOF 6
ENDMDL
MODEL       53
REMARK 921   NORMALIZED FREE ENERGY PREDICTED BY IDOCK:   -6.60 KCAL/MOL
REMARK 922        TOTAL FREE ENERGY PREDICTED BY IDOCK:  -10.01 KCAL/MOL
REMARK 923 INTER-LIGAND FREE ENERGY PREDICTED BY IDOCK:   -8.73 KCAL/MOL
REMARK 924 INTRA-LIGAND FREE ENERGY PREDICTED BY IDOCK:   -1.28 KCAL/MOL
REMARK 927      BINDING AFFINITY PREDICTED BY RF-SCORE:    0.00 PKD
ROOT
HETATM    1  C   UNL     1     -12.567  11.784  63.567  1.00  0.00    -0.485 C  
HETATM    2  C   UNL     1     -11.840  12.490  64.655  1.00  0.00    -0.378 A  
HETATM    3  C   UNL     1     -10.840  12.018  65.510  1.00  0.00    -0.292 A  
HETATM    4  S   UNL     1     -10.450  13.284  66.627  1.00  0.00    -0.282 SA 
HETATM    5  N   UNL     1     -12.196  13.821  64.837  1.00  0.00    -0.399 NA 
HETATM    6  C   UNL     1     -11.521  14.334  65.825  1.00  0.00    -0.335 A  
ENDROOT
BRANCH   3   7
HETATM    7  C   UNL     1     -10.158  10.710  65.617  1.00  0.00    -0.335 A  
HETATM    8  C   UNL     1      -9.618   8.664  66.836  1.00  0.00    -0.194 A  
HETATM    9  C   UNL     1      -8.703   9.031  64.736  1.00  0.00    -0.153 A  
HETATM   10  C   UNL     1     -10.285   9.896  66.759  1.00  0.00    -0.301 A  
HETATM   11  N   UNL     1      -8.816   8.248  65.828  1.00  0.00    -0.167 NA 
HETATM   12  C   UNL     1      -9.352  10.242  64.582  1.00  0.00    -0.320 A  
BRANCH   8  13
HETATM   13  C   UNL     1      -9.711   7.761  68.074  1.00  0.00    -0.176 C  
HETATM   14  F   UNL     1     -11.743   6.687  68.774  1.00  0.00    -0.218 F  
HETATM   15  C   UNL     1      -8.331   7.140  68.414  1.00  0.00    -0.125 C  
HETATM   16  C   UNL     1     -10.108   8.629  69.290  1.00  0.00    -0.203 C  
HETATM   17  F   UNL     1     -10.170   5.389  68.031  1.00  0.00    -0.181 F  
HETATM   18  F   UNL     1     -11.310   6.615  66.652  1.00  0.00    -0.439 F  
HETATM   19  C   UNL     1     -10.729   6.614  67.874  1.00  0.00    -0.274 C  
ENDBRANCH   8  13
ENDBRANCH   3   7
BRANCH   6  20
HETATM   20  N   UNL     1     -11.529  15.603  66.333  1.00  0.00     0.063 N  
HETATM   21  H   UNL     1     -12.143  15.804  67.122  1.00  0.00     0.000 HD 
BRANCH  20  22
HETATM   22  C   UNL     1     -10.753  16.621  65.839  1.00  0.00    -0.175 C  
HETATM   23  O   UNL     1     -10.976  17.260  64.815  1.00  0.00    -0.950 OA 
BRANCH  22  24
HETATM   24  N   UNL     1      -9.631  16.903  66.608  1.00  0.00    -0.255 N  
HETATM   25  C   UNL     1      -8.303  16.471  66.209  1.00  0.00    -0.329 C  
HETATM   26  C   UNL     1      -7.602  16.202  67.527  1.00  0.00    -0.173 C  
HETATM   27  C   UNL     1      -8.203  17.222  68.490  1.00  0.00    -0.267 C  
HETATM   28  C   UNL     1      -9.594  17.535  67.932  1.00  0.00    -0.277 C  
BRANCH  28  29
HETATM   29  C   UNL     1      -9.803  19.056  67.822  1.00  0.00    -0.336 C  
HETATM   30  N   UNL     1     -10.969  19.470  67.242  1.00  0.00    -0.450 N  
HETATM   31  O   UNL     1      -8.926  19.863  68.117  1.00  0.00    -0.322 OA 
HETATM   32  H1  UNL     1     -11.107  20.478  67.169  1.00  0.00     0.000 HD 
HETATM   33  H2  UNL     1     -11.664  18.806  66.900  1.00  0.00     0.000 HD 
ENDBRANCH  28  29
ENDBRANCH  22  24
ENDBRANCH  20  22
ENDBRANCH   6  20
TORSDOF 6
ENDMDL
MODEL       54
REMARK 921   NORMALIZED FREE ENERGY PREDICTED BY IDOCK:   -6.59 KCAL/MOL
REMARK 922        TOTAL FREE ENERGY PREDICTED BY IDOCK:  -10.00 KCAL/MOL
REMARK 923 INTER-LIGAND FREE ENERGY PREDICTED BY IDOCK:   -9.00 KCAL/MOL
REMARK 924 INTRA-LIGAND FREE ENERGY PREDICTED BY IDOCK:   -1.00 KCAL/MOL
REMARK 927      BINDING AFFINITY PREDICTED BY RF-SCORE:    0.00 PKD
ROOT
HETATM    1  C   UNL     1     -13.073   9.812  72.092  1.00  0.00    -0.513 C  
HETATM    2  C   UNL     1     -12.164  10.099  70.950  1.00  0.00    -0.356 A  
HETATM    3  C   UNL     1     -11.276   9.250  70.285  1.00  0.00    -0.231 A  
HETATM    4  S   UNL     1     -10.430  10.187  69.097  1.00  0.00    -0.237 SA 
HETATM    5  N   UNL     1     -12.220  11.400  70.463  1.00  0.00    -0.377 NA 
HETATM    6  C   UNL     1     -11.372  11.549  69.487  1.00  0.00    -0.274 A  
ENDROOT
BRANCH   3   7
HETATM    7  C   UNL     1     -10.953   7.818  70.453  1.00  0.00    -0.255 A  
HETATM    8  C   UNL     1     -10.279   5.916  71.830  1.00  0.00    -0.203 A  
HETATM    9  C   UNL     1     -10.647   5.622  69.559  1.00  0.00    -0.314 A  
HETATM   10  C   UNL     1     -10.590   7.278  71.702  1.00  0.00    -0.228 A  
HETATM   11  N   UNL     1     -10.294   5.100  70.750  1.00  0.00    -0.241 NA 
HETATM   12  C   UNL     1     -10.991   6.947  69.366  1.00  0.00    -0.274 A  
BRANCH   8  13
HETATM   13  C   UNL     1      -9.854   5.297  73.169  1.00  0.00    -0.173 C  
HETATM   14  F   UNL     1      -7.895   3.931  73.427  1.00  0.00    -0.076 F  
HETATM   15  C   UNL     1     -10.407   6.119  74.363  1.00  0.00    -0.280 C  
HETATM   16  C   UNL     1     -10.480   3.889  73.283  1.00  0.00    -0.256 C  
HETATM   17  F   UNL     1      -7.851   5.875  74.392  1.00  0.00    -0.097 F  
HETATM   18  F   UNL     1      -7.654   5.725  72.237  1.00  0.00    -0.093 F  
HETATM   19  C   UNL     1      -8.315   5.216  73.301  1.00  0.00    -0.111 C  
ENDBRANCH   8  13
ENDBRANCH   3   7
BRANCH   6  20
HETATM   20  N   UNL     1     -11.110  12.639  68.706  1.00  0.00    -0.251 N  
HETATM   21  H   UNL     1     -10.767  13.487  69.159  1.00  0.00     0.000 HD 
BRANCH  20  22
HETATM   22  C   UNL     1     -11.282  12.655  67.345  1.00  0.00    -0.290 C  
HETATM   23  O   UNL     1     -12.034  11.921  66.709  1.00  0.00    -0.613 OA 
BRANCH  22  24
HETATM   24  N   UNL     1     -10.508  13.601  66.686  1.00  0.00    -0.270 N  
HETATM   25  C   UNL     1      -9.085  13.738  66.944  1.00  0.00    -0.242 C  
HETATM   26  C   UNL     1      -8.829  15.222  66.761  1.00  0.00    -0.302 C  
HETATM   27  C   UNL     1      -9.814  15.645  65.674  1.00  0.00    -0.369 C  
HETATM   28  C   UNL     1     -10.971  14.647  65.767  1.00  0.00    -0.330 C  
BRANCH  28  29
HETATM   29  C   UNL     1     -11.289  14.059  64.380  1.00  0.00    -0.319 C  
HETATM   30  N   UNL     1     -12.436  14.500  63.780  1.00  0.00    -1.065 N  
HETATM   31  O   UNL     1     -10.629  13.151  63.883  1.00  0.00    -0.361 OA 
HETATM   32  H1  UNL     1     -12.647  14.110  62.862  1.00  0.00     0.000 HD 
HETATM   33  H2  UNL     1     -13.048  15.182  64.228  1.00  0.00     0.000 HD 
ENDBRANCH  28  29
ENDBRANCH  22  24
ENDBRANCH  20  22
ENDBRANCH   6  20
TORSDOF 6
ENDMDL
MODEL       55
REMARK 921   NORMALIZED FREE ENERGY PREDICTED BY IDOCK:   -6.57 KCAL/MOL
REMARK 922        TOTAL FREE ENERGY PREDICTED BY IDOCK:   -9.97 KCAL/MOL
REMARK 923 INTER-LIGAND FREE ENERGY PREDICTED BY IDOCK:   -8.89 KCAL/MOL
REMARK 924 INTRA-LIGAND FREE ENERGY PREDICTED BY IDOCK:   -1.08 KCAL/MOL
REMARK 927      BINDING AFFINITY PREDICTED BY RF-SCORE:    0.00 PKD
ROOT
HETATM    1  C   UNL     1      -7.277  12.783  68.286  1.00  0.00    -0.114 C  
HETATM    2  C   UNL     1      -8.739  12.521  68.197  1.00  0.00    -0.190 A  
HETATM    3  C   UNL     1      -9.754  13.314  67.658  1.00  0.00    -0.219 A  
HETATM    4  S   UNL     1     -11.264  12.508  67.931  1.00  0.00    -0.285 SA 
HETATM    5  N   UNL     1      -9.151  11.297  68.712  1.00  0.00    -0.154 NA 
HETATM    6  C   UNL     1     -10.443  11.181  68.608  1.00  0.00    -0.197 A  
ENDROOT
BRANCH   3   7
HETATM    7  C   UNL     1      -9.738  14.632  66.988  1.00  0.00    -0.247 A  
HETATM    8  C   UNL     1      -8.822  16.876  66.686  1.00  0.00    -0.246 A  
HETATM    9  C   UNL     1     -10.634  16.188  65.410  1.00  0.00    -0.380 A  
HETATM   10  C   UNL     1      -8.808  15.631  67.333  1.00  0.00    -0.204 A  
HETATM   11  N   UNL     1      -9.749  17.151  65.739  1.00  0.00    -0.547 NA 
HETATM   12  C   UNL     1     -10.659  14.932  65.986  1.00  0.00    -0.321 A  
BRANCH   8  13
HETATM   13  C   UNL     1      -7.842  17.999  67.053  1.00  0.00    -0.236 C  
HETATM   14  F   UNL     1      -8.533  20.251  67.523  1.00  0.00    -0.343 F  
HETATM   15  C   UNL     1      -6.546  17.423  67.680  1.00  0.00    -0.168 C  
HETATM   16  C   UNL     1      -7.413  18.723  65.757  1.00  0.00    -0.147 C  
HETATM   17  F   UNL     1      -7.745  19.113  69.195  1.00  0.00    -0.367 F  
HETATM   18  F   UNL     1      -9.726  18.682  68.423  1.00  0.00    -0.306 F  
HETATM   19  C   UNL     1      -8.465  19.003  68.051  1.00  0.00    -0.301 C  
ENDBRANCH   8  13
ENDBRANCH   3   7
BRANCH   6  20
HETATM   20  N   UNL     1     -11.267  10.147  68.956  1.00  0.00    -0.373 N  
HETATM   21  H   UNL     1     -12.275  10.303  68.932  1.00  0.00     0.000 HD 
BRANCH  20  22
HETATM   22  C   UNL     1     -10.810   8.911  69.337  1.00  0.00    -0.119 C  
HETATM   23  O   UNL     1     -10.420   8.026  68.581  1.00  0.00    -0.207 OA 
BRANCH  22  24
HETATM   24  N   UNL     1     -10.818   8.702  70.711  1.00  0.00    -0.222 N  
HETATM   25  C   UNL     1      -9.633   8.922  71.523  1.00  0.00    -0.292 C  
HETATM   26  C   UNL     1      -9.752   7.881  72.619  1.00  0.00    -0.304 C  
HETATM   27  C   UNL     1     -11.254   7.743  72.848  1.00  0.00    -0.434 C  
HETATM   28  C   UNL     1     -11.905   8.143  71.521  1.00  0.00    -0.294 C  
BRANCH  28  29
HETATM   29  C   UNL     1     -13.011   9.188  71.755  1.00  0.00    -0.380 C  
HETATM   30  N   UNL     1     -13.800   9.004  72.856  1.00  0.00    -0.923 N  
HETATM   31  O   UNL     1     -13.265  10.071  70.940  1.00  0.00    -0.370 OA 
HETATM   32  H1  UNL     1     -14.533   9.696  73.010  1.00  0.00     0.000 HD 
HETATM   33  H2  UNL     1     -13.663   8.216  73.488  1.00  0.00     0.000 HD 
ENDBRANCH  28  29
ENDBRANCH  22  24
ENDBRANCH  20  22
ENDBRANCH   6  20
TORSDOF 6
ENDMDL
MODEL       56
REMARK 921   NORMALIZED FREE ENERGY PREDICTED BY IDOCK:   -6.54 KCAL/MOL
REMARK 922        TOTAL FREE ENERGY PREDICTED BY IDOCK:   -9.92 KCAL/MOL
REMARK 923 INTER-LIGAND FREE ENERGY PREDICTED BY IDOCK:   -8.41 KCAL/MOL
REMARK 924 INTRA-LIGAND FREE ENERGY PREDICTED BY IDOCK:   -1.52 KCAL/MOL
REMARK 927      BINDING AFFINITY PREDICTED BY RF-SCORE:    0.00 PKD
ROOT
HETATM    1  C   UNL     1     -10.057   9.647  66.260  1.00  0.00    -0.322 C  
HETATM    2  C   UNL     1     -10.020  10.988  66.902  1.00  0.00    -0.196 A  
HETATM    3  C   UNL     1     -10.490  11.390  68.155  1.00  0.00    -0.187 A  
HETATM    4  S   UNL     1     -10.240  13.099  68.297  1.00  0.00    -0.250 SA 
HETATM    5  N   UNL     1      -9.411  11.986  66.149  1.00  0.00    -0.235 NA 
HETATM    6  C   UNL     1      -9.454  13.119  66.788  1.00  0.00    -0.252 A  
ENDROOT
BRANCH   3   7
HETATM    7  C   UNL     1     -11.143  10.651  69.256  1.00  0.00    -0.306 A  
HETATM    8  C   UNL     1     -11.186   8.846  70.901  1.00  0.00    -0.279 A  
HETATM    9  C   UNL     1     -12.989  10.297  70.733  1.00  0.00    -0.330 A  
HETATM   10  C   UNL     1     -10.538   9.534  69.864  1.00  0.00    -0.269 A  
HETATM   11  N   UNL     1     -12.418   9.224  71.317  1.00  0.00    -0.318 NA 
HETATM   12  C   UNL     1     -12.397  11.036  69.727  1.00  0.00    -0.331 A  
BRANCH   8  13
HETATM   13  C   UNL     1     -10.571   7.609  71.570  1.00  0.00    -0.239 C  
HETATM   14  F   UNL     1     -11.761   5.543  71.869  1.00  0.00    -0.250 F  
HETATM   15  C   UNL     1      -9.025   7.620  71.446  1.00  0.00    -0.144 C  
HETATM   16  C   UNL     1     -10.886   7.657  73.082  1.00  0.00    -0.440 C  
HETATM   17  F   UNL     1     -10.111   5.513  70.459  1.00  0.00    -0.225 F  
HETATM   18  F   UNL     1     -11.974   6.492  69.933  1.00  0.00    -0.456 F  
HETATM   19  C   UNL     1     -11.103   6.295  70.950  1.00  0.00    -0.306 C  
ENDBRANCH   8  13
ENDBRANCH   3   7
BRANCH   6  20
HETATM   20  N   UNL     1      -8.962  14.346  66.443  1.00  0.00    -0.476 N  
HETATM   21  H   UNL     1      -9.347  14.807  65.619  1.00  0.00     0.000 HD 
BRANCH  20  22
HETATM   22  C   UNL     1      -7.976  14.991  67.146  1.00  0.00    -0.206 C  
HETATM   23  O   UNL     1      -6.990  14.461  67.649  1.00  0.00    -0.165 OA 
BRANCH  22  24
HETATM   24  N   UNL     1      -8.170  16.361  67.267  1.00  0.00    -0.160 N  
HETATM   25  C   UNL     1      -7.702  17.291  66.255  1.00  0.00    -0.318 C  
HETATM   26  C   UNL     1      -7.335  18.531  67.048  1.00  0.00    -0.224 C  
HETATM   27  C   UNL     1      -8.331  18.547  68.205  1.00  0.00    -0.344 C  
HETATM   28  C   UNL     1      -8.731  17.084  68.414  1.00  0.00    -0.247 C  
BRANCH  28  29
HETATM   29  C   UNL     1     -10.264  16.944  68.456  1.00  0.00    -0.310 C  
HETATM   30  N   UNL     1     -10.848  17.014  69.690  1.00  0.00    -0.358 N  
HETATM   31  O   UNL     1     -10.926  16.659  67.463  1.00  0.00    -0.266 OA 
HETATM   32  H1  UNL     1     -11.863  16.921  69.718  1.00  0.00     0.000 HD 
HETATM   33  H2  UNL     1     -10.297  17.151  70.537  1.00  0.00     0.000 HD 
ENDBRANCH  28  29
ENDBRANCH  22  24
ENDBRANCH  20  22
ENDBRANCH   6  20
TORSDOF 6
ENDMDL
MODEL       57
REMARK 921   NORMALIZED FREE ENERGY PREDICTED BY IDOCK:   -6.53 KCAL/MOL
REMARK 922        TOTAL FREE ENERGY PREDICTED BY IDOCK:   -9.91 KCAL/MOL
REMARK 923 INTER-LIGAND FREE ENERGY PREDICTED BY IDOCK:   -8.66 KCAL/MOL
REMARK 924 INTRA-LIGAND FREE ENERGY PREDICTED BY IDOCK:   -1.26 KCAL/MOL
REMARK 927      BINDING AFFINITY PREDICTED BY RF-SCORE:    0.00 PKD
ROOT
HETATM    1  C   UNL     1     -12.024  13.321  69.741  1.00  0.00    -0.391 C  
HETATM    2  C   UNL     1     -11.053  13.345  68.615  1.00  0.00    -0.263 A  
HETATM    3  C   UNL     1     -10.427  12.284  67.956  1.00  0.00    -0.218 A  
HETATM    4  S   UNL     1      -9.334  12.950  66.788  1.00  0.00    -0.236 SA 
HETATM    5  N   UNL     1     -10.735  14.611  68.137  1.00  0.00    -0.239 NA 
HETATM    6  C   UNL     1      -9.863  14.520  67.174  1.00  0.00    -0.245 A  
ENDROOT
BRANCH   3   7
HETATM    7  C   UNL     1     -10.522  10.817  68.118  1.00  0.00    -0.214 A  
HETATM    8  C   UNL     1     -10.755   8.822  69.506  1.00  0.00    -0.188 A  
HETATM    9  C   UNL     1     -10.506   8.606  67.210  1.00  0.00    -0.289 A  
HETATM   10  C   UNL     1     -10.679  10.217  69.382  1.00  0.00    -0.266 A  
HETATM   11  N   UNL     1     -10.651   8.024  68.417  1.00  0.00    -0.152 NA 
HETATM   12  C   UNL     1     -10.450   9.973  67.012  1.00  0.00    -0.302 A  
BRANCH   8  13
HETATM   13  C   UNL     1     -10.899   8.129  70.869  1.00  0.00    -0.254 C  
HETATM   14  F   UNL     1      -9.416   6.401  71.633  1.00  0.00    -0.154 F  
HETATM   15  C   UNL     1     -11.636   9.043  71.883  1.00  0.00    -0.441 C  
HETATM   16  C   UNL     1     -11.783   6.874  70.694  1.00  0.00    -0.417 C  
HETATM   17  F   UNL     1      -9.315   8.296  72.686  1.00  0.00    -0.249 F  
HETATM   18  F   UNL     1      -8.478   8.113  70.693  1.00  0.00    -0.115 F  
HETATM   19  C   UNL     1      -9.525   7.744  71.466  1.00  0.00    -0.144 C  
ENDBRANCH   8  13
ENDBRANCH   3   7
BRANCH   6  20
HETATM   20  N   UNL     1      -9.293  15.495  66.405  1.00  0.00    -0.272 N  
HETATM   21  H   UNL     1      -8.297  15.424  66.194  1.00  0.00     0.000 HD 
BRANCH  20  22
HETATM   22  C   UNL     1      -9.988  16.566  65.902  1.00  0.00    -0.317 C  
HETATM   23  O   UNL     1     -10.746  16.538  64.936  1.00  0.00    -0.702 OA 
BRANCH  22  24
HETATM   24  N   UNL     1      -9.771  17.755  66.586  1.00  0.00    -0.300 N  
HETATM   25  C   UNL     1     -10.656  18.196  67.650  1.00  0.00    -0.406 C  
HETATM   26  C   UNL     1     -10.631  19.708  67.533  1.00  0.00    -0.577 C  
HETATM   27  C   UNL     1      -9.219  20.027  67.049  1.00  0.00    -0.491 C  
HETATM   28  C   UNL     1      -8.756  18.775  66.300  1.00  0.00    -0.233 C  
BRANCH  28  29
HETATM   29  C   UNL     1      -7.370  18.327  66.801  1.00  0.00    -0.212 C  
HETATM   30  N   UNL     1      -6.298  18.701  66.040  1.00  0.00    -0.200 N  
HETATM   31  O   UNL     1      -7.229  17.570  67.757  1.00  0.00    -0.172 OA 
HETATM   32  H1  UNL     1      -5.380  18.404  66.371  1.00  0.00     0.000 HD 
HETATM   33  H2  UNL     1      -6.410  19.247  65.186  1.00  0.00     0.000 HD 
ENDBRANCH  28  29
ENDBRANCH  22  24
ENDBRANCH  20  22
ENDBRANCH   6  20
TORSDOF 6
ENDMDL
MODEL       58
REMARK 921   NORMALIZED FREE ENERGY PREDICTED BY IDOCK:   -6.52 KCAL/MOL
REMARK 922        TOTAL FREE ENERGY PREDICTED BY IDOCK:   -9.91 KCAL/MOL
REMARK 923 INTER-LIGAND FREE ENERGY PREDICTED BY IDOCK:   -9.13 KCAL/MOL
REMARK 924 INTRA-LIGAND FREE ENERGY PREDICTED BY IDOCK:   -0.78 KCAL/MOL
REMARK 927      BINDING AFFINITY PREDICTED BY RF-SCORE:    0.00 PKD
ROOT
HETATM    1  C   UNL     1     -10.311  11.449  64.865  1.00  0.00    -0.347 C  
HETATM    2  C   UNL     1     -10.437  11.890  66.280  1.00  0.00    -0.239 A  
HETATM    3  C   UNL     1     -10.599  13.176  66.801  1.00  0.00    -0.263 A  
HETATM    4  S   UNL     1     -10.593  13.057  68.530  1.00  0.00    -0.245 SA 
HETATM    5  N   UNL     1     -10.404  10.868  67.222  1.00  0.00    -0.205 NA 
HETATM    6  C   UNL     1     -10.496  11.362  68.422  1.00  0.00    -0.200 A  
ENDROOT
BRANCH   3   7
HETATM    7  C   UNL     1     -10.726  14.501  66.158  1.00  0.00    -0.310 A  
HETATM    8  C   UNL     1     -10.323  16.910  66.108  1.00  0.00    -0.320 A  
HETATM    9  C   UNL     1     -11.531  15.907  64.400  1.00  0.00    -0.264 A  
HETATM   10  C   UNL     1     -10.179  15.664  66.736  1.00  0.00    -0.278 A  
HETATM   11  N   UNL     1     -11.015  17.024  64.949  1.00  0.00    -0.769 NA 
HETATM   12  C   UNL     1     -11.404  14.644  64.950  1.00  0.00    -0.403 A  
BRANCH   8  13
HETATM   13  C   UNL     1      -9.765  18.203  66.719  1.00  0.00    -0.324 C  
HETATM   14  F   UNL     1      -7.806  18.265  68.109  1.00  0.00    -0.252 F  
HETATM   15  C   UNL     1     -10.178  19.439  65.879  1.00  0.00    -0.471 C  
HETATM   16  C   UNL     1     -10.392  18.399  68.117  1.00  0.00    -0.393 C  
HETATM   17  F   UNL     1      -7.637  19.198  66.156  1.00  0.00    -0.248 F  
HETATM   18  F   UNL     1      -7.672  17.037  66.329  1.00  0.00    -0.261 F  
HETATM   19  C   UNL     1      -8.222  18.171  66.819  1.00  0.00    -0.252 C  
ENDBRANCH   8  13
ENDBRANCH   3   7
BRANCH   6  20
HETATM   20  N   UNL     1     -10.531  10.733  69.635  1.00  0.00    -0.406 N  
HETATM   21  H   UNL     1     -11.230  11.033  70.315  1.00  0.00     0.000 HD 
BRANCH  20  22
HETATM   22  C   UNL     1      -9.675   9.721  69.987  1.00  0.00    -0.250 C  
HETATM   23  O   UNL     1      -8.489   9.645  69.680  1.00  0.00    -0.141 OA 
BRANCH  22  24
HETATM   24  N   UNL     1     -10.262   8.723  70.755  1.00  0.00    -0.199 N  
HETATM   25  C   UNL     1     -11.026   7.645  70.152  1.00  0.00    -0.246 C  
HETATM   26  C   UNL     1     -12.095   7.341  71.184  1.00  0.00    -0.376 C  
HETATM   27  C   UNL     1     -11.416   7.617  72.523  1.00  0.00    -0.405 C  
HETATM   28  C   UNL     1     -10.324   8.645  72.219  1.00  0.00    -0.306 C  
BRANCH  28  29
HETATM   29  C   UNL     1      -8.975   8.190  72.803  1.00  0.00    -0.246 C  
HETATM   30  N   UNL     1      -8.971   6.993  73.464  1.00  0.00    -0.139 N  
HETATM   31  O   UNL     1      -7.978   8.907  72.795  1.00  0.00    -0.375 OA 
HETATM   32  H1  UNL     1      -8.076   6.692  73.851  1.00  0.00     0.000 HD 
HETATM   33  H2  UNL     1      -9.817   6.433  73.565  1.00  0.00     0.000 HD 
ENDBRANCH  28  29
ENDBRANCH  22  24
ENDBRANCH  20  22
ENDBRANCH   6  20
TORSDOF 6
ENDMDL
MODEL       59
REMARK 921   NORMALIZED FREE ENERGY PREDICTED BY IDOCK:   -6.42 KCAL/MOL
REMARK 922        TOTAL FREE ENERGY PREDICTED BY IDOCK:   -9.77 KCAL/MOL
REMARK 923 INTER-LIGAND FREE ENERGY PREDICTED BY IDOCK:   -8.33 KCAL/MOL
REMARK 924 INTRA-LIGAND FREE ENERGY PREDICTED BY IDOCK:   -1.44 KCAL/MOL
REMARK 927      BINDING AFFINITY PREDICTED BY RF-SCORE:    0.00 PKD
ROOT
HETATM    1  C   UNL     1     -10.472  15.686  70.054  1.00  0.00    -0.333 C  
HETATM    2  C   UNL     1     -10.705  15.450  68.604  1.00  0.00    -0.246 A  
HETATM    3  C   UNL     1     -10.483  16.298  67.516  1.00  0.00    -0.302 A  
HETATM    4  S   UNL     1     -11.035  15.490  66.086  1.00  0.00    -0.188 SA 
HETATM    5  N   UNL     1     -11.202  14.192  68.283  1.00  0.00    -0.260 NA 
HETATM    6  C   UNL     1     -11.392  14.100  66.999  1.00  0.00    -0.332 A  
ENDROOT
BRANCH   3   7
HETATM    7  C   UNL     1      -9.936  17.668  67.419  1.00  0.00    -0.321 A  
HETATM    8  C   UNL     1      -8.063  19.235  67.403  1.00  0.00    -0.277 A  
HETATM    9  C   UNL     1     -10.233  20.031  67.210  1.00  0.00    -0.424 A  
HETATM   10  C   UNL     1      -8.553  17.924  67.488  1.00  0.00    -0.239 A  
HETATM   11  N   UNL     1      -8.911  20.283  67.281  1.00  0.00    -0.354 NA 
HETATM   12  C   UNL     1     -10.783  18.763  67.261  1.00  0.00    -0.490 A  
BRANCH   8  13
HETATM   13  C   UNL     1      -6.565  19.556  67.501  1.00  0.00    -0.235 C  
HETATM   14  F   UNL     1      -5.639  21.037  69.151  1.00  0.00    -0.355 F  
HETATM   15  C   UNL     1      -5.710  18.412  66.897  1.00  0.00    -0.165 C  
HETATM   16  C   UNL     1      -6.272  20.812  66.650  1.00  0.00    -0.299 C  
HETATM   17  F   UNL     1      -5.130  18.935  69.343  1.00  0.00    -0.179 F  
HETATM   18  F   UNL     1      -7.119  19.625  69.863  1.00  0.00    -0.339 F  
HETATM   19  C   UNL     1      -6.120  19.781  68.965  1.00  0.00    -0.276 C  
ENDBRANCH   8  13
ENDBRANCH   3   7
BRANCH   6  20
HETATM   20  N   UNL     1     -11.839  13.050  66.246  1.00  0.00    -0.390 N  
HETATM   21  H   UNL     1     -12.841  12.860  66.227  1.00  0.00     0.000 HD 
BRANCH  20  22
HETATM   22  C   UNL     1     -11.010  12.236  65.515  1.00  0.00    -0.298 C  
HETATM   23  O   UNL     1     -10.871  12.266  64.295  1.00  0.00    -0.300 OA 
BRANCH  22  24
HETATM   24  N   UNL     1     -10.297  11.320  66.278  1.00  0.00    -0.239 N  
HETATM   25  C   UNL     1     -10.909  10.610  67.387  1.00  0.00    -0.296 C  
HETATM   26  C   UNL     1      -9.769  10.437  68.374  1.00  0.00    -0.167 C  
HETATM   27  C   UNL     1      -8.530  10.284  67.496  1.00  0.00    -0.118 C  
HETATM   28  C   UNL     1      -8.865  11.013  66.192  1.00  0.00    -0.190 C  
BRANCH  28  29
HETATM   29  C   UNL     1      -8.567  10.114  64.979  1.00  0.00    -0.167 C  
HETATM   30  N   UNL     1      -8.252  10.752  63.811  1.00  0.00    -0.365 N  
HETATM   31  O   UNL     1      -8.723   8.897  65.007  1.00  0.00    -0.182 OA 
HETATM   32  H1  UNL     1      -8.054  10.156  63.007  1.00  0.00     0.000 HD 
HETATM   33  H2  UNL     1      -8.216  11.769  63.748  1.00  0.00     0.000 HD 
ENDBRANCH  28  29
ENDBRANCH  22  24
ENDBRANCH  20  22
ENDBRANCH   6  20
TORSDOF 6
ENDMDL
MODEL       60
REMARK 921   NORMALIZED FREE ENERGY PREDICTED BY IDOCK:   -6.41 KCAL/MOL
REMARK 922        TOTAL FREE ENERGY PREDICTED BY IDOCK:   -9.75 KCAL/MOL
REMARK 923 INTER-LIGAND FREE ENERGY PREDICTED BY IDOCK:   -8.67 KCAL/MOL
REMARK 924 INTRA-LIGAND FREE ENERGY PREDICTED BY IDOCK:   -1.09 KCAL/MOL
REMARK 927      BINDING AFFINITY PREDICTED BY RF-SCORE:    0.00 PKD
ROOT
HETATM    1  C   UNL     1     -10.863  14.138  64.865  1.00  0.00    -0.423 C  
HETATM    2  C   UNL     1     -10.289  13.427  66.038  1.00  0.00    -0.297 A  
HETATM    3  C   UNL     1      -9.955  13.921  67.302  1.00  0.00    -0.242 A  
HETATM    4  S   UNL     1      -9.244  12.627  68.210  1.00  0.00    -0.148 SA 
HETATM    5  N   UNL     1     -10.069  12.067  65.855  1.00  0.00    -0.230 NA 
HETATM    6  C   UNL     1      -9.545  11.550  66.928  1.00  0.00    -0.187 A  
ENDROOT
BRANCH   3   7
HETATM    7  C   UNL     1     -10.070  15.264  67.909  1.00  0.00    -0.233 A  
HETATM    8  C   UNL     1      -9.561  17.652  67.949  1.00  0.00    -0.282 A  
HETATM    9  C   UNL     1     -10.861  16.722  69.630  1.00  0.00    -0.204 A  
HETATM   10  C   UNL     1      -9.442  16.391  67.346  1.00  0.00    -0.227 A  
HETATM   11  N   UNL     1     -10.258  17.804  69.099  1.00  0.00    -0.305 NA 
HETATM   12  C   UNL     1     -10.808  15.457  69.075  1.00  0.00    -0.244 A  
BRANCH   8  13
HETATM   13  C   UNL     1      -8.869  18.899  67.381  1.00  0.00    -0.293 C  
HETATM   14  F   UNL     1      -9.728  20.150  65.518  1.00  0.00    -0.420 F  
HETATM   15  C   UNL     1      -7.990  19.587  68.457  1.00  0.00    -0.383 C  
HETATM   16  C   UNL     1      -7.908  18.459  66.253  1.00  0.00    -0.273 C  
HETATM   17  F   UNL     1      -9.769  21.140  67.449  1.00  0.00    -0.616 F  
HETATM   18  F   UNL     1     -11.178  19.550  67.012  1.00  0.00    -0.558 F  
HETATM   19  C   UNL     1      -9.890  19.931  66.848  1.00  0.00    -0.414 C  
ENDBRANCH   8  13
ENDBRANCH   3   7
BRANCH   6  20
HETATM   20  N   UNL     1      -9.191  10.258  67.202  1.00  0.00    -0.145 N  
HETATM   21  H   UNL     1      -8.199  10.027  67.238  1.00  0.00     0.000 HD 
BRANCH  20  22
HETATM   22  C   UNL     1     -10.101   9.257  67.432  1.00  0.00    -0.223 C  
HETATM   23  O   UNL     1     -10.491   8.439  66.603  1.00  0.00    -0.294 OA 
BRANCH  22  24
HETATM   24  N   UNL     1     -10.587   9.220  68.732  1.00  0.00    -0.214 N  
HETATM   25  C   UNL     1     -11.745   9.998  69.137  1.00  0.00     0.135 C  
HETATM   26  C   UNL     1     -11.451  10.353  70.583  1.00  0.00    -0.438 C  
HETATM   27  C   UNL     1     -10.668   9.155  71.114  1.00  0.00    -0.380 C  
HETATM   28  C   UNL     1      -9.993   8.537  69.887  1.00  0.00    -0.189 C  
BRANCH  28  29
HETATM   29  C   UNL     1     -10.262   7.022  69.828  1.00  0.00    -0.201 C  
HETATM   30  N   UNL     1     -11.314   6.620  69.053  1.00  0.00    -0.576 N  
HETATM   31  O   UNL     1      -9.657   6.218  70.531  1.00  0.00    -0.164 OA 
HETATM   32  H1  UNL     1     -11.492   5.617  69.014  1.00  0.00     0.000 HD 
HETATM   33  H2  UNL     1     -11.889   7.288  68.541  1.00  0.00     0.000 HD 
ENDBRANCH  28  29
ENDBRANCH  22  24
ENDBRANCH  20  22
ENDBRANCH   6  20
TORSDOF 6
ENDMDL
MODEL       61
REMARK 921   NORMALIZED FREE ENERGY PREDICTED BY IDOCK:   -6.40 KCAL/MOL
REMARK 922        TOTAL FREE ENERGY PREDICTED BY IDOCK:   -9.73 KCAL/MOL
REMARK 923 INTER-LIGAND FREE ENERGY PREDICTED BY IDOCK:   -8.54 KCAL/MOL
REMARK 924 INTRA-LIGAND FREE ENERGY PREDICTED BY IDOCK:   -1.19 KCAL/MOL
REMARK 927      BINDING AFFINITY PREDICTED BY RF-SCORE:    0.00 PKD
ROOT
HETATM    1  C   UNL     1      -8.826  10.449  64.157  1.00  0.00    -0.228 C  
HETATM    2  C   UNL     1      -9.645  10.392  65.397  1.00  0.00    -0.246 A  
HETATM    3  C   UNL     1     -10.306  11.420  66.075  1.00  0.00    -0.249 A  
HETATM    4  S   UNL     1     -11.016  10.746  67.505  1.00  0.00    -0.310 SA 
HETATM    5  N   UNL     1      -9.786   9.127  65.954  1.00  0.00    -0.282 NA 
HETATM    6  C   UNL     1     -10.497   9.194  67.043  1.00  0.00    -0.240 A  
ENDROOT
BRANCH   3   7
HETATM    7  C   UNL     1     -10.444  12.866  65.800  1.00  0.00    -0.293 A  
HETATM    8  C   UNL     1     -10.044  15.207  66.368  1.00  0.00    -0.273 A  
HETATM    9  C   UNL     1     -11.281  14.674  64.480  1.00  0.00    -0.282 A  
HETATM   10  C   UNL     1      -9.888  13.842  66.649  1.00  0.00    -0.286 A  
HETATM   11  N   UNL     1     -10.756  15.614  65.291  1.00  0.00    -0.402 NA 
HETATM   12  C   UNL     1     -11.144  13.313  64.681  1.00  0.00    -0.375 A  
BRANCH   8  13
HETATM   13  C   UNL     1      -9.475  16.300  67.284  1.00  0.00    -0.231 C  
HETATM   14  F   UNL     1     -10.762  18.178  68.052  1.00  0.00    -0.390 F  
HETATM   15  C   UNL     1      -8.286  15.762  68.121  1.00  0.00    -0.141 C  
HETATM   16  C   UNL     1      -8.908  17.436  66.404  1.00  0.00    -0.273 C  
HETATM   17  F   UNL     1     -10.188  16.719  69.554  1.00  0.00    -0.261 F  
HETATM   18  F   UNL     1     -11.752  16.252  68.125  1.00  0.00    -0.309 F  
HETATM   19  C   UNL     1     -10.546  16.852  68.254  1.00  0.00    -0.363 C  
ENDBRANCH   8  13
ENDBRANCH   3   7
BRANCH   6  20
HETATM   20  N   UNL     1     -10.904   8.204  67.893  1.00  0.00    -0.479 N  
HETATM   21  H   UNL     1     -11.872   7.887  67.836  1.00  0.00     0.000 HD 
BRANCH  20  22
HETATM   22  C   UNL     1     -10.081   7.614  68.818  1.00  0.00    -0.194 C  
HETATM   23  O   UNL     1      -8.918   7.268  68.626  1.00  0.00    -0.129 OA 
BRANCH  22  24
HETATM   24  N   UNL     1     -10.672   7.415  70.059  1.00  0.00    -0.242 N  
HETATM   25  C   UNL     1     -11.638   6.353  70.283  1.00  0.00    -0.383 C  
HETATM   26  C   UNL     1     -12.582   6.938  71.316  1.00  0.00    -0.394 C  
HETATM   27  C   UNL     1     -11.696   7.841  72.169  1.00  0.00    -0.368 C  
HETATM   28  C   UNL     1     -10.539   8.254  71.255  1.00  0.00    -0.219 C  
BRANCH  28  29
HETATM   29  C   UNL     1      -9.188   8.011  71.950  1.00  0.00    -0.167 C  
HETATM   30  N   UNL     1      -8.646   6.764  71.810  1.00  0.00    -0.121 N  
HETATM   31  O   UNL     1      -8.673   8.839  72.696  1.00  0.00    -0.408 OA 
HETATM   32  H1  UNL     1      -7.751   6.603  72.270  1.00  0.00     0.000 HD 
HETATM   33  H2  UNL     1      -9.113   6.033  71.273  1.00  0.00     0.000 HD 
ENDBRANCH  28  29
ENDBRANCH  22  24
ENDBRANCH  20  22
ENDBRANCH   6  20
TORSDOF 6
ENDMDL
MODEL       62
REMARK 921   NORMALIZED FREE ENERGY PREDICTED BY IDOCK:   -6.38 KCAL/MOL
REMARK 922        TOTAL FREE ENERGY PREDICTED BY IDOCK:   -9.72 KCAL/MOL
REMARK 923 INTER-LIGAND FREE ENERGY PREDICTED BY IDOCK:   -8.46 KCAL/MOL
REMARK 924 INTRA-LIGAND FREE ENERGY PREDICTED BY IDOCK:   -1.26 KCAL/MOL
REMARK 927      BINDING AFFINITY PREDICTED BY RF-SCORE:    0.00 PKD
ROOT
HETATM    1  C   UNL     1      -8.599   6.605  65.696  1.00  0.00    -0.130 C  
HETATM    2  C   UNL     1      -8.650   8.019  66.152  1.00  0.00    -0.148 A  
HETATM    3  C   UNL     1      -8.653   8.537  67.450  1.00  0.00    -0.127 A  
HETATM    4  S   UNL     1      -8.815  10.258  67.339  1.00  0.00    -0.131 SA 
HETATM    5  N   UNL     1      -8.681   8.967  65.136  1.00  0.00    -0.186 NA 
HETATM    6  C   UNL     1      -8.749  10.164  65.642  1.00  0.00    -0.158 A  
ENDROOT
BRANCH   3   7
HETATM    7  C   UNL     1      -8.585   7.891  68.779  1.00  0.00    -0.128 A  
HETATM    8  C   UNL     1      -9.535   7.387  70.972  1.00  0.00    -0.157 A  
HETATM    9  C   UNL     1      -7.427   6.594  70.418  1.00  0.00    -0.090 A  
HETATM   10  C   UNL     1      -9.632   8.002  69.715  1.00  0.00    -0.171 A  
HETATM   11  N   UNL     1      -8.422   6.700  71.320  1.00  0.00    -0.125 NA 
HETATM   12  C   UNL     1      -7.466   7.150  69.153  1.00  0.00    -0.094 A  
BRANCH   8  13
HETATM   13  C   UNL     1     -10.642   7.508  72.028  1.00  0.00    -0.248 C  
HETATM   14  F   UNL     1     -12.874   6.681  71.699  1.00  0.00    -0.385 F  
HETATM   15  C   UNL     1     -10.042   7.617  73.454  1.00  0.00    -0.379 C  
HETATM   16  C   UNL     1     -11.419   8.821  71.782  1.00  0.00    -0.413 C  
HETATM   17  F   UNL     1     -11.669   5.650  73.181  1.00  0.00    -0.279 F  
HETATM   18  F   UNL     1     -11.270   5.368  71.068  1.00  0.00    -0.252 F  
HETATM   19  C   UNL     1     -11.605   6.297  71.992  1.00  0.00    -0.322 C  
ENDBRANCH   8  13
ENDBRANCH   3   7
BRANCH   6  20
HETATM   20  N   UNL     1      -8.774  11.383  65.024  1.00  0.00    -0.380 N  
HETATM   21  H   UNL     1      -7.905  11.913  64.964  1.00  0.00     0.000 HD 
BRANCH  20  22
HETATM   22  C   UNL     1      -9.908  11.933  64.480  1.00  0.00    -0.178 C  
HETATM   23  O   UNL     1     -10.382  11.657  63.382  1.00  0.00    -0.382 OA 
BRANCH  22  24
HETATM   24  N   UNL     1     -10.524  12.878  65.290  1.00  0.00    -0.290 N  
HETATM   25  C   UNL     1      -9.806  13.558  66.353  1.00  0.00    -0.295 C  
HETATM   26  C   UNL     1     -10.864  13.780  67.416  1.00  0.00    -0.285 C  
HETATM   27  C   UNL     1     -12.154  13.990  66.627  1.00  0.00    -0.487 C  
HETATM   28  C   UNL     1     -11.943  13.249  65.304  1.00  0.00    -0.388 C  
BRANCH  28  29
HETATM   29  C   UNL     1     -12.285  14.163  64.113  1.00  0.00    -0.390 C  
HETATM   30  N   UNL     1     -12.478  13.547  62.908  1.00  0.00    -0.865 N  
HETATM   31  O   UNL     1     -12.264  15.388  64.196  1.00  0.00    -0.598 OA 
HETATM   32  H1  UNL     1     -12.705  14.152  62.119  1.00  0.00     0.000 HD 
HETATM   33  H2  UNL     1     -12.400  12.535  62.804  1.00  0.00     0.000 HD 
ENDBRANCH  28  29
ENDBRANCH  22  24
ENDBRANCH  20  22
ENDBRANCH   6  20
TORSDOF 6
ENDMDL
MODEL       63
REMARK 921   NORMALIZED FREE ENERGY PREDICTED BY IDOCK:   -6.36 KCAL/MOL
REMARK 922        TOTAL FREE ENERGY PREDICTED BY IDOCK:   -9.68 KCAL/MOL
REMARK 923 INTER-LIGAND FREE ENERGY PREDICTED BY IDOCK:   -8.39 KCAL/MOL
REMARK 924 INTRA-LIGAND FREE ENERGY PREDICTED BY IDOCK:   -1.29 KCAL/MOL
REMARK 927      BINDING AFFINITY PREDICTED BY RF-SCORE:    0.00 PKD
ROOT
HETATM    1  C   UNL     1     -11.447  13.737  65.206  1.00  0.00    -0.320 C  
HETATM    2  C   UNL     1     -10.361  14.100  66.155  1.00  0.00    -0.300 A  
HETATM    3  C   UNL     1     -10.006  13.507  67.369  1.00  0.00    -0.234 A  
HETATM    4  S   UNL     1      -8.714  14.434  68.059  1.00  0.00    -0.179 SA 
HETATM    5  N   UNL     1      -9.574  15.178  65.768  1.00  0.00    -0.336 NA 
HETATM    6  C   UNL     1      -8.675  15.425  66.676  1.00  0.00    -0.296 A  
ENDROOT
BRANCH   3   7
HETATM    7  C   UNL     1     -10.542  12.341  68.102  1.00  0.00    -0.232 A  
HETATM    8  C   UNL     1     -10.515   9.966  68.673  1.00  0.00    -0.206 A  
HETATM    9  C   UNL     1     -12.135  11.353  69.585  1.00  0.00    -0.305 A  
HETATM   10  C   UNL     1      -9.978  11.057  67.973  1.00  0.00    -0.188 A  
HETATM   11  N   UNL     1     -11.603  10.121  69.463  1.00  0.00    -0.168 NA 
HETATM   12  C   UNL     1     -11.642  12.475  68.947  1.00  0.00    -0.364 A  
BRANCH   8  13
HETATM   13  C   UNL     1      -9.944   8.548  68.539  1.00  0.00    -0.201 C  
HETATM   14  F   UNL     1     -11.051   6.789  67.333  1.00  0.00    -0.347 F  
HETATM   15  C   UNL     1      -8.400   8.552  68.688  1.00  0.00    -0.123 C  
HETATM   16  C   UNL     1     -10.489   7.683  69.698  1.00  0.00    -0.235 C  
HETATM   17  F   UNL     1      -9.206   7.538  66.471  1.00  0.00    -0.159 F  
HETATM   18  F   UNL     1     -11.016   8.729  66.368  1.00  0.00    -0.089 F  
HETATM   19  C   UNL     1     -10.302   7.911  67.175  1.00  0.00    -0.328 C  
ENDBRANCH   8  13
ENDBRANCH   3   7
BRANCH   6  20
HETATM   20  N   UNL     1      -7.684  16.366  66.704  1.00  0.00    -0.262 N  
HETATM   21  H   UNL     1      -6.962  16.328  65.984  1.00  0.00     0.000 HD 
BRANCH  20  22
HETATM   22  C   UNL     1      -7.609  17.358  67.648  1.00  0.00    -0.188 C  
HETATM   23  O   UNL     1      -6.822  17.393  68.590  1.00  0.00    -0.197 OA 
BRANCH  22  24
HETATM   24  N   UNL     1      -8.530  18.382  67.469  1.00  0.00    -0.252 N  
HETATM   25  C   UNL     1      -9.644  18.574  68.381  1.00  0.00    -0.354 C  
HETATM   26  C   UNL     1     -10.750  19.107  67.490  1.00  0.00    -0.555 C  
HETATM   27  C   UNL     1     -10.018  19.927  66.430  1.00  0.00    -0.593 C  
HETATM   28  C   UNL     1      -8.618  19.315  66.340  1.00  0.00    -0.343 C  
BRANCH  28  29
HETATM   29  C   UNL     1      -7.542  20.410  66.447  1.00  0.00    -0.176 C  
HETATM   30  N   UNL     1      -6.959  20.808  65.276  1.00  0.00    -0.530 N  
HETATM   31  O   UNL     1      -7.128  20.824  67.527  1.00  0.00    -0.329 OA 
HETATM   32  H1  UNL     1      -6.246  21.534  65.347  1.00  0.00     0.000 HD 
HETATM   33  H2  UNL     1      -7.224  20.401  64.380  1.00  0.00     0.000 HD 
ENDBRANCH  28  29
ENDBRANCH  22  24
ENDBRANCH  20  22
ENDBRANCH   6  20
TORSDOF 6
ENDMDL
MODEL       64
REMARK 921   NORMALIZED FREE ENERGY PREDICTED BY IDOCK:   -6.35 KCAL/MOL
REMARK 922        TOTAL FREE ENERGY PREDICTED BY IDOCK:   -9.68 KCAL/MOL
REMARK 923 INTER-LIGAND FREE ENERGY PREDICTED BY IDOCK:   -8.48 KCAL/MOL
REMARK 924 INTRA-LIGAND FREE ENERGY PREDICTED BY IDOCK:   -1.20 KCAL/MOL
REMARK 927      BINDING AFFINITY PREDICTED BY RF-SCORE:    0.00 PKD
ROOT
HETATM    1  C   UNL     1     -13.370  10.423  71.432  1.00  0.00    -0.373 C  
HETATM    2  C   UNL     1     -12.122  10.057  70.712  1.00  0.00    -0.327 A  
HETATM    3  C   UNL     1     -11.424  10.759  69.725  1.00  0.00    -0.311 A  
HETATM    4  S   UNL     1     -10.094   9.776  69.209  1.00  0.00    -0.212 SA 
HETATM    5  N   UNL     1     -11.557   8.843  71.088  1.00  0.00    -0.286 NA 
HETATM    6  C   UNL     1     -10.489   8.609  70.383  1.00  0.00    -0.208 A  
ENDROOT
BRANCH   3   7
HETATM    7  C   UNL     1     -11.654  12.073  69.089  1.00  0.00    -0.370 A  
HETATM    8  C   UNL     1     -11.869  13.495  67.115  1.00  0.00    -0.387 A  
HETATM    9  C   UNL     1     -12.040  14.428  69.232  1.00  0.00    -0.299 A  
HETATM   10  C   UNL     1     -11.659  12.233  67.690  1.00  0.00    -0.421 A  
HETATM   11  N   UNL     1     -12.042  14.589  67.894  1.00  0.00    -0.286 NA 
HETATM   12  C   UNL     1     -11.866  13.211  69.865  1.00  0.00    -0.378 A  
BRANCH   8  13
HETATM   13  C   UNL     1     -11.856  13.713  65.596  1.00  0.00    -0.387 C  
HETATM   14  F   UNL     1     -10.310  15.182  64.488  1.00  0.00    -0.344 F  
HETATM   15  C   UNL     1     -12.456  12.491  64.853  1.00  0.00    -0.524 C  
HETATM   16  C   UNL     1     -12.767  14.915  65.261  1.00  0.00     0.192 C  
HETATM   17  F   UNL     1     -10.063  13.058  64.115  1.00  0.00    -0.397 F  
HETATM   18  F   UNL     1      -9.474  13.902  66.023  1.00  0.00    -0.282 F  
HETATM   19  C   UNL     1     -10.424  13.957  65.063  1.00  0.00    -0.410 C  
ENDBRANCH   8  13
ENDBRANCH   3   7
BRANCH   6  20
HETATM   20  N   UNL     1      -9.613   7.561  70.430  1.00  0.00    -0.169 N  
HETATM   21  H   UNL     1      -8.622   7.765  70.560  1.00  0.00     0.000 HD 
BRANCH  20  22
HETATM   22  C   UNL     1      -9.995   6.249  70.313  1.00  0.00    -0.173 C  
HETATM   23  O   UNL     1     -10.722   5.789  69.437  1.00  0.00    -0.288 OA 
BRANCH  22  24
HETATM   24  N   UNL     1      -9.485   5.419  71.303  1.00  0.00    -0.147 N  
HETATM   25  C   UNL     1      -8.063   5.358  71.591  1.00  0.00    -0.117 C  
HETATM   26  C   UNL     1      -7.843   3.917  72.011  1.00  0.00    -0.075 C  
HETATM   27  C   UNL     1      -9.143   3.525  72.709  1.00  0.00    -0.120 C  
HETATM   28  C   UNL     1     -10.218   4.429  72.101  1.00  0.00    -0.177 C  
BRANCH  28  29
HETATM   29  C   UNL     1     -11.039   5.113  73.209  1.00  0.00    -0.327 C  
HETATM   30  N   UNL     1     -11.931   6.067  72.805  1.00  0.00    -0.529 N  
HETATM   31  O   UNL     1     -10.826   4.917  74.402  1.00  0.00    -0.346 OA 
HETATM   32  H1  UNL     1     -12.474   6.521  73.539  1.00  0.00     0.000 HD 
HETATM   33  H2  UNL     1     -12.046   6.312  71.822  1.00  0.00     0.000 HD 
ENDBRANCH  28  29
ENDBRANCH  22  24
ENDBRANCH  20  22
ENDBRANCH   6  20
TORSDOF 6
ENDMDL
MODEL       65
REMARK 921   NORMALIZED FREE ENERGY PREDICTED BY IDOCK:   -6.35 KCAL/MOL
REMARK 922        TOTAL FREE ENERGY PREDICTED BY IDOCK:   -9.67 KCAL/MOL
REMARK 923 INTER-LIGAND FREE ENERGY PREDICTED BY IDOCK:   -8.49 KCAL/MOL
REMARK 924 INTRA-LIGAND FREE ENERGY PREDICTED BY IDOCK:   -1.17 KCAL/MOL
REMARK 927      BINDING AFFINITY PREDICTED BY RF-SCORE:    0.00 PKD
ROOT
HETATM    1  C   UNL     1     -12.147  13.686  65.422  1.00  0.00    -0.429 C  
HETATM    2  C   UNL     1     -11.721  12.892  66.606  1.00  0.00    -0.390 A  
HETATM    3  C   UNL     1     -11.253  13.327  67.848  1.00  0.00    -0.272 A  
HETATM    4  S   UNL     1     -10.833  11.929  68.781  1.00  0.00    -0.227 SA 
HETATM    5  N   UNL     1     -11.820  11.514  66.458  1.00  0.00    -0.349 NA 
HETATM    6  C   UNL     1     -11.402  10.917  67.537  1.00  0.00    -0.232 A  
ENDROOT
BRANCH   3   7
HETATM    7  C   UNL     1     -11.045  14.676  68.416  1.00  0.00    -0.270 A  
HETATM    8  C   UNL     1     -10.367  17.013  68.207  1.00  0.00    -0.347 A  
HETATM    9  C   UNL     1     -11.074  16.197  70.260  1.00  0.00    -0.369 A  
HETATM   10  C   UNL     1     -10.563  15.746  67.638  1.00  0.00    -0.301 A  
HETATM   11  N   UNL     1     -10.609  17.225  69.522  1.00  0.00    -0.153 NA 
HETATM   12  C   UNL     1     -11.316  14.932  69.759  1.00  0.00    -0.314 A  
BRANCH   8  13
HETATM   13  C   UNL     1      -9.818  18.196  67.397  1.00  0.00    -0.316 C  
HETATM   14  F   UNL     1      -7.812  19.380  67.986  1.00  0.00    -0.296 F  
HETATM   15  C   UNL     1     -10.291  18.128  65.922  1.00  0.00    -0.284 C  
HETATM   16  C   UNL     1     -10.398  19.505  67.980  1.00  0.00    -0.564 C  
HETATM   17  F   UNL     1      -7.737  18.193  66.170  1.00  0.00    -0.262 F  
HETATM   18  F   UNL     1      -7.713  17.219  68.108  1.00  0.00    -0.190 F  
HETATM   19  C   UNL     1      -8.272  18.237  67.415  1.00  0.00    -0.237 C  
ENDBRANCH   8  13
ENDBRANCH   3   7
BRANCH   6  20
HETATM   20  N   UNL     1     -11.344   9.586  67.843  1.00  0.00    -0.401 N  
HETATM   21  H   UNL     1     -12.209   9.047  67.818  1.00  0.00     0.000 HD 
BRANCH  20  22
HETATM   22  C   UNL     1     -10.184   8.937  68.183  1.00  0.00    -0.201 C  
HETATM   23  O   UNL     1      -9.096   9.078  67.631  1.00  0.00    -0.132 OA 
BRANCH  22  24
HETATM   24  N   UNL     1     -10.318   8.056  69.248  1.00  0.00    -0.218 N  
HETATM   25  C   UNL     1     -10.838   6.712  69.066  1.00  0.00    -0.277 C  
HETATM   26  C   UNL     1     -11.576   6.435  70.362  1.00  0.00    -0.440 C  
HETATM   27  C   UNL     1     -10.778   7.191  71.421  1.00  0.00    -0.245 C  
HETATM   28  C   UNL     1     -10.095   8.337  70.670  1.00  0.00    -0.191 C  
BRANCH  28  29
HETATM   29  C   UNL     1      -8.590   8.374  70.994  1.00  0.00    -0.155 C  
HETATM   30  N   UNL     1      -7.949   7.167  71.046  1.00  0.00    -0.102 N  
HETATM   31  O   UNL     1      -8.011   9.408  71.315  1.00  0.00    -0.328 OA 
HETATM   32  H1  UNL     1      -6.952   7.192  71.261  1.00  0.00     0.000 HD 
HETATM   33  H2  UNL     1      -8.441   6.290  70.879  1.00  0.00     0.000 HD 
ENDBRANCH  28  29
ENDBRANCH  22  24
ENDBRANCH  20  22
ENDBRANCH   6  20
TORSDOF 6
ENDMDL
MODEL       66
REMARK 921   NORMALIZED FREE ENERGY PREDICTED BY IDOCK:   -6.34 KCAL/MOL
REMARK 922        TOTAL FREE ENERGY PREDICTED BY IDOCK:   -9.66 KCAL/MOL
REMARK 923 INTER-LIGAND FREE ENERGY PREDICTED BY IDOCK:   -8.62 KCAL/MOL
REMARK 924 INTRA-LIGAND FREE ENERGY PREDICTED BY IDOCK:   -1.04 KCAL/MOL
REMARK 927      BINDING AFFINITY PREDICTED BY RF-SCORE:    0.00 PKD
ROOT
HETATM    1  C   UNL     1     -12.027  13.400  63.992  1.00  0.00    -0.520 C  
HETATM    2  C   UNL     1     -11.509  13.123  65.359  1.00  0.00    -0.304 A  
HETATM    3  C   UNL     1     -10.777  13.946  66.218  1.00  0.00    -0.285 A  
HETATM    4  S   UNL     1     -10.389  13.028  67.635  1.00  0.00    -0.225 SA 
HETATM    5  N   UNL     1     -11.813  11.862  65.860  1.00  0.00    -0.448 NA 
HETATM    6  C   UNL     1     -11.295  11.715  67.045  1.00  0.00    -0.305 A  
ENDROOT
BRANCH   3   7
HETATM    7  C   UNL     1     -10.298  15.339  66.093  1.00  0.00    -0.314 A  
HETATM    8  C   UNL     1      -8.630  17.079  66.487  1.00  0.00    -0.270 A  
HETATM    9  C   UNL     1     -10.607  17.604  65.393  1.00  0.00     0.039 A  
HETATM   10  C   UNL     1      -9.054  15.748  66.611  1.00  0.00    -0.298 A  
HETATM   11  N   UNL     1      -9.420  18.003  65.891  1.00  0.00    -0.509 NA 
HETATM   12  C   UNL     1     -11.076  16.305  65.457  1.00  0.00    -0.035 A  
BRANCH   8  13
HETATM   13  C   UNL     1      -7.293  17.568  67.062  1.00  0.00    -0.222 C  
HETATM   14  F   UNL     1      -7.069  19.589  68.341  1.00  0.00    -0.297 F  
HETATM   15  C   UNL     1      -6.313  16.385  67.274  1.00  0.00    -0.215 C  
HETATM   16  C   UNL     1      -6.625  18.506  66.031  1.00  0.00    -0.284 C  
HETATM   17  F   UNL     1      -6.769  17.727  69.415  1.00  0.00    -0.247 F  
HETATM   18  F   UNL     1      -8.767  18.336  68.831  1.00  0.00    -0.304 F  
HETATM   19  C   UNL     1      -7.481  18.297  68.413  1.00  0.00    -0.281 C  
ENDBRANCH   8  13
ENDBRANCH   3   7
BRANCH   6  20
HETATM   20  N   UNL     1     -11.360  10.660  67.911  1.00  0.00    -0.363 N  
HETATM   21  H   UNL     1     -12.042  10.699  68.669  1.00  0.00     0.000 HD 
BRANCH  20  22
HETATM   22  C   UNL     1     -10.556   9.552  67.817  1.00  0.00    -0.261 C  
HETATM   23  O   UNL     1     -10.092   9.090  66.779  1.00  0.00    -0.232 OA 
BRANCH  22  24
HETATM   24  N   UNL     1     -10.283   8.945  69.036  1.00  0.00    -0.201 N  
HETATM   25  C   UNL     1     -10.323   9.686  70.285  1.00  0.00    -0.280 C  
HETATM   26  C   UNL     1      -9.250   9.024  71.129  1.00  0.00    -0.326 C  
HETATM   27  C   UNL     1      -9.278   7.561  70.696  1.00  0.00    -0.159 C  
HETATM   28  C   UNL     1      -9.815   7.573  69.263  1.00  0.00    -0.170 C  
BRANCH  28  29
HETATM   29  C   UNL     1     -10.969   6.566  69.110  1.00  0.00    -0.323 C  
HETATM   30  N   UNL     1     -11.503   6.435  67.858  1.00  0.00    -0.604 N  
HETATM   31  O   UNL     1     -11.478   5.998  70.072  1.00  0.00    -0.372 OA 
HETATM   32  H1  UNL     1     -12.267   5.768  67.758  1.00  0.00     0.000 HD 
HETATM   33  H2  UNL     1     -11.154   6.977  67.068  1.00  0.00     0.000 HD 
ENDBRANCH  28  29
ENDBRANCH  22  24
ENDBRANCH  20  22
ENDBRANCH   6  20
TORSDOF 6
ENDMDL
MODEL       67
REMARK 921   NORMALIZED FREE ENERGY PREDICTED BY IDOCK:   -6.34 KCAL/MOL
REMARK 922        TOTAL FREE ENERGY PREDICTED BY IDOCK:   -9.66 KCAL/MOL
REMARK 923 INTER-LIGAND FREE ENERGY PREDICTED BY IDOCK:   -8.43 KCAL/MOL
REMARK 924 INTRA-LIGAND FREE ENERGY PREDICTED BY IDOCK:   -1.23 KCAL/MOL
REMARK 927      BINDING AFFINITY PREDICTED BY RF-SCORE:    0.00 PKD
ROOT
HETATM    1  C   UNL     1     -12.144  12.469  65.789  1.00  0.00    -0.443 C  
HETATM    2  C   UNL     1     -11.629  13.389  66.838  1.00  0.00    -0.365 A  
HETATM    3  C   UNL     1     -11.299  13.125  68.170  1.00  0.00    -0.292 A  
HETATM    4  S   UNL     1     -10.842  14.622  68.913  1.00  0.00    -0.258 SA 
HETATM    5  N   UNL     1     -11.432  14.702  66.426  1.00  0.00    -0.354 NA 
HETATM    6  C   UNL     1     -11.007  15.424  67.422  1.00  0.00    -0.312 A  
ENDROOT
BRANCH   3   7
HETATM    7  C   UNL     1     -11.318  11.884  68.973  1.00  0.00    -0.337 A  
HETATM    8  C   UNL     1     -10.750   9.532  69.302  1.00  0.00    -0.222 A  
HETATM    9  C   UNL     1     -11.982  10.657  70.914  1.00  0.00    -0.363 A  
HETATM   10  C   UNL     1     -10.708  10.697  68.523  1.00  0.00    -0.252 A  
HETATM   11  N   UNL     1     -11.404   9.517  70.487  1.00  0.00    -0.268 NA 
HETATM   12  C   UNL     1     -11.955  11.847  70.211  1.00  0.00    -0.416 A  
BRANCH   8  13
HETATM   13  C   UNL     1     -10.120   8.212  68.834  1.00  0.00    -0.211 C  
HETATM   14  F   UNL     1      -7.803   7.998  68.235  1.00  0.00    -0.111 F  
HETATM   15  C   UNL     1     -10.913   6.994  69.375  1.00  0.00    -0.232 C  
HETATM   16  C   UNL     1     -10.211   8.141  67.293  1.00  0.00    -0.348 C  
HETATM   17  F   UNL     1      -8.434   6.974  70.042  1.00  0.00    -0.131 F  
HETATM   18  F   UNL     1      -8.220   9.132  70.033  1.00  0.00    -0.096 F  
HETATM   19  C   UNL     1      -8.649   8.083  69.294  1.00  0.00    -0.137 C  
ENDBRANCH   8  13
ENDBRANCH   3   7
BRANCH   6  20
HETATM   20  N   UNL     1     -10.661  16.746  67.469  1.00  0.00    -0.310 N  
HETATM   21  H   UNL     1     -10.733  17.232  68.363  1.00  0.00     0.000 HD 
BRANCH  20  22
HETATM   22  C   UNL     1     -10.223  17.453  66.378  1.00  0.00    -0.338 C  
HETATM   23  O   UNL     1     -10.829  17.582  65.318  1.00  0.00    -0.592 OA 
BRANCH  22  24
HETATM   24  N   UNL     1      -8.980  18.048  66.550  1.00  0.00    -0.273 N  
HETATM   25  C   UNL     1      -8.843  19.472  66.799  1.00  0.00    -0.332 C  
HETATM   26  C   UNL     1      -7.535  19.831  66.120  1.00  0.00    -0.321 C  
HETATM   27  C   UNL     1      -6.673  18.581  66.277  1.00  0.00    -0.259 C  
HETATM   28  C   UNL     1      -7.663  17.420  66.398  1.00  0.00    -0.308 C  
BRANCH  28  29
HETATM   29  C   UNL     1      -7.325  16.548  67.621  1.00  0.00    -0.138 C  
HETATM   30  N   UNL     1      -7.231  15.202  67.403  1.00  0.00    -0.203 N  
HETATM   31  O   UNL     1      -7.266  17.005  68.759  1.00  0.00    -0.204 OA 
HETATM   32  H1  UNL     1      -7.008  14.624  68.213  1.00  0.00     0.000 HD 
HETATM   33  H2  UNL     1      -7.377  14.797  66.478  1.00  0.00     0.000 HD 
ENDBRANCH  28  29
ENDBRANCH  22  24
ENDBRANCH  20  22
ENDBRANCH   6  20
TORSDOF 6
ENDMDL
MODEL       68
REMARK 921   NORMALIZED FREE ENERGY PREDICTED BY IDOCK:   -6.34 KCAL/MOL
REMARK 922        TOTAL FREE ENERGY PREDICTED BY IDOCK:   -9.65 KCAL/MOL
REMARK 923 INTER-LIGAND FREE ENERGY PREDICTED BY IDOCK:   -8.46 KCAL/MOL
REMARK 924 INTRA-LIGAND FREE ENERGY PREDICTED BY IDOCK:   -1.20 KCAL/MOL
REMARK 927      BINDING AFFINITY PREDICTED BY RF-SCORE:    0.00 PKD
ROOT
HETATM    1  C   UNL     1     -11.718  14.250  66.482  1.00  0.00    -0.409 C  
HETATM    2  C   UNL     1     -11.362  14.965  67.736  1.00  0.00    -0.329 A  
HETATM    3  C   UNL     1     -11.312  14.489  69.049  1.00  0.00    -0.272 A  
HETATM    4  S   UNL     1     -10.918  15.821  70.086  1.00  0.00    -0.376 SA 
HETATM    5  N   UNL     1     -11.011  16.300  67.575  1.00  0.00    -0.260 NA 
HETATM    6  C   UNL     1     -10.744  16.835  68.731  1.00  0.00    -0.341 A  
ENDROOT
BRANCH   3   7
HETATM    7  C   UNL     1     -11.559  13.154  69.633  1.00  0.00    -0.321 A  
HETATM    8  C   UNL     1     -11.053  10.773  69.840  1.00  0.00    -0.271 A  
HETATM    9  C   UNL     1     -12.802  11.690  71.057  1.00  0.00    -0.245 A  
HETATM   10  C   UNL     1     -10.788  12.030  69.276  1.00  0.00    -0.130 A  
HETATM   11  N   UNL     1     -12.071  10.610  70.716  1.00  0.00    -0.341 NA 
HETATM   12  C   UNL     1     -12.580  12.961  70.562  1.00  0.00    -0.204 A  
BRANCH   8  13
HETATM   13  C   UNL     1     -10.252   9.521  69.456  1.00  0.00    -0.225 C  
HETATM   14  F   UNL     1     -11.069   7.849  67.936  1.00  0.00    -0.154 F  
HETATM   15  C   UNL     1      -8.729   9.761  69.623  1.00  0.00    -0.211 C  
HETATM   16  C   UNL     1     -10.622   8.380  70.431  1.00  0.00    -0.236 C  
HETATM   17  F   UNL     1      -9.393   9.045  67.248  1.00  0.00    -0.143 F  
HETATM   18  F   UNL     1     -11.380   9.909  67.342  1.00  0.00    -0.313 F  
HETATM   19  C   UNL     1     -10.523   9.091  67.995  1.00  0.00    -0.216 C  
ENDBRANCH   8  13
ENDBRANCH   3   7
BRANCH   6  20
HETATM   20  N   UNL     1     -10.336  18.102  69.044  1.00  0.00    -0.443 N  
HETATM   21  H   UNL     1     -10.433  18.416  70.010  1.00  0.00     0.000 HD 
BRANCH  20  22
HETATM   22  C   UNL     1      -9.803  18.973  68.128  1.00  0.00    -0.368 C  
HETATM   23  O   UNL     1     -10.363  19.968  67.675  1.00  0.00    -0.397 OA 
BRANCH  22  24
HETATM   24  N   UNL     1      -8.518  18.645  67.714  1.00  0.00    -0.271 N  
HETATM   25  C   UNL     1      -8.240  18.220  66.354  1.00  0.00    -0.251 C  
HETATM   26  C   UNL     1      -7.099  17.234  66.512  1.00  0.00    -0.300 C  
HETATM   27  C   UNL     1      -6.304  17.764  67.703  1.00  0.00    -0.172 C  
HETATM   28  C   UNL     1      -7.312  18.553  68.543  1.00  0.00    -0.295 C  
BRANCH  28  29
HETATM   29  C   UNL     1      -6.762  19.952  68.873  1.00  0.00    -0.322 C  
HETATM   30  N   UNL     1      -6.473  20.199  70.186  1.00  0.00    -0.331 N  
HETATM   31  O   UNL     1      -6.700  20.849  68.037  1.00  0.00    -0.307 OA 
HETATM   32  H1  UNL     1      -6.109  21.126  70.404  1.00  0.00     0.000 HD 
HETATM   33  H2  UNL     1      -6.614  19.493  70.908  1.00  0.00     0.000 HD 
ENDBRANCH  28  29
ENDBRANCH  22  24
ENDBRANCH  20  22
ENDBRANCH   6  20
TORSDOF 6
ENDMDL
MODEL       69
REMARK 921   NORMALIZED FREE ENERGY PREDICTED BY IDOCK:   -6.32 KCAL/MOL
REMARK 922        TOTAL FREE ENERGY PREDICTED BY IDOCK:   -9.64 KCAL/MOL
REMARK 923 INTER-LIGAND FREE ENERGY PREDICTED BY IDOCK:   -8.45 KCAL/MOL
REMARK 924 INTRA-LIGAND FREE ENERGY PREDICTED BY IDOCK:   -1.19 KCAL/MOL
REMARK 927      BINDING AFFINITY PREDICTED BY RF-SCORE:    0.00 PKD
ROOT
HETATM    1  C   UNL     1     -12.875  12.500  70.754  1.00  0.00    -0.099 C  
HETATM    2  C   UNL     1     -12.097  11.234  70.713  1.00  0.00    -0.349 A  
HETATM    3  C   UNL     1     -11.122  10.816  69.804  1.00  0.00    -0.281 A  
HETATM    4  S   UNL     1     -10.646   9.206  70.232  1.00  0.00    -0.239 SA 
HETATM    5  N   UNL     1     -12.369  10.340  71.743  1.00  0.00    -0.339 NA 
HETATM    6  C   UNL     1     -11.656   9.261  71.599  1.00  0.00    -0.393 A  
ENDROOT
BRANCH   3   7
HETATM    7  C   UNL     1     -10.521  11.468  68.620  1.00  0.00    -0.224 A  
HETATM    8  C   UNL     1     -10.714  12.642  66.487  1.00  0.00    -0.250 A  
HETATM    9  C   UNL     1      -8.617  12.116  67.329  1.00  0.00    -0.180 A  
HETATM   10  C   UNL     1     -11.311  12.039  67.604  1.00  0.00    -0.375 A  
HETATM   11  N   UNL     1      -9.367  12.661  66.351  1.00  0.00    -0.226 NA 
HETATM   12  C   UNL     1      -9.138  11.531  68.468  1.00  0.00    -0.157 A  
BRANCH   8  13
HETATM   13  C   UNL     1     -11.541  13.251  65.347  1.00  0.00    -0.346 C  
HETATM   14  F   UNL     1     -11.262  12.637  63.041  1.00  0.00    -0.481 F  
HETATM   15  C   UNL     1     -12.907  13.771  65.866  1.00  0.00    -0.369 C  
HETATM   16  C   UNL     1     -10.789  14.483  64.795  1.00  0.00    -0.410 C  
HETATM   17  F   UNL     1     -13.125  12.042  63.981  1.00  0.00    -0.548 F  
HETATM   18  F   UNL     1     -11.283  11.005  64.465  1.00  0.00    -0.332 F  
HETATM   19  C   UNL     1     -11.804  12.228  64.217  1.00  0.00    -0.403 C  
ENDBRANCH   8  13
ENDBRANCH   3   7
BRANCH   6  20
HETATM   20  N   UNL     1     -11.581   8.143  72.382  1.00  0.00    -0.377 N  
HETATM   21  H   UNL     1     -11.456   8.264  73.387  1.00  0.00     0.000 HD 
BRANCH  20  22
HETATM   22  C   UNL     1     -11.664   6.866  71.887  1.00  0.00    -0.299 C  
HETATM   23  O   UNL     1     -12.381   6.502  70.959  1.00  0.00    -0.295 OA 
BRANCH  22  24
HETATM   24  N   UNL     1     -10.844   5.952  72.536  1.00  0.00    -0.232 N  
HETATM   25  C   UNL     1     -11.390   4.833  73.284  1.00  0.00    -0.322 C  
HETATM   26  C   UNL     1     -10.398   4.640  74.416  1.00  0.00    -0.318 C  
HETATM   27  C   UNL     1      -9.053   5.029  73.809  1.00  0.00    -0.116 C  
HETATM   28  C   UNL     1      -9.385   6.010  72.682  1.00  0.00    -0.146 C  
BRANCH  28  29
HETATM   29  C   UNL     1      -8.684   5.591  71.377  1.00  0.00    -0.132 C  
HETATM   30  N   UNL     1      -8.104   4.353  71.367  1.00  0.00    -0.082 N  
HETATM   31  O   UNL     1      -8.535   6.362  70.433  1.00  0.00    -0.127 OA 
HETATM   32  H1  UNL     1      -7.640   4.076  70.502  1.00  0.00     0.000 HD 
HETATM   33  H2  UNL     1      -8.134   3.740  72.182  1.00  0.00     0.000 HD 
ENDBRANCH  28  29
ENDBRANCH  22  24
ENDBRANCH  20  22
ENDBRANCH   6  20
TORSDOF 6
ENDMDL
MODEL       70
REMARK 921   NORMALIZED FREE ENERGY PREDICTED BY IDOCK:   -6.32 KCAL/MOL
REMARK 922        TOTAL FREE ENERGY PREDICTED BY IDOCK:   -9.63 KCAL/MOL
REMARK 923 INTER-LIGAND FREE ENERGY PREDICTED BY IDOCK:   -8.35 KCAL/MOL
REMARK 924 INTRA-LIGAND FREE ENERGY PREDICTED BY IDOCK:   -1.28 KCAL/MOL
REMARK 927      BINDING AFFINITY PREDICTED BY RF-SCORE:    0.00 PKD
ROOT
HETATM    1  C   UNL     1      -9.688  10.061  64.745  1.00  0.00    -0.363 C  
HETATM    2  C   UNL     1     -10.210   9.960  66.134  1.00  0.00    -0.207 A  
HETATM    3  C   UNL     1     -10.789  10.943  66.941  1.00  0.00    -0.249 A  
HETATM    4  S   UNL     1     -11.112  10.239  68.492  1.00  0.00    -0.215 SA 
HETATM    5  N   UNL     1     -10.122   8.697  66.707  1.00  0.00    -0.275 NA 
HETATM    6  C   UNL     1     -10.580   8.726  67.925  1.00  0.00    -0.174 A  
ENDROOT
BRANCH   3   7
HETATM    7  C   UNL     1     -11.101  12.368  66.704  1.00  0.00    -0.336 A  
HETATM    8  C   UNL     1     -10.682  14.747  67.067  1.00  0.00    -0.300 A  
HETATM    9  C   UNL     1     -12.442  14.080  65.711  1.00  0.00    -0.494 A  
HETATM   10  C   UNL     1     -10.356  13.403  67.302  1.00  0.00    -0.244 A  
HETATM   11  N   UNL     1     -11.736  15.075  66.284  1.00  0.00    -0.179 NA 
HETATM   12  C   UNL     1     -12.160  12.737  65.878  1.00  0.00    -0.485 A  
BRANCH   8  13
HETATM   13  C   UNL     1      -9.911  15.902  67.721  1.00  0.00    -0.222 C  
HETATM   14  F   UNL     1      -7.624  16.423  67.200  1.00  0.00    -0.152 F  
HETATM   15  C   UNL     1     -10.879  17.006  68.219  1.00  0.00    -0.341 C  
HETATM   16  C   UNL     1      -9.184  15.363  68.974  1.00  0.00    -0.235 C  
HETATM   17  F   UNL     1      -9.113  17.869  66.567  1.00  0.00    -0.248 F  
HETATM   18  F   UNL     1      -8.909  15.985  65.511  1.00  0.00    -0.256 F  
HETATM   19  C   UNL     1      -8.897  16.543  66.744  1.00  0.00    -0.226 C  
ENDBRANCH   8  13
ENDBRANCH   3   7
BRANCH   6  20
HETATM   20  N   UNL     1     -10.710   7.721  68.843  1.00  0.00    -0.387 N  
HETATM   21  H   UNL     1     -11.471   7.052  68.723  1.00  0.00     0.000 HD 
BRANCH  20  22
HETATM   22  C   UNL     1      -9.871   7.563  69.917  1.00  0.00    -0.187 C  
HETATM   23  O   UNL     1      -8.679   7.855  69.944  1.00  0.00    -0.138 OA 
BRANCH  22  24
HETATM   24  N   UNL     1     -10.482   7.020  71.039  1.00  0.00    -0.212 N  
HETATM   25  C   UNL     1      -9.709   6.506  72.156  1.00  0.00    -0.151 C  
HETATM   26  C   UNL     1     -10.551   5.356  72.677  1.00  0.00    -0.274 C  
HETATM   27  C   UNL     1     -11.990   5.796  72.422  1.00  0.00    -0.164 C  
HETATM   28  C   UNL     1     -11.913   6.766  71.240  1.00  0.00    -0.365 C  
BRANCH  28  29
HETATM   29  C   UNL     1     -12.664   8.071  71.562  1.00  0.00    -0.307 C  
HETATM   30  N   UNL     1     -13.940   8.174  71.082  1.00  0.00    -0.602 N  
HETATM   31  O   UNL     1     -12.119   9.026  72.107  1.00  0.00    -0.363 OA 
HETATM   32  H1  UNL     1     -14.437   9.038  71.296  1.00  0.00     0.000 HD 
HETATM   33  H2  UNL     1     -14.371   7.426  70.540  1.00  0.00     0.000 HD 
ENDBRANCH  28  29
ENDBRANCH  22  24
ENDBRANCH  20  22
ENDBRANCH   6  20
TORSDOF 6
ENDMDL
MODEL       71
REMARK 921   NORMALIZED FREE ENERGY PREDICTED BY IDOCK:   -6.31 KCAL/MOL
REMARK 922        TOTAL FREE ENERGY PREDICTED BY IDOCK:   -9.61 KCAL/MOL
REMARK 923 INTER-LIGAND FREE ENERGY PREDICTED BY IDOCK:   -8.26 KCAL/MOL
REMARK 924 INTRA-LIGAND FREE ENERGY PREDICTED BY IDOCK:   -1.35 KCAL/MOL
REMARK 927      BINDING AFFINITY PREDICTED BY RF-SCORE:    0.00 PKD
ROOT
HETATM    1  C   UNL     1     -12.759  11.800  70.840  1.00  0.00    -0.328 C  
HETATM    2  C   UNL     1     -11.739  10.972  70.144  1.00  0.00    -0.356 A  
HETATM    3  C   UNL     1     -11.076  11.203  68.936  1.00  0.00    -0.237 A  
HETATM    4  S   UNL     1     -10.070   9.832  68.606  1.00  0.00    -0.177 SA 
HETATM    5  N   UNL     1     -11.380   9.801  70.802  1.00  0.00    -0.314 NA 
HETATM    6  C   UNL     1     -10.504   9.143  70.099  1.00  0.00    -0.218 A  
ENDROOT
BRANCH   3   7
HETATM    7  C   UNL     1     -11.131  12.321  67.969  1.00  0.00    -0.285 A  
HETATM    8  C   UNL     1     -10.508  14.571  67.252  1.00  0.00    -0.266 A  
HETATM    9  C   UNL     1     -11.949  13.302  65.949  1.00  0.00    -0.419 A  
HETATM   10  C   UNL     1     -10.429  13.523  68.182  1.00  0.00    -0.249 A  
HETATM   11  N   UNL     1     -11.283  14.458  66.148  1.00  0.00    -0.330 NA 
HETATM   12  C   UNL     1     -11.895  12.221  66.808  1.00  0.00    -0.349 A  
BRANCH   8  13
HETATM   13  C   UNL     1      -9.779  15.906  67.461  1.00  0.00    -0.223 C  
HETATM   14  F   UNL     1     -10.889  18.036  67.409  1.00  0.00    -0.390 F  
HETATM   15  C   UNL     1      -8.485  15.709  68.292  1.00  0.00    -0.156 C  
HETATM   16  C   UNL     1      -9.333  16.446  66.084  1.00  0.00    -0.360 C  
HETATM   17  F   UNL     1     -10.118  17.394  69.334  1.00  0.00    -0.273 F  
HETATM   18  F   UNL     1     -11.896  16.465  68.510  1.00  0.00    -0.327 F  
HETATM   19  C   UNL     1     -10.673  16.942  68.183  1.00  0.00    -0.375 C  
ENDBRANCH   8  13
ENDBRANCH   3   7
BRANCH   6  20
HETATM   20  N   UNL     1      -9.862   7.966  70.368  1.00  0.00    -0.183 N  
HETATM   21  H   UNL     1      -8.925   8.008  70.769  1.00  0.00     0.000 HD 
BRANCH  20  22
HETATM   22  C   UNL     1     -10.410   6.732  70.126  1.00  0.00    -0.202 C  
HETATM   23  O   UNL     1     -11.059   6.418  69.132  1.00  0.00    -0.322 OA 
BRANCH  22  24
HETATM   24  N   UNL     1     -10.180   5.802  71.132  1.00  0.00    -0.209 N  
HETATM   25  C   UNL     1      -9.094   4.841  71.049  1.00  0.00    -0.132 C  
HETATM   26  C   UNL     1      -9.643   3.617  71.758  1.00  0.00    -0.221 C  
HETATM   27  C   UNL     1     -10.551   4.186  72.844  1.00  0.00    -0.245 C  
HETATM   28  C   UNL     1     -11.003   5.552  72.320  1.00  0.00    -0.239 C  
BRANCH  28  29
HETATM   29  C   UNL     1     -10.777   6.641  73.385  1.00  0.00    -0.289 C  
HETATM   30  N   UNL     1      -9.941   6.319  74.417  1.00  0.00    -0.299 N  
HETATM   31  O   UNL     1     -11.404   7.696  73.390  1.00  0.00    -0.289 OA 
HETATM   32  H1  UNL     1      -9.792   7.041  75.123  1.00  0.00     0.000 HD 
HETATM   33  H2  UNL     1      -9.490   5.407  74.478  1.00  0.00     0.000 HD 
ENDBRANCH  28  29
ENDBRANCH  22  24
ENDBRANCH  20  22
ENDBRANCH   6  20
TORSDOF 6
ENDMDL
MODEL       72
REMARK 921   NORMALIZED FREE ENERGY PREDICTED BY IDOCK:   -6.30 KCAL/MOL
REMARK 922        TOTAL FREE ENERGY PREDICTED BY IDOCK:   -9.61 KCAL/MOL
REMARK 923 INTER-LIGAND FREE ENERGY PREDICTED BY IDOCK:   -9.32 KCAL/MOL
REMARK 924 INTRA-LIGAND FREE ENERGY PREDICTED BY IDOCK:   -0.29 KCAL/MOL
REMARK 927      BINDING AFFINITY PREDICTED BY RF-SCORE:    0.00 PKD
ROOT
HETATM    1  C   UNL     1      -7.823  11.184  68.633  1.00  0.00    -0.138 C  
HETATM    2  C   UNL     1      -8.934  11.934  67.989  1.00  0.00    -0.185 A  
HETATM    3  C   UNL     1     -10.288  11.987  68.330  1.00  0.00    -0.204 A  
HETATM    4  S   UNL     1     -11.098  12.962  67.149  1.00  0.00    -0.287 SA 
HETATM    5  N   UNL     1      -8.566  12.711  66.897  1.00  0.00    -0.184 NA 
HETATM    6  C   UNL     1      -9.611  13.303  66.396  1.00  0.00    -0.254 A  
ENDROOT
BRANCH   3   7
HETATM    7  C   UNL     1     -11.064  11.362  69.421  1.00  0.00    -0.301 A  
HETATM    8  C   UNL     1     -11.630   9.450  70.832  1.00  0.00    -0.312 A  
HETATM    9  C   UNL     1     -12.759  11.458  71.105  1.00  0.00    -0.377 A  
HETATM   10  C   UNL     1     -10.871  10.019  69.798  1.00  0.00    -0.308 A  
HETATM   11  N   UNL     1     -12.582  10.172  71.467  1.00  0.00    -0.400 NA 
HETATM   12  C   UNL     1     -12.029  12.090  70.115  1.00  0.00    -0.401 A  
BRANCH   8  13
HETATM   13  C   UNL     1     -11.467   7.983  71.253  1.00  0.00    -0.299 C  
HETATM   14  F   UNL     1      -9.367   7.031  71.931  1.00  0.00    -0.142 F  
HETATM   15  C   UNL     1     -12.805   7.403  71.782  1.00  0.00    -0.365 C  
HETATM   16  C   UNL     1     -11.096   7.149  70.005  1.00  0.00    -0.288 C  
HETATM   17  F   UNL     1     -10.881   7.232  73.473  1.00  0.00    -0.365 F  
HETATM   18  F   UNL     1      -9.833   8.985  72.742  1.00  0.00    -0.207 F  
HETATM   19  C   UNL     1     -10.392   7.816  72.352  1.00  0.00    -0.253 C  
ENDBRANCH   8  13
ENDBRANCH   3   7
BRANCH   6  20
HETATM   20  N   UNL     1      -9.715  14.171  65.346  1.00  0.00    -0.566 N  
HETATM   21  H   UNL     1      -9.374  13.869  64.433  1.00  0.00     0.000 HD 
BRANCH  20  22
HETATM   22  C   UNL     1     -10.252  15.429  65.454  1.00  0.00    -0.377 C  
HETATM   23  O   UNL     1     -11.273  15.822  64.897  1.00  0.00    -0.396 OA 
BRANCH  22  24
HETATM   24  N   UNL     1      -9.531  16.285  66.275  1.00  0.00    -0.293 N  
HETATM   25  C   UNL     1      -8.098  16.136  66.465  1.00  0.00    -0.296 C  
HETATM   26  C   UNL     1      -7.876  16.588  67.895  1.00  0.00    -0.162 C  
HETATM   27  C   UNL     1      -8.925  17.675  68.115  1.00  0.00    -0.269 C  
HETATM   28  C   UNL     1     -10.059  17.345  67.141  1.00  0.00    -0.307 C  
BRANCH  28  29
HETATM   29  C   UNL     1     -10.443  18.588  66.317  1.00  0.00    -0.406 C  
HETATM   30  N   UNL     1     -10.232  19.801  66.911  1.00  0.00    -0.423 N  
HETATM   31  O   UNL     1     -11.023  18.509  65.238  1.00  0.00    -0.551 OA 
HETATM   32  H1  UNL     1     -10.486  20.624  66.365  1.00  0.00     0.000 HD 
HETATM   33  H2  UNL     1      -9.842  19.878  67.850  1.00  0.00     0.000 HD 
ENDBRANCH  28  29
ENDBRANCH  22  24
ENDBRANCH  20  22
ENDBRANCH   6  20
TORSDOF 6
ENDMDL
MODEL       73
REMARK 921   NORMALIZED FREE ENERGY PREDICTED BY IDOCK:   -6.29 KCAL/MOL
REMARK 922        TOTAL FREE ENERGY PREDICTED BY IDOCK:   -9.59 KCAL/MOL
REMARK 923 INTER-LIGAND FREE ENERGY PREDICTED BY IDOCK:   -8.24 KCAL/MOL
REMARK 924 INTRA-LIGAND FREE ENERGY PREDICTED BY IDOCK:   -1.35 KCAL/MOL
REMARK 927      BINDING AFFINITY PREDICTED BY RF-SCORE:    0.00 PKD
ROOT
HETATM    1  C   UNL     1      -7.249   9.635  66.772  1.00  0.00    -0.090 C  
HETATM    2  C   UNL     1      -8.587  10.285  66.772  1.00  0.00    -0.127 A  
HETATM    3  C   UNL     1      -9.827   9.770  67.156  1.00  0.00    -0.188 A  
HETATM    4  S   UNL     1     -11.028  10.979  66.845  1.00  0.00    -0.203 SA 
HETATM    5  N   UNL     1      -8.600  11.607  66.343  1.00  0.00    -0.173 NA 
HETATM    6  C   UNL     1      -9.817  12.070  66.359  1.00  0.00    -0.220 A  
ENDROOT
BRANCH   3   7
HETATM    7  C   UNL     1     -10.234   8.457  67.701  1.00  0.00    -0.298 A  
HETATM    8  C   UNL     1     -10.685   6.956  69.574  1.00  0.00    -0.246 A  
HETATM    9  C   UNL     1     -10.895   6.180  67.398  1.00  0.00    -0.343 A  
HETATM   10  C   UNL     1     -10.306   8.215  69.086  1.00  0.00    -0.228 A  
HETATM   11  N   UNL     1     -10.961   5.940  68.723  1.00  0.00    -0.290 NA 
HETATM   12  C   UNL     1     -10.555   7.402  66.849  1.00  0.00    -0.375 A  
BRANCH   8  13
HETATM   13  C   UNL     1     -10.749   6.647  71.076  1.00  0.00    -0.278 C  
HETATM   14  F   UNL     1     -12.174   7.831  72.607  1.00  0.00    -0.299 F  
HETATM   15  C   UNL     1     -10.328   5.182  71.362  1.00  0.00    -0.273 C  
HETATM   16  C   UNL     1      -9.727   7.544  71.809  1.00  0.00    -0.187 C  
HETATM   17  F   UNL     1     -12.676   5.753  72.229  1.00  0.00    -0.267 F  
HETATM   18  F   UNL     1     -13.071   7.259  70.719  1.00  0.00    -0.299 F  
HETATM   19  C   UNL     1     -12.169   6.869  71.649  1.00  0.00    -0.361 C  
ENDBRANCH   8  13
ENDBRANCH   3   7
BRANCH   6  20
HETATM   20  N   UNL     1     -10.292  13.313  66.046  1.00  0.00    -0.283 N  
HETATM   21  H   UNL     1      -9.817  13.842  65.314  1.00  0.00     0.000 HD 
BRANCH  20  22
HETATM   22  C   UNL     1     -11.373  13.888  66.664  1.00  0.00    -0.331 C  
HETATM   23  O   UNL     1     -12.547  13.752  66.328  1.00  0.00    -0.416 OA 
BRANCH  22  24
HETATM   24  N   UNL     1     -11.047  14.683  67.755  1.00  0.00    -0.287 N  
HETATM   25  C   UNL     1     -10.994  16.131  67.656  1.00  0.00    -0.268 C  
HETATM   26  C   UNL     1      -9.892  16.516  68.626  1.00  0.00    -0.250 C  
HETATM   27  C   UNL     1      -9.986  15.474  69.737  1.00  0.00    -0.281 C  
HETATM   28  C   UNL     1     -10.605  14.237  69.081  1.00  0.00    -0.186 C  
BRANCH  28  29
HETATM   29  C   UNL     1     -11.793  13.723  69.913  1.00  0.00    -0.327 C  
HETATM   30  N   UNL     1     -11.788  12.392  70.225  1.00  0.00    -0.534 N  
HETATM   31  O   UNL     1     -12.763  14.427  70.181  1.00  0.00    -0.334 OA 
HETATM   32  H1  UNL     1     -12.576  12.051  70.776  1.00  0.00     0.000 HD 
HETATM   33  H2  UNL     1     -11.036  11.773  69.922  1.00  0.00     0.000 HD 
ENDBRANCH  28  29
ENDBRANCH  22  24
ENDBRANCH  20  22
ENDBRANCH   6  20
TORSDOF 6
ENDMDL
MODEL       74
REMARK 921   NORMALIZED FREE ENERGY PREDICTED BY IDOCK:   -6.28 KCAL/MOL
REMARK 922        TOTAL FREE ENERGY PREDICTED BY IDOCK:   -9.57 KCAL/MOL
REMARK 923 INTER-LIGAND FREE ENERGY PREDICTED BY IDOCK:   -8.78 KCAL/MOL
REMARK 924 INTRA-LIGAND FREE ENERGY PREDICTED BY IDOCK:   -0.79 KCAL/MOL
REMARK 927      BINDING AFFINITY PREDICTED BY RF-SCORE:    0.00 PKD
ROOT
HETATM    1  C   UNL     1     -10.771   6.840  66.921  1.00  0.00    -0.394 C  
HETATM    2  C   UNL     1     -10.089   7.736  67.893  1.00  0.00    -0.185 A  
HETATM    3  C   UNL     1      -9.819   9.104  67.805  1.00  0.00    -0.174 A  
HETATM    4  S   UNL     1      -8.919   9.562  69.213  1.00  0.00    -0.171 SA 
HETATM    5  N   UNL     1      -9.676   7.124  69.070  1.00  0.00    -0.149 NA 
HETATM    6  C   UNL     1      -9.072   7.987  69.836  1.00  0.00    -0.145 A  
ENDROOT
BRANCH   3   7
HETATM    7  C   UNL     1     -10.123  10.113  66.769  1.00  0.00    -0.277 A  
HETATM    8  C   UNL     1     -10.982  12.294  66.083  1.00  0.00    -0.293 A  
HETATM    9  C   UNL     1     -10.189  10.813  64.484  1.00  0.00    -0.359 A  
HETATM   10  C   UNL     1     -10.696  11.360  67.089  1.00  0.00    -0.292 A  
HETATM   11  N   UNL     1     -10.741  12.006  64.783  1.00  0.00    -0.293 NA 
HETATM   12  C   UNL     1      -9.856   9.857  65.426  1.00  0.00    -0.384 A  
BRANCH   8  13
HETATM   13  C   UNL     1     -11.631  13.652  66.390  1.00  0.00    -0.375 C  
HETATM   14  F   UNL     1     -10.431  15.499  67.350  1.00  0.00    -0.257 F  
HETATM   15  C   UNL     1     -12.865  13.896  65.484  1.00  0.00    -0.471 C  
HETATM   16  C   UNL     1     -12.156  13.631  67.843  1.00  0.00    -0.318 C  
HETATM   17  F   UNL     1     -11.081  15.733  65.292  1.00  0.00    -0.331 F  
HETATM   18  F   UNL     1      -9.416  14.425  65.765  1.00  0.00    -0.305 F  
HETATM   19  C   UNL     1     -10.637  14.821  66.192  1.00  0.00    -0.311 C  
ENDBRANCH   8  13
ENDBRANCH   3   7
BRANCH   6  20
HETATM   20  N   UNL     1      -8.532   7.835  71.082  1.00  0.00    -0.110 N  
HETATM   21  H   UNL     1      -7.577   7.485  71.155  1.00  0.00     0.000 HD 
BRANCH  20  22
HETATM   22  C   UNL     1      -9.207   8.128  72.240  1.00  0.00    -0.201 C  
HETATM   23  O   UNL     1      -8.804   8.862  73.138  1.00  0.00    -0.214 OA 
BRANCH  22  24
HETATM   24  N   UNL     1     -10.445   7.507  72.348  1.00  0.00    -0.226 N  
HETATM   25  C   UNL     1     -10.660   6.382  73.241  1.00  0.00    -0.268 C  
HETATM   26  C   UNL     1     -11.694   5.542  72.516  1.00  0.00    -0.222 C  
HETATM   27  C   UNL     1     -12.555   6.560  71.773  1.00  0.00    -0.240 C  
HETATM   28  C   UNL     1     -11.646   7.770  71.547  1.00  0.00    -0.270 C  
BRANCH  28  29
HETATM   29  C   UNL     1     -12.343   9.063  72.010  1.00  0.00    -0.384 C  
HETATM   30  N   UNL     1     -13.470   8.909  72.768  1.00  0.00    -0.800 N  
HETATM   31  O   UNL     1     -11.992  10.174  71.623  1.00  0.00    -0.361 OA 
HETATM   32  H1  UNL     1     -13.932   9.766  73.073  1.00  0.00     0.000 HD 
HETATM   33  H2  UNL     1     -13.830   7.988  73.013  1.00  0.00     0.000 HD 
ENDBRANCH  28  29
ENDBRANCH  22  24
ENDBRANCH  20  22
ENDBRANCH   6  20
TORSDOF 6
ENDMDL
MODEL       75
REMARK 921   NORMALIZED FREE ENERGY PREDICTED BY IDOCK:   -6.28 KCAL/MOL
REMARK 922        TOTAL FREE ENERGY PREDICTED BY IDOCK:   -9.57 KCAL/MOL
REMARK 923 INTER-LIGAND FREE ENERGY PREDICTED BY IDOCK:   -8.12 KCAL/MOL
REMARK 924 INTRA-LIGAND FREE ENERGY PREDICTED BY IDOCK:   -1.46 KCAL/MOL
REMARK 927      BINDING AFFINITY PREDICTED BY RF-SCORE:    0.00 PKD
ROOT
HETATM    1  C   UNL     1      -9.053   7.199  66.001  1.00  0.00    -0.108 C  
HETATM    2  C   UNL     1      -9.306   8.587  66.472  1.00  0.00    -0.203 A  
HETATM    3  C   UNL     1      -9.322   9.097  67.773  1.00  0.00    -0.136 A  
HETATM    4  S   UNL     1      -9.765  10.770  67.686  1.00  0.00    -0.167 SA 
HETATM    5  N   UNL     1      -9.545   9.517  65.467  1.00  0.00    -0.277 NA 
HETATM    6  C   UNL     1      -9.778  10.688  65.987  1.00  0.00    -0.208 A  
ENDROOT
BRANCH   3   7
HETATM    7  C   UNL     1      -9.078   8.471  69.090  1.00  0.00    -0.146 A  
HETATM    8  C   UNL     1      -9.841   7.727  71.288  1.00  0.00    -0.171 A  
HETATM    9  C   UNL     1      -7.613   7.470  70.692  1.00  0.00    -0.085 A  
HETATM   10  C   UNL     1     -10.104   8.316  70.042  1.00  0.00    -0.196 A  
HETATM   11  N   UNL     1      -8.590   7.323  71.610  1.00  0.00    -0.117 NA 
HETATM   12  C   UNL     1      -7.808   8.016  69.437  1.00  0.00    -0.113 A  
BRANCH   8  13
HETATM   13  C   UNL     1     -10.926   7.566  72.361  1.00  0.00    -0.333 C  
HETATM   14  F   UNL     1     -13.031   6.481  71.955  1.00  0.00    -0.385 F  
HETATM   15  C   UNL     1     -10.309   7.586  73.784  1.00  0.00    -0.203 C  
HETATM   16  C   UNL     1     -11.881   8.778  72.284  1.00  0.00    -0.403 C  
HETATM   17  F   UNL     1     -11.658   5.458  73.289  1.00  0.00    -0.328 F  
HETATM   18  F   UNL     1     -11.279   5.490  71.154  1.00  0.00    -0.298 F  
HETATM   19  C   UNL     1     -11.714   6.246  72.187  1.00  0.00    -0.319 C  
ENDBRANCH   8  13
ENDBRANCH   3   7
BRANCH   6  20
HETATM   20  N   UNL     1     -10.034  11.887  65.382  1.00  0.00    -0.249 N  
HETATM   21  H   UNL     1      -9.278  12.339  64.867  1.00  0.00     0.000 HD 
BRANCH  20  22
HETATM   22  C   UNL     1     -11.252  12.514  65.432  1.00  0.00    -0.307 C  
HETATM   23  O   UNL     1     -12.340  11.987  65.213  1.00  0.00    -0.442 OA 
BRANCH  22  24
HETATM   24  N   UNL     1     -11.183  13.862  65.759  1.00  0.00    -0.300 N  
HETATM   25  C   UNL     1     -11.465  14.901  64.784  1.00  0.00    -0.410 C  
HETATM   26  C   UNL     1     -10.541  16.034  65.188  1.00  0.00    -0.394 C  
HETATM   27  C   UNL     1     -10.450  15.923  66.708  1.00  0.00    -0.309 C  
HETATM   28  C   UNL     1     -10.724  14.450  67.023  1.00  0.00    -0.285 C  
BRANCH  28  29
HETATM   29  C   UNL     1     -11.804  14.322  68.113  1.00  0.00    -0.339 C  
HETATM   30  N   UNL     1     -12.269  15.491  68.649  1.00  0.00    -0.544 N  
HETATM   31  O   UNL     1     -12.147  13.238  68.576  1.00  0.00    -0.341 OA 
HETATM   32  H1  UNL     1     -12.984  15.406  69.371  1.00  0.00     0.000 HD 
HETATM   33  H2  UNL     1     -11.919  16.398  68.342  1.00  0.00     0.000 HD 
ENDBRANCH  28  29
ENDBRANCH  22  24
ENDBRANCH  20  22
ENDBRANCH   6  20
TORSDOF 6
ENDMDL
MODEL       76
REMARK 921   NORMALIZED FREE ENERGY PREDICTED BY IDOCK:   -6.28 KCAL/MOL
REMARK 922        TOTAL FREE ENERGY PREDICTED BY IDOCK:   -9.57 KCAL/MOL
REMARK 923 INTER-LIGAND FREE ENERGY PREDICTED BY IDOCK:   -8.31 KCAL/MOL
REMARK 924 INTRA-LIGAND FREE ENERGY PREDICTED BY IDOCK:   -1.26 KCAL/MOL
REMARK 927      BINDING AFFINITY PREDICTED BY RF-SCORE:    0.00 PKD
ROOT
HETATM    1  C   UNL     1      -8.837   7.457  66.346  1.00  0.00    -0.176 C  
HETATM    2  C   UNL     1      -8.951   8.533  67.366  1.00  0.00    -0.134 A  
HETATM    3  C   UNL     1      -9.292   9.878  67.207  1.00  0.00    -0.145 A  
HETATM    4  S   UNL     1      -9.165  10.648  68.755  1.00  0.00    -0.183 SA 
HETATM    5  N   UNL     1      -8.696   8.135  68.674  1.00  0.00    -0.134 NA 
HETATM    6  C   UNL     1      -8.798   9.153  69.479  1.00  0.00    -0.149 A  
ENDROOT
BRANCH   3   7
HETATM    7  C   UNL     1      -9.671  10.675  66.021  1.00  0.00    -0.258 A  
HETATM    8  C   UNL     1     -10.795  12.580  64.984  1.00  0.00    -0.290 A  
HETATM    9  C   UNL     1      -9.684  11.034  63.658  1.00  0.00    -0.324 A  
HETATM   10  C   UNL     1     -10.442  11.849  66.129  1.00  0.00    -0.272 A  
HETATM   11  N   UNL     1     -10.426  12.156  63.753  1.00  0.00    -0.398 NA 
HETATM   12  C   UNL     1      -9.278  10.281  64.744  1.00  0.00    -0.287 A  
BRANCH   8  13
HETATM   13  C   UNL     1     -11.656  13.848  65.059  1.00  0.00    -0.350 C  
HETATM   14  F   UNL     1     -11.131  15.718  66.474  1.00  0.00    -0.306 F  
HETATM   15  C   UNL     1     -12.463  14.051  63.750  1.00  0.00    -0.080 C  
HETATM   16  C   UNL     1     -12.696  13.674  66.188  1.00  0.00    -0.295 C  
HETATM   17  F   UNL     1     -10.957  16.045  64.336  1.00  0.00    -0.434 F  
HETATM   18  F   UNL     1      -9.472  14.858  65.379  1.00  0.00    -0.329 F  
HETATM   19  C   UNL     1     -10.798  15.112  65.305  1.00  0.00    -0.400 C  
ENDBRANCH   8  13
ENDBRANCH   3   7
BRANCH   6  20
HETATM   20  N   UNL     1      -8.659   9.221  70.837  1.00  0.00    -0.203 N  
HETATM   21  H   UNL     1      -8.118   9.992  71.229  1.00  0.00     0.000 HD 
BRANCH  20  22
HETATM   22  C   UNL     1      -9.207   8.307  71.701  1.00  0.00    -0.185 C  
HETATM   23  O   UNL     1      -8.598   7.681  72.564  1.00  0.00    -0.111 OA 
BRANCH  22  24
HETATM   24  N   UNL     1     -10.573   8.116  71.532  1.00  0.00    -0.220 N  
HETATM   25  C   UNL     1     -11.495   9.235  71.440  1.00  0.00    -0.369 C  
HETATM   26  C   UNL     1     -12.763   8.708  72.085  1.00  0.00    -0.447 C  
HETATM   27  C   UNL     1     -12.772   7.222  71.741  1.00  0.00    -0.370 C  
HETATM   28  C   UNL     1     -11.302   6.844  71.540  1.00  0.00    -0.266 C  
BRANCH  28  29
HETATM   29  C   UNL     1     -11.114   6.093  70.209  1.00  0.00    -0.366 C  
HETATM   30  N   UNL     1     -11.693   6.655  69.106  1.00  0.00    -0.589 N  
HETATM   31  O   UNL     1     -10.585   4.987  70.147  1.00  0.00    -0.236 OA 
HETATM   32  H1  UNL     1     -11.569   6.157  68.225  1.00  0.00     0.000 HD 
HETATM   33  H2  UNL     1     -12.222   7.525  69.162  1.00  0.00     0.000 HD 
ENDBRANCH  28  29
ENDBRANCH  22  24
ENDBRANCH  20  22
ENDBRANCH   6  20
TORSDOF 6
ENDMDL
MODEL       77
REMARK 921   NORMALIZED FREE ENERGY PREDICTED BY IDOCK:   -6.27 KCAL/MOL
REMARK 922        TOTAL FREE ENERGY PREDICTED BY IDOCK:   -9.57 KCAL/MOL
REMARK 923 INTER-LIGAND FREE ENERGY PREDICTED BY IDOCK:   -8.64 KCAL/MOL
REMARK 924 INTRA-LIGAND FREE ENERGY PREDICTED BY IDOCK:   -0.93 KCAL/MOL
REMARK 927      BINDING AFFINITY PREDICTED BY RF-SCORE:    0.00 PKD
ROOT
HETATM    1  C   UNL     1      -9.833   9.213  66.690  1.00  0.00    -0.307 C  
HETATM    2  C   UNL     1     -10.454   9.235  68.041  1.00  0.00    -0.223 A  
HETATM    3  C   UNL     1     -11.007  10.305  68.749  1.00  0.00    -0.243 A  
HETATM    4  S   UNL     1     -11.491   9.722  70.308  1.00  0.00    -0.235 SA 
HETATM    5  N   UNL     1     -10.506   8.006  68.687  1.00  0.00    -0.196 NA 
HETATM    6  C   UNL     1     -11.043   8.141  69.865  1.00  0.00    -0.102 A  
ENDROOT
BRANCH   3   7
HETATM    7  C   UNL     1     -11.189  11.733  68.413  1.00  0.00    -0.307 A  
HETATM    8  C   UNL     1     -11.181  13.580  66.815  1.00  0.00    -0.310 A  
HETATM    9  C   UNL     1     -11.661  13.989  69.047  1.00  0.00    -0.330 A  
HETATM   10  C   UNL     1     -11.012  12.218  67.102  1.00  0.00    -0.308 A  
HETATM   11  N   UNL     1     -11.489  14.460  67.796  1.00  0.00    -0.318 NA 
HETATM   12  C   UNL     1     -11.537  12.657  69.396  1.00  0.00    -0.369 A  
BRANCH   8  13
HETATM   13  C   UNL     1     -10.972  14.150  65.405  1.00  0.00    -0.328 C  
HETATM   14  F   UNL     1     -12.368  13.585  63.533  1.00  0.00    -0.522 F  
HETATM   15  C   UNL     1     -10.238  15.516  65.460  1.00  0.00    -0.415 C  
HETATM   16  C   UNL     1     -10.049  13.193  64.617  1.00  0.00    -0.248 C  
HETATM   17  F   UNL     1     -12.506  15.625  64.261  1.00  0.00    -0.368 F  
HETATM   18  F   UNL     1     -13.395  14.004  65.395  1.00  0.00    -0.478 F  
HETATM   19  C   UNL     1     -12.313  14.344  64.658  1.00  0.00    -0.418 C  
ENDBRANCH   8  13
ENDBRANCH   3   7
BRANCH   6  20
HETATM   20  N   UNL     1     -11.315   7.206  70.824  1.00  0.00    -0.278 N  
HETATM   21  H   UNL     1     -12.023   7.424  71.525  1.00  0.00     0.000 HD 
BRANCH  20  22
HETATM   22  C   UNL     1     -10.685   5.989  70.893  1.00  0.00    -0.267 C  
HETATM   23  O   UNL     1     -10.364   5.292  69.935  1.00  0.00    -0.272 OA 
BRANCH  22  24
HETATM   24  N   UNL     1     -10.419   5.562  72.188  1.00  0.00    -0.213 N  
HETATM   25  C   UNL     1     -10.121   4.172  72.487  1.00  0.00    -0.170 C  
HETATM   26  C   UNL     1     -10.705   3.970  73.873  1.00  0.00    -0.312 C  
HETATM   27  C   UNL     1     -10.529   5.323  74.557  1.00  0.00    -0.233 C  
HETATM   28  C   UNL     1     -10.504   6.350  73.422  1.00  0.00    -0.263 C  
BRANCH  28  29
HETATM   29  C   UNL     1      -9.287   7.282  73.564  1.00  0.00    -0.209 C  
HETATM   30  N   UNL     1      -8.333   6.905  74.468  1.00  0.00    -0.150 N  
HETATM   31  O   UNL     1      -9.222   8.370  72.999  1.00  0.00    -0.253 OA 
HETATM   32  H1  UNL     1      -7.527   7.523  74.562  1.00  0.00     0.000 HD 
HETATM   33  H2  UNL     1      -8.423   6.052  75.018  1.00  0.00     0.000 HD 
ENDBRANCH  28  29
ENDBRANCH  22  24
ENDBRANCH  20  22
ENDBRANCH   6  20
TORSDOF 6
ENDMDL
MODEL       78
REMARK 921   NORMALIZED FREE ENERGY PREDICTED BY IDOCK:   -6.25 KCAL/MOL
REMARK 922        TOTAL FREE ENERGY PREDICTED BY IDOCK:   -9.54 KCAL/MOL
REMARK 923 INTER-LIGAND FREE ENERGY PREDICTED BY IDOCK:   -8.24 KCAL/MOL
REMARK 924 INTRA-LIGAND FREE ENERGY PREDICTED BY IDOCK:   -1.29 KCAL/MOL
REMARK 927      BINDING AFFINITY PREDICTED BY RF-SCORE:    0.00 PKD
ROOT
HETATM    1  C   UNL     1      -8.358   8.509  65.299  1.00  0.00    -0.168 C  
HETATM    2  C   UNL     1      -9.267   8.559  66.474  1.00  0.00    -0.190 A  
HETATM    3  C   UNL     1      -9.652   9.651  67.257  1.00  0.00    -0.164 A  
HETATM    4  S   UNL     1     -10.660   9.062  68.538  1.00  0.00    -0.105 SA 
HETATM    5  N   UNL     1      -9.831   7.341  66.837  1.00  0.00    -0.198 NA 
HETATM    6  C   UNL     1     -10.586   7.492  67.886  1.00  0.00    -0.185 A  
ENDROOT
BRANCH   3   7
HETATM    7  C   UNL     1      -9.327  11.091  67.184  1.00  0.00    -0.177 A  
HETATM    8  C   UNL     1      -9.954  13.416  66.775  1.00  0.00    -0.264 A  
HETATM    9  C   UNL     1      -7.763  12.893  67.329  1.00  0.00    -0.117 A  
HETATM   10  C   UNL     1     -10.294  12.057  66.846  1.00  0.00    -0.238 A  
HETATM   11  N   UNL     1      -8.683  13.822  67.002  1.00  0.00    -0.221 NA 
HETATM   12  C   UNL     1      -8.034  11.543  67.444  1.00  0.00    -0.143 A  
BRANCH   8  13
HETATM   13  C   UNL     1     -10.974  14.494  66.384  1.00  0.00    -0.324 C  
HETATM   14  F   UNL     1     -10.694  15.952  64.495  1.00  0.00    -0.426 F  
HETATM   15  C   UNL     1     -12.392  14.133  66.900  1.00  0.00    -0.293 C  
HETATM   16  C   UNL     1     -10.584  15.818  67.079  1.00  0.00    -0.316 C  
HETATM   17  F   UNL     1     -12.292  14.490  64.359  1.00  0.00    -0.456 F  
HETATM   18  F   UNL     1     -10.225  13.863  64.163  1.00  0.00    -0.372 F  
HETATM   19  C   UNL     1     -11.045  14.690  64.851  1.00  0.00    -0.401 C  
ENDBRANCH   8  13
ENDBRANCH   3   7
BRANCH   6  20
HETATM   20  N   UNL     1     -11.347   6.581  68.564  1.00  0.00    -0.578 N  
HETATM   21  H   UNL     1     -12.254   6.324  68.174  1.00  0.00     0.000 HD 
BRANCH  20  22
HETATM   22  C   UNL     1     -10.956   5.994  69.741  1.00  0.00    -0.401 C  
HETATM   23  O   UNL     1     -10.301   4.960  69.843  1.00  0.00    -0.265 OA 
BRANCH  22  24
HETATM   24  N   UNL     1     -11.369   6.675  70.878  1.00  0.00    -0.304 N  
HETATM   25  C   UNL     1     -12.772   6.949  71.137  1.00  0.00    -0.275 C  
HETATM   26  C   UNL     1     -12.749   8.281  71.864  1.00  0.00    -0.373 C  
HETATM   27  C   UNL     1     -11.450   8.252  72.664  1.00  0.00    -0.423 C  
HETATM   28  C   UNL     1     -10.521   7.308  71.895  1.00  0.00    -0.200 C  
BRANCH  28  29
HETATM   29  C   UNL     1      -9.918   6.255  72.842  1.00  0.00    -0.170 C  
HETATM   30  N   UNL     1     -10.724   5.812  73.853  1.00  0.00    -0.370 N  
HETATM   31  O   UNL     1      -8.739   5.916  72.783  1.00  0.00    -0.125 OA 
HETATM   32  H1  UNL     1     -10.323   5.114  74.480  1.00  0.00     0.000 HD 
HETATM   33  H2  UNL     1     -11.674   6.160  73.973  1.00  0.00     0.000 HD 
ENDBRANCH  28  29
ENDBRANCH  22  24
ENDBRANCH  20  22
ENDBRANCH   6  20
TORSDOF 6
ENDMDL
MODEL       79
REMARK 921   NORMALIZED FREE ENERGY PREDICTED BY IDOCK:   -6.25 KCAL/MOL
REMARK 922        TOTAL FREE ENERGY PREDICTED BY IDOCK:   -9.53 KCAL/MOL
REMARK 923 INTER-LIGAND FREE ENERGY PREDICTED BY IDOCK:   -8.75 KCAL/MOL
REMARK 924 INTRA-LIGAND FREE ENERGY PREDICTED BY IDOCK:   -0.78 KCAL/MOL
REMARK 927      BINDING AFFINITY PREDICTED BY RF-SCORE:    0.00 PKD
ROOT
HETATM    1  C   UNL     1      -9.118   9.403  64.842  1.00  0.00    -0.258 C  
HETATM    2  C   UNL     1      -9.754  10.167  65.948  1.00  0.00    -0.232 A  
HETATM    3  C   UNL     1     -10.348   9.703  67.125  1.00  0.00    -0.254 A  
HETATM    4  S   UNL     1     -10.991  11.070  67.974  1.00  0.00    -0.282 SA 
HETATM    5  N   UNL     1      -9.739  11.549  65.796  1.00  0.00    -0.228 NA 
HETATM    6  C   UNL     1     -10.340  12.116  66.801  1.00  0.00    -0.213 A  
ENDROOT
BRANCH   3   7
HETATM    7  C   UNL     1     -10.528   8.345  67.680  1.00  0.00    -0.307 A  
HETATM    8  C   UNL     1     -10.675   6.798  69.565  1.00  0.00    -0.257 A  
HETATM    9  C   UNL     1     -10.839   5.992  67.396  1.00  0.00    -0.303 A  
HETATM   10  C   UNL     1     -10.512   8.100  69.067  1.00  0.00    -0.211 A  
HETATM   11  N   UNL     1     -10.821   5.750  68.722  1.00  0.00    -0.255 NA 
HETATM   12  C   UNL     1     -10.712   7.250  66.838  1.00  0.00    -0.346 A  
BRANCH   8  13
HETATM   13  C   UNL     1     -10.638   6.488  71.068  1.00  0.00    -0.275 C  
HETATM   14  F   UNL     1     -11.791   7.803  72.715  1.00  0.00    -0.353 F  
HETATM   15  C   UNL     1     -10.346   4.985  71.319  1.00  0.00    -0.255 C  
HETATM   16  C   UNL     1      -9.467   7.270  71.705  1.00  0.00    -0.161 C  
HETATM   17  F   UNL     1     -12.537   5.791  72.389  1.00  0.00    -0.319 F  
HETATM   18  F   UNL     1     -12.906   7.339  70.916  1.00  0.00    -0.352 F  
HETATM   19  C   UNL     1     -11.971   6.851  71.763  1.00  0.00    -0.333 C  
ENDBRANCH   8  13
ENDBRANCH   3   7
BRANCH   6  20
HETATM   20  N   UNL     1     -10.536  13.440  67.079  1.00  0.00    -0.263 N  
HETATM   21  H   UNL     1      -9.728  14.062  67.066  1.00  0.00     0.000 HD 
BRANCH  20  22
HETATM   22  C   UNL     1     -11.764  13.978  67.373  1.00  0.00    -0.388 C  
HETATM   23  O   UNL     1     -12.716  14.057  66.602  1.00  0.00    -0.255 OA 
BRANCH  22  24
HETATM   24  N   UNL     1     -11.875  14.460  68.671  1.00  0.00    -0.333 N  
HETATM   25  C   UNL     1     -12.119  13.574  69.797  1.00  0.00    -0.318 C  
HETATM   26  C   UNL     1     -12.957  14.416  70.740  1.00  0.00    -0.388 C  
HETATM   27  C   UNL     1     -12.449  15.840  70.528  1.00  0.00    -0.371 C  
HETATM   28  C   UNL     1     -11.891  15.862  69.103  1.00  0.00    -0.330 C  
BRANCH  28  29
HETATM   29  C   UNL     1     -10.472  16.458  69.088  1.00  0.00    -0.303 C  
HETATM   30  N   UNL     1     -10.261  17.508  68.238  1.00  0.00    -0.343 N  
HETATM   31  O   UNL     1      -9.538  15.951  69.704  1.00  0.00    -0.259 OA 
HETATM   32  H1  UNL     1      -9.320  17.903  68.228  1.00  0.00     0.000 HD 
HETATM   33  H2  UNL     1     -11.004  17.876  67.645  1.00  0.00     0.000 HD 
ENDBRANCH  28  29
ENDBRANCH  22  24
ENDBRANCH  20  22
ENDBRANCH   6  20
TORSDOF 6
ENDMDL
MODEL       80
REMARK 921   NORMALIZED FREE ENERGY PREDICTED BY IDOCK:   -6.24 KCAL/MOL
REMARK 922        TOTAL FREE ENERGY PREDICTED BY IDOCK:   -9.52 KCAL/MOL
REMARK 923 INTER-LIGAND FREE ENERGY PREDICTED BY IDOCK:   -8.68 KCAL/MOL
REMARK 924 INTRA-LIGAND FREE ENERGY PREDICTED BY IDOCK:   -0.85 KCAL/MOL
REMARK 927      BINDING AFFINITY PREDICTED BY RF-SCORE:    0.00 PKD
ROOT
HETATM    1  C   UNL     1     -13.069  11.877  71.813  1.00  0.00    -0.465 C  
HETATM    2  C   UNL     1     -12.164  11.736  70.641  1.00  0.00    -0.349 A  
HETATM    3  C   UNL     1     -11.494  10.607  70.164  1.00  0.00    -0.329 A  
HETATM    4  S   UNL     1     -10.519  11.093  68.817  1.00  0.00    -0.210 SA 
HETATM    5  N   UNL     1     -11.971  12.897  69.902  1.00  0.00    -0.331 NA 
HETATM    6  C   UNL     1     -11.148  12.671  68.919  1.00  0.00    -0.259 A  
ENDROOT
BRANCH   3   7
HETATM    7  C   UNL     1     -11.465   9.201  70.620  1.00  0.00    -0.310 A  
HETATM    8  C   UNL     1     -10.483   6.965  70.622  1.00  0.00    -0.210 A  
HETATM    9  C   UNL     1     -12.390   7.388  71.875  1.00  0.00    -0.310 A  
HETATM   10  C   UNL     1     -10.479   8.296  70.181  1.00  0.00    -0.225 A  
HETATM   11  N   UNL     1     -11.452   6.516  71.455  1.00  0.00    -0.288 NA 
HETATM   12  C   UNL     1     -12.430   8.719  71.502  1.00  0.00    -0.374 A  
BRANCH   8  13
HETATM   13  C   UNL     1      -9.442   5.943  70.146  1.00  0.00    -0.190 C  
HETATM   14  F   UNL     1     -10.016   3.906  69.007  1.00  0.00    -0.228 F  
HETATM   15  C   UNL     1      -8.066   6.619  69.909  1.00  0.00    -0.125 C  
HETATM   16  C   UNL     1      -9.226   4.899  71.265  1.00  0.00    -0.190 C  
HETATM   17  F   UNL     1      -8.976   5.409  67.836  1.00  0.00    -0.110 F  
HETATM   18  F   UNL     1     -11.062   5.689  68.357  1.00  0.00    -0.291 F  
HETATM   19  C   UNL     1      -9.877   5.246  68.835  1.00  0.00    -0.164 C  
ENDBRANCH   8  13
ENDBRANCH   3   7
BRANCH   6  20
HETATM   20  N   UNL     1     -10.696  13.506  67.936  1.00  0.00    -0.243 N  
HETATM   21  H   UNL     1     -10.904  14.501  68.014  1.00  0.00     0.000 HD 
BRANCH  20  22
HETATM   22  C   UNL     1      -9.979  13.076  66.848  1.00  0.00    -0.243 C  
HETATM   23  O   UNL     1      -8.827  12.652  66.872  1.00  0.00    -0.210 OA 
BRANCH  22  24
HETATM   24  N   UNL     1     -10.670  13.154  65.646  1.00  0.00    -0.277 N  
HETATM   25  C   UNL     1     -10.870  14.420  64.962  1.00  0.00    -0.407 C  
HETATM   26  C   UNL     1     -12.223  14.257  64.295  1.00  0.00    -0.451 C  
HETATM   27  C   UNL     1     -12.294  12.773  63.944  1.00  0.00    -0.510 C  
HETATM   28  C   UNL     1     -11.382  12.074  64.955  1.00  0.00    -0.310 C  
BRANCH  28  29
HETATM   29  C   UNL     1     -10.396  11.137  64.235  1.00  0.00    -0.351 C  
HETATM   30  N   UNL     1      -9.969  10.045  64.938  1.00  0.00    -0.369 N  
HETATM   31  O   UNL     1      -9.911  11.408  63.140  1.00  0.00    -0.351 OA 
HETATM   32  H1  UNL     1      -9.315   9.424  64.460  1.00  0.00     0.000 HD 
HETATM   33  H2  UNL     1     -10.288   9.861  65.889  1.00  0.00     0.000 HD 
ENDBRANCH  28  29
ENDBRANCH  22  24
ENDBRANCH  20  22
ENDBRANCH   6  20
TORSDOF 6
ENDMDL
MODEL       81
REMARK 921   NORMALIZED FREE ENERGY PREDICTED BY IDOCK:   -6.23 KCAL/MOL
REMARK 922        TOTAL FREE ENERGY PREDICTED BY IDOCK:   -9.51 KCAL/MOL
REMARK 923 INTER-LIGAND FREE ENERGY PREDICTED BY IDOCK:   -8.57 KCAL/MOL
REMARK 924 INTRA-LIGAND FREE ENERGY PREDICTED BY IDOCK:   -0.94 KCAL/MOL
REMARK 927      BINDING AFFINITY PREDICTED BY RF-SCORE:    0.00 PKD
ROOT
HETATM    1  C   UNL     1     -11.241  15.517  64.586  1.00  0.00    -0.381 C  
HETATM    2  C   UNL     1     -10.674  15.546  65.961  1.00  0.00    -0.326 A  
HETATM    3  C   UNL     1     -10.252  14.490  66.773  1.00  0.00    -0.266 A  
HETATM    4  S   UNL     1      -9.773  15.150  68.302  1.00  0.00    -0.223 SA 
HETATM    5  N   UNL     1     -10.528  16.814  66.512  1.00  0.00    -0.290 NA 
HETATM    6  C   UNL     1     -10.050  16.724  67.720  1.00  0.00    -0.281 A  
ENDROOT
BRANCH   3   7
HETATM    7  C   UNL     1     -10.196  13.029  66.556  1.00  0.00    -0.270 A  
HETATM    8  C   UNL     1     -10.125  10.735  67.392  1.00  0.00    -0.193 A  
HETATM    9  C   UNL     1     -10.052  11.132  65.108  1.00  0.00    -0.281 A  
HETATM   10  C   UNL     1     -10.188  12.116  67.629  1.00  0.00    -0.206 A  
HETATM   11  N   UNL     1     -10.040  10.254  66.130  1.00  0.00    -0.241 NA 
HETATM   12  C   UNL     1     -10.141  12.503  65.267  1.00  0.00    -0.275 A  
BRANCH   8  13
HETATM   13  C   UNL     1     -10.088   9.711  68.536  1.00  0.00    -0.195 C  
HETATM   14  F   UNL     1      -8.188   8.312  68.991  1.00  0.00    -0.111 F  
HETATM   15  C   UNL     1     -11.066  10.109  69.671  1.00  0.00    -0.308 C  
HETATM   16  C   UNL     1     -10.579   8.350  67.995  1.00  0.00    -0.191 C  
HETATM   17  F   UNL     1      -8.641   9.838  70.467  1.00  0.00    -0.216 F  
HETATM   18  F   UNL     1      -7.757  10.392  68.565  1.00  0.00    -0.088 F  
HETATM   19  C   UNL     1      -8.669   9.573  69.138  1.00  0.00    -0.146 C  
ENDBRANCH   8  13
ENDBRANCH   3   7
BRANCH   6  20
HETATM   20  N   UNL     1      -9.726  17.705  68.615  1.00  0.00    -0.321 N  
HETATM   21  H   UNL     1      -9.588  17.442  69.591  1.00  0.00     0.000 HD 
BRANCH  20  22
HETATM   22  C   UNL     1      -9.575  19.024  68.271  1.00  0.00    -0.355 C  
HETATM   23  O   UNL     1     -10.486  19.808  68.018  1.00  0.00    -0.434 OA 
BRANCH  22  24
HETATM   24  N   UNL     1      -8.254  19.449  68.219  1.00  0.00    -0.327 N  
HETATM   25  C   UNL     1      -7.269  19.002  69.188  1.00  0.00    -0.270 C  
HETATM   26  C   UNL     1      -6.342  20.194  69.334  1.00  0.00    -0.353 C  
HETATM   27  C   UNL     1      -6.336  20.839  67.951  1.00  0.00    -0.374 C  
HETATM   28  C   UNL     1      -7.675  20.452  67.318  1.00  0.00    -0.333 C  
BRANCH  28  29
HETATM   29  C   UNL     1      -7.459  19.868  65.910  1.00  0.00    -0.328 C  
HETATM   30  N   UNL     1      -7.047  20.744  64.944  1.00  0.00    -0.486 N  
HETATM   31  O   UNL     1      -7.757  18.712  65.625  1.00  0.00    -0.495 OA 
HETATM   32  H1  UNL     1      -6.904  20.356  64.012  1.00  0.00     0.000 HD 
HETATM   33  H2  UNL     1      -6.891  21.731  65.146  1.00  0.00     0.000 HD 
ENDBRANCH  28  29
ENDBRANCH  22  24
ENDBRANCH  20  22
ENDBRANCH   6  20
TORSDOF 6
ENDMDL
MODEL       82
REMARK 921   NORMALIZED FREE ENERGY PREDICTED BY IDOCK:   -6.21 KCAL/MOL
REMARK 922        TOTAL FREE ENERGY PREDICTED BY IDOCK:   -9.48 KCAL/MOL
REMARK 923 INTER-LIGAND FREE ENERGY PREDICTED BY IDOCK:   -8.57 KCAL/MOL
REMARK 924 INTRA-LIGAND FREE ENERGY PREDICTED BY IDOCK:   -0.91 KCAL/MOL
REMARK 927      BINDING AFFINITY PREDICTED BY RF-SCORE:    0.00 PKD
ROOT
HETATM    1  C   UNL     1     -12.170  13.997  69.375  1.00  0.00    -0.336 C  
HETATM    2  C   UNL     1     -11.279  13.176  68.512  1.00  0.00    -0.272 A  
HETATM    3  C   UNL     1     -10.709  13.482  67.274  1.00  0.00    -0.267 A  
HETATM    4  S   UNL     1      -9.839  12.087  66.726  1.00  0.00    -0.208 SA 
HETATM    5  N   UNL     1     -10.951  11.925  69.023  1.00  0.00    -0.228 NA 
HETATM    6  C   UNL     1     -10.192  11.284  68.183  1.00  0.00    -0.180 A  
ENDROOT
BRANCH   3   7
HETATM    7  C   UNL     1     -10.765  14.691  66.425  1.00  0.00    -0.309 A  
HETATM    8  C   UNL     1     -10.347  17.067  66.042  1.00  0.00    -0.315 A  
HETATM    9  C   UNL     1     -11.388  15.800  64.401  1.00  0.00    -0.265 A  
HETATM   10  C   UNL     1     -10.271  15.934  66.866  1.00  0.00    -0.277 A  
HETATM   11  N   UNL     1     -10.922  16.994  64.818  1.00  0.00    -0.905 NA 
HETATM   12  C   UNL     1     -11.322  14.639  65.148  1.00  0.00    -0.375 A  
BRANCH   8  13
HETATM   13  C   UNL     1      -9.844  18.444  66.497  1.00  0.00    -0.368 C  
HETATM   14  F   UNL     1      -7.770  18.770  67.665  1.00  0.00    -0.231 F  
HETATM   15  C   UNL     1     -10.442  19.573  65.618  1.00  0.00    -0.412 C  
HETATM   16  C   UNL     1     -10.345  18.701  67.936  1.00  0.00    -0.442 C  
HETATM   17  F   UNL     1      -7.875  19.555  65.644  1.00  0.00    -0.316 F  
HETATM   18  F   UNL     1      -7.707  17.418  65.974  1.00  0.00    -0.301 F  
HETATM   19  C   UNL     1      -8.301  18.541  66.437  1.00  0.00    -0.259 C  
ENDBRANCH   8  13
ENDBRANCH   3   7
BRANCH   6  20
HETATM   20  N   UNL     1      -9.617  10.047  68.280  1.00  0.00    -0.139 N  
HETATM   21  H   UNL     1      -8.791   9.943  68.869  1.00  0.00     0.000 HD 
BRANCH  20  22
HETATM   22  C   UNL     1     -10.093   8.938  67.627  1.00  0.00    -0.218 C  
HETATM   23  O   UNL     1     -10.536   8.916  66.482  1.00  0.00    -0.188 OA 
BRANCH  22  24
HETATM   24  N   UNL     1     -10.045   7.772  68.380  1.00  0.00    -0.186 N  
HETATM   25  C   UNL     1     -10.738   7.655  69.652  1.00  0.00    -0.228 C  
HETATM   26  C   UNL     1      -9.843   6.739  70.465  1.00  0.00    -0.187 C  
HETATM   27  C   UNL     1      -9.233   5.794  69.433  1.00  0.00    -0.144 C  
HETATM   28  C   UNL     1      -9.243   6.573  68.115  1.00  0.00    -0.112 C  
BRANCH  28  29
HETATM   29  C   UNL     1      -9.873   5.727  66.993  1.00  0.00    -0.151 C  
HETATM   30  N   UNL     1     -11.200   5.939  66.742  1.00  0.00    -0.628 N  
HETATM   31  O   UNL     1      -9.265   4.820  66.433  1.00  0.00    -0.125 OA 
HETATM   32  H1  UNL     1     -11.617   5.379  65.999  1.00  0.00     0.000 HD 
HETATM   33  H2  UNL     1     -11.743   6.622  67.271  1.00  0.00     0.000 HD 
ENDBRANCH  28  29
ENDBRANCH  22  24
ENDBRANCH  20  22
ENDBRANCH   6  20
TORSDOF 6
ENDMDL
MODEL       83
REMARK 921   NORMALIZED FREE ENERGY PREDICTED BY IDOCK:   -6.21 KCAL/MOL
REMARK 922        TOTAL FREE ENERGY PREDICTED BY IDOCK:   -9.48 KCAL/MOL
REMARK 923 INTER-LIGAND FREE ENERGY PREDICTED BY IDOCK:   -8.49 KCAL/MOL
REMARK 924 INTRA-LIGAND FREE ENERGY PREDICTED BY IDOCK:   -0.99 KCAL/MOL
REMARK 927      BINDING AFFINITY PREDICTED BY RF-SCORE:    0.00 PKD
ROOT
HETATM    1  C   UNL     1      -8.436   8.853  64.900  1.00  0.00    -0.195 C  
HETATM    2  C   UNL     1      -9.344   9.843  65.537  1.00  0.00    -0.223 A  
HETATM    3  C   UNL     1     -10.213   9.687  66.620  1.00  0.00    -0.232 A  
HETATM    4  S   UNL     1     -11.071  11.177  66.836  1.00  0.00    -0.181 SA 
HETATM    5  N   UNL     1      -9.311  11.117  64.982  1.00  0.00    -0.221 NA 
HETATM    6  C   UNL     1     -10.156  11.895  65.594  1.00  0.00    -0.243 A  
ENDROOT
BRANCH   3   7
HETATM    7  C   UNL     1     -10.509   8.537  67.500  1.00  0.00    -0.328 A  
HETATM    8  C   UNL     1     -10.910   7.570  69.707  1.00  0.00    -0.225 A  
HETATM    9  C   UNL     1     -10.903   6.203  67.833  1.00  0.00    -0.319 A  
HETATM   10  C   UNL     1     -10.639   8.681  68.895  1.00  0.00    -0.166 A  
HETATM   11  N   UNL     1     -11.024   6.333  69.169  1.00  0.00    -0.343 NA 
HETATM   12  C   UNL     1     -10.663   7.257  66.972  1.00  0.00    -0.406 A  
BRANCH   8  13
HETATM   13  C   UNL     1     -11.032   7.683  71.233  1.00  0.00    -0.260 C  
HETATM   14  F   UNL     1      -9.712   6.381  72.761  1.00  0.00    -0.157 F  
HETATM   15  C   UNL     1     -11.575   9.075  71.647  1.00  0.00    -0.426 C  
HETATM   16  C   UNL     1     -12.070   6.648  71.724  1.00  0.00    -0.400 C  
HETATM   17  F   UNL     1      -9.306   8.512  72.706  1.00  0.00    -0.309 F  
HETATM   18  F   UNL     1      -8.651   7.238  71.078  1.00  0.00    -0.123 F  
HETATM   19  C   UNL     1      -9.673   7.459  71.937  1.00  0.00    -0.155 C  
ENDBRANCH   8  13
ENDBRANCH   3   7
BRANCH   6  20
HETATM   20  N   UNL     1     -10.436  13.219  65.402  1.00  0.00    -0.290 N  
HETATM   21  H   UNL     1      -9.811  13.763  64.807  1.00  0.00     0.000 HD 
BRANCH  20  22
HETATM   22  C   UNL     1     -11.513  13.854  65.967  1.00  0.00    -0.340 C  
HETATM   23  O   UNL     1     -12.680  13.753  65.598  1.00  0.00    -0.509 OA 
BRANCH  22  24
HETATM   24  N   UNL     1     -11.189  14.672  67.042  1.00  0.00    -0.334 N  
HETATM   25  C   UNL     1     -11.706  14.420  68.375  1.00  0.00    -0.332 C  
HETATM   26  C   UNL     1     -11.857  15.808  68.969  1.00  0.00    -0.367 C  
HETATM   27  C   UNL     1     -10.721  16.612  68.344  1.00  0.00    -0.353 C  
HETATM   28  C   UNL     1     -10.422  15.922  67.011  1.00  0.00    -0.306 C  
BRANCH  28  29
HETATM   29  C   UNL     1      -8.915  15.641  66.874  1.00  0.00    -0.241 C  
HETATM   30  N   UNL     1      -8.187  16.550  66.158  1.00  0.00    -0.318 N  
HETATM   31  O   UNL     1      -8.402  14.598  67.270  1.00  0.00    -0.188 OA 
HETATM   32  H1  UNL     1      -7.189  16.363  66.068  1.00  0.00     0.000 HD 
HETATM   33  H2  UNL     1      -8.621  17.372  65.738  1.00  0.00     0.000 HD 
ENDBRANCH  28  29
ENDBRANCH  22  24
ENDBRANCH  20  22
ENDBRANCH   6  20
TORSDOF 6
ENDMDL
MODEL       84
REMARK 921   NORMALIZED FREE ENERGY PREDICTED BY IDOCK:   -6.20 KCAL/MOL
REMARK 922        TOTAL FREE ENERGY PREDICTED BY IDOCK:   -9.47 KCAL/MOL
REMARK 923 INTER-LIGAND FREE ENERGY PREDICTED BY IDOCK:   -8.30 KCAL/MOL
REMARK 924 INTRA-LIGAND FREE ENERGY PREDICTED BY IDOCK:   -1.17 KCAL/MOL
REMARK 927      BINDING AFFINITY PREDICTED BY RF-SCORE:    0.00 PKD
ROOT
HETATM    1  C   UNL     1     -11.781  14.333  64.814  1.00  0.00    -0.420 C  
HETATM    2  C   UNL     1     -10.633  13.720  65.534  1.00  0.00    -0.307 A  
HETATM    3  C   UNL     1      -9.938  14.178  66.656  1.00  0.00    -0.277 A  
HETATM    4  S   UNL     1      -8.641  13.072  66.971  1.00  0.00    -0.116 SA 
HETATM    5  N   UNL     1     -10.198  12.502  65.023  1.00  0.00    -0.289 NA 
HETATM    6  C   UNL     1      -9.179  12.068  65.707  1.00  0.00    -0.060 A  
ENDROOT
BRANCH   3   7
HETATM    7  C   UNL     1     -10.104  15.374  67.509  1.00  0.00    -0.233 A  
HETATM    8  C   UNL     1      -9.939  17.781  67.889  1.00  0.00    -0.322 A  
HETATM    9  C   UNL     1     -10.692  16.395  69.589  1.00  0.00    -0.337 A  
HETATM   10  C   UNL     1      -9.780  16.666  67.052  1.00  0.00    -0.253 A  
HETATM   11  N   UNL     1     -10.380  17.634  69.160  1.00  0.00    -0.305 NA 
HETATM   12  C   UNL     1     -10.586  15.257  68.812  1.00  0.00    -0.240 A  
BRANCH   8  13
HETATM   13  C   UNL     1      -9.572  19.201  67.436  1.00  0.00    -0.373 C  
HETATM   14  F   UNL     1      -7.479  20.255  67.968  1.00  0.00    -0.326 F  
HETATM   15  C   UNL     1     -10.352  19.596  66.155  1.00  0.00    -0.627 C  
HETATM   16  C   UNL     1     -10.006  20.198  68.534  1.00  0.00    -0.373 C  
HETATM   17  F   UNL     1      -7.804  19.749  65.883  1.00  0.00    -0.310 F  
HETATM   18  F   UNL     1      -7.368  18.190  67.325  1.00  0.00    -0.196 F  
HETATM   19  C   UNL     1      -8.058  19.340  67.149  1.00  0.00    -0.266 C  
ENDBRANCH   8  13
ENDBRANCH   3   7
BRANCH   6  20
HETATM   20  N   UNL     1      -8.456  10.915  65.577  1.00  0.00    -0.283 N  
HETATM   21  H   UNL     1      -7.486  10.916  65.892  1.00  0.00     0.000 HD 
BRANCH  20  22
HETATM   22  C   UNL     1      -8.966   9.758  65.047  1.00  0.00    -0.207 C  
HETATM   23  O   UNL     1      -9.122   9.524  63.852  1.00  0.00    -0.230 OA 
BRANCH  22  24
HETATM   24  N   UNL     1      -9.322   8.808  65.996  1.00  0.00    -0.226 N  
HETATM   25  C   UNL     1      -8.433   7.717  66.355  1.00  0.00    -0.137 C  
HETATM   26  C   UNL     1      -9.378   6.573  66.673  1.00  0.00    -0.184 C  
HETATM   27  C   UNL     1     -10.608   7.254  67.267  1.00  0.00    -0.395 C  
HETATM   28  C   UNL     1     -10.616   8.665  66.673  1.00  0.00    -0.060 C  
BRANCH  28  29
HETATM   29  C   UNL     1     -10.774   9.718  67.784  1.00  0.00    -0.272 C  
HETATM   30  N   UNL     1     -10.170   9.439  68.979  1.00  0.00    -0.198 N  
HETATM   31  O   UNL     1     -11.503  10.699  67.664  1.00  0.00    -0.474 OA 
HETATM   32  H1  UNL     1     -10.275  10.137  69.715  1.00  0.00     0.000 HD 
HETATM   33  H2  UNL     1      -9.643   8.579  69.125  1.00  0.00     0.000 HD 
ENDBRANCH  28  29
ENDBRANCH  22  24
ENDBRANCH  20  22
ENDBRANCH   6  20
TORSDOF 6
ENDMDL
MODEL       85
REMARK 921   NORMALIZED FREE ENERGY PREDICTED BY IDOCK:   -6.20 KCAL/MOL
REMARK 922        TOTAL FREE ENERGY PREDICTED BY IDOCK:   -9.47 KCAL/MOL
REMARK 923 INTER-LIGAND FREE ENERGY PREDICTED BY IDOCK:   -8.25 KCAL/MOL
REMARK 924 INTRA-LIGAND FREE ENERGY PREDICTED BY IDOCK:   -1.22 KCAL/MOL
REMARK 927      BINDING AFFINITY PREDICTED BY RF-SCORE:    0.00 PKD
ROOT
HETATM    1  C   UNL     1      -6.697   8.822  68.151  1.00  0.00    -0.065 C  
HETATM    2  C   UNL     1      -7.807   9.764  67.850  1.00  0.00    -0.090 A  
HETATM    3  C   UNL     1      -9.184   9.601  68.019  1.00  0.00    -0.125 A  
HETATM    4  S   UNL     1      -9.970  11.017  67.402  1.00  0.00    -0.186 SA 
HETATM    5  N   UNL     1      -7.414  10.996  67.341  1.00  0.00    -0.101 NA 
HETATM    6  C   UNL     1      -8.458  11.731  67.091  1.00  0.00    -0.170 A  
ENDROOT
BRANCH   3   7
HETATM    7  C   UNL     1      -9.996   8.489  68.559  1.00  0.00    -0.201 A  
HETATM    8  C   UNL     1     -11.280   7.442  70.353  1.00  0.00    -0.262 A  
HETATM    9  C   UNL     1     -10.993   6.327  68.339  1.00  0.00    -0.325 A  
HETATM   10  C   UNL     1     -10.522   8.517  69.865  1.00  0.00    -0.219 A  
HETATM   11  N   UNL     1     -11.496   6.346  69.590  1.00  0.00    -0.420 NA 
HETATM   12  C   UNL     1     -10.261   7.361  67.785  1.00  0.00    -0.250 A  
BRANCH   8  13
HETATM   13  C   UNL     1     -11.848   7.425  71.779  1.00  0.00    -0.327 C  
HETATM   14  F   UNL     1     -12.998   9.290  72.764  1.00  0.00    -0.453 F  
HETATM   15  C   UNL     1     -12.156   5.975  72.238  1.00  0.00    -0.196 C  
HETATM   16  C   UNL     1     -10.772   7.967  72.746  1.00  0.00    -0.431 C  
HETATM   17  F   UNL     1     -14.196   7.530  72.340  1.00  0.00    -0.255 F  
HETATM   18  F   UNL     1     -13.535   8.812  70.720  1.00  0.00    -0.074 F  
HETATM   19  C   UNL     1     -13.145   8.260  71.892  1.00  0.00    -0.344 C  
ENDBRANCH   8  13
ENDBRANCH   3   7
BRANCH   6  20
HETATM   20  N   UNL     1      -8.544  13.009  66.612  1.00  0.00    -0.428 N  
HETATM   21  H   UNL     1      -8.260  13.183  65.648  1.00  0.00     0.000 HD 
BRANCH  20  22
HETATM   22  C   UNL     1      -8.992  14.069  67.358  1.00  0.00    -0.206 C  
HETATM   23  O   UNL     1      -9.068  14.102  68.583  1.00  0.00    -0.192 OA 
BRANCH  22  24
HETATM   24  N   UNL     1      -9.382  15.168  66.605  1.00  0.00    -0.249 N  
HETATM   25  C   UNL     1      -8.457  16.242  66.285  1.00  0.00    -0.334 C  
HETATM   26  C   UNL     1      -9.337  17.477  66.256  1.00  0.00    -0.231 C  
HETATM   27  C   UNL     1     -10.681  16.970  65.742  1.00  0.00    -0.146 C  
HETATM   28  C   UNL     1     -10.732  15.491  66.131  1.00  0.00    -0.313 C  
BRANCH  28  29
HETATM   29  C   UNL     1     -11.110  14.625  64.916  1.00  0.00    -0.401 C  
HETATM   30  N   UNL     1     -12.004  15.168  64.035  1.00  0.00    -0.913 N  
HETATM   31  O   UNL     1     -10.738  13.461  64.795  1.00  0.00    -0.343 OA 
HETATM   32  H1  UNL     1     -12.254  14.594  63.230  1.00  0.00     0.000 HD 
HETATM   33  H2  UNL     1     -12.398  16.098  64.176  1.00  0.00     0.000 HD 
ENDBRANCH  28  29
ENDBRANCH  22  24
ENDBRANCH  20  22
ENDBRANCH   6  20
TORSDOF 6
ENDMDL
MODEL       86
REMARK 921   NORMALIZED FREE ENERGY PREDICTED BY IDOCK:   -6.17 KCAL/MOL
REMARK 922        TOTAL FREE ENERGY PREDICTED BY IDOCK:   -9.43 KCAL/MOL
REMARK 923 INTER-LIGAND FREE ENERGY PREDICTED BY IDOCK:   -8.42 KCAL/MOL
REMARK 924 INTRA-LIGAND FREE ENERGY PREDICTED BY IDOCK:   -1.01 KCAL/MOL
REMARK 927      BINDING AFFINITY PREDICTED BY RF-SCORE:    0.00 PKD
ROOT
HETATM    1  C   UNL     1      -7.207   7.787  65.333  1.00  0.00    -0.068 C  
HETATM    2  C   UNL     1      -8.394   7.882  66.224  1.00  0.00    -0.126 A  
HETATM    3  C   UNL     1      -9.421   8.829  66.240  1.00  0.00    -0.234 A  
HETATM    4  S   UNL     1     -10.471   8.456  67.568  1.00  0.00    -0.232 SA 
HETATM    5  N   UNL     1      -8.507   6.868  67.168  1.00  0.00    -0.120 NA 
HETATM    6  C   UNL     1      -9.561   7.060  67.907  1.00  0.00    -0.123 A  
ENDROOT
BRANCH   3   7
HETATM    7  C   UNL     1      -9.698  10.012  65.397  1.00  0.00    -0.368 A  
HETATM    8  C   UNL     1     -10.520  12.293  65.102  1.00  0.00    -0.288 A  
HETATM    9  C   UNL     1      -9.722  11.108  63.273  1.00  0.00    -0.371 A  
HETATM   10  C   UNL     1     -10.259  11.189  65.928  1.00  0.00    -0.303 A  
HETATM   11  N   UNL     1     -10.264  12.237  63.774  1.00  0.00    -0.411 NA 
HETATM   12  C   UNL     1      -9.415   9.995  64.033  1.00  0.00    -0.299 A  
BRANCH   8  13
HETATM   13  C   UNL     1     -11.155  13.583  65.638  1.00  0.00    -0.299 C  
HETATM   14  F   UNL     1     -12.514  15.041  64.296  1.00  0.00    -0.507 F  
HETATM   15  C   UNL     1     -11.356  13.508  67.174  1.00  0.00    -0.346 C  
HETATM   16  C   UNL     1     -10.181  14.756  65.385  1.00  0.00    -0.415 C  
HETATM   17  F   UNL     1     -13.528  13.964  65.884  1.00  0.00    -0.333 F  
HETATM   18  F   UNL     1     -12.903  12.920  64.089  1.00  0.00    -0.359 F  
HETATM   19  C   UNL     1     -12.525  13.867  64.978  1.00  0.00    -0.419 C  
ENDBRANCH   8  13
ENDBRANCH   3   7
BRANCH   6  20
HETATM   20  N   UNL     1     -10.070   6.309  68.929  1.00  0.00    -0.158 N  
HETATM   21  H   UNL     1     -10.751   5.584  68.704  1.00  0.00     0.000 HD 
BRANCH  20  22
HETATM   22  C   UNL     1      -9.713   6.478  70.243  1.00  0.00    -0.168 C  
HETATM   23  O   UNL     1      -8.641   6.149  70.743  1.00  0.00    -0.132 OA 
BRANCH  22  24
HETATM   24  N   UNL     1     -10.693   7.077  71.024  1.00  0.00    -0.230 N  
HETATM   25  C   UNL     1     -12.070   6.612  71.010  1.00  0.00    -0.327 C  
HETATM   26  C   UNL     1     -12.877   7.877  71.235  1.00  0.00    -0.244 C  
HETATM   27  C   UNL     1     -11.995   8.732  72.141  1.00  0.00    -0.436 C  
HETATM   28  C   UNL     1     -10.561   8.280  71.853  1.00  0.00    -0.282 C  
BRANCH  28  29
HETATM   29  C   UNL     1      -9.821   7.964  73.166  1.00  0.00    -0.290 C  
HETATM   30  N   UNL     1      -8.498   8.306  73.216  1.00  0.00    -0.221 N  
HETATM   31  O   UNL     1     -10.341   7.328  74.078  1.00  0.00    -0.308 OA 
HETATM   32  H1  UNL     1      -8.008   8.097  74.086  1.00  0.00     0.000 HD 
HETATM   33  H2  UNL     1      -8.027   8.746  72.426  1.00  0.00     0.000 HD 
ENDBRANCH  28  29
ENDBRANCH  22  24
ENDBRANCH  20  22
ENDBRANCH   6  20
TORSDOF 6
ENDMDL
MODEL       87
REMARK 921   NORMALIZED FREE ENERGY PREDICTED BY IDOCK:   -6.15 KCAL/MOL
REMARK 922        TOTAL FREE ENERGY PREDICTED BY IDOCK:   -9.40 KCAL/MOL
REMARK 923 INTER-LIGAND FREE ENERGY PREDICTED BY IDOCK:   -8.37 KCAL/MOL
REMARK 924 INTRA-LIGAND FREE ENERGY PREDICTED BY IDOCK:   -1.04 KCAL/MOL
REMARK 927      BINDING AFFINITY PREDICTED BY RF-SCORE:    0.00 PKD
ROOT
HETATM    1  C   UNL     1      -7.547  11.877  66.845  1.00  0.00    -0.093 C  
HETATM    2  C   UNL     1      -8.950  12.345  67.005  1.00  0.00    -0.209 A  
HETATM    3  C   UNL     1     -10.095  11.624  67.354  1.00  0.00    -0.198 A  
HETATM    4  S   UNL     1     -11.447  12.706  67.290  1.00  0.00    -0.362 SA 
HETATM    5  N   UNL     1      -9.146  13.704  66.792  1.00  0.00    -0.241 NA 
HETATM    6  C   UNL     1     -10.405  14.002  66.933  1.00  0.00    -0.269 A  
ENDROOT
BRANCH   3   7
HETATM    7  C   UNL     1     -10.309  10.203  67.700  1.00  0.00    -0.265 A  
HETATM    8  C   UNL     1     -10.845   8.441  69.304  1.00  0.00    -0.054 A  
HETATM    9  C   UNL     1     -10.335   7.887  67.110  1.00  0.00    -0.328 A  
HETATM   10  C   UNL     1     -10.658   9.798  69.003  1.00  0.00    -0.238 A  
HETATM   11  N   UNL     1     -10.665   7.492  68.356  1.00  0.00    -0.123 NA 
HETATM   12  C   UNL     1     -10.162   9.207  66.738  1.00  0.00    -0.331 A  
BRANCH   8  13
HETATM   13  C   UNL     1     -11.201   7.959  70.718  1.00  0.00    -0.274 C  
HETATM   14  F   UNL     1      -9.633   6.858  72.168  1.00  0.00    -0.148 F  
HETATM   15  C   UNL     1     -12.380   8.778  71.305  1.00  0.00    -0.313 C  
HETATM   16  C   UNL     1     -11.687   6.495  70.633  1.00  0.00    -0.436 C  
HETATM   17  F   UNL     1     -10.268   8.847  72.763  1.00  0.00    -0.269 F  
HETATM   18  F   UNL     1      -8.890   8.594  71.107  1.00  0.00    -0.155 F  
HETATM   19  C   UNL     1      -9.997   8.073  71.683  1.00  0.00    -0.184 C  
ENDBRANCH   8  13
ENDBRANCH   3   7
BRANCH   6  20
HETATM   20  N   UNL     1     -11.042  15.208  66.841  1.00  0.00    -0.325 N  
HETATM   21  H   UNL     1     -11.946  15.313  67.303  1.00  0.00     0.000 HD 
BRANCH  20  22
HETATM   22  C   UNL     1     -10.531  16.284  66.161  1.00  0.00    -0.322 C  
HETATM   23  O   UNL     1     -10.468  16.397  64.940  1.00  0.00    -0.643 OA 
BRANCH  22  24
HETATM   24  N   UNL     1     -10.057  17.300  66.981  1.00  0.00    -0.294 N  
HETATM   25  C   UNL     1      -8.943  17.091  67.890  1.00  0.00    -0.228 C  
HETATM   26  C   UNL     1      -9.269  17.988  69.069  1.00  0.00    -0.057 C  
HETATM   27  C   UNL     1      -9.998  19.177  68.449  1.00  0.00    -0.493 C  
HETATM   28  C   UNL     1     -10.629  18.639  67.163  1.00  0.00    -0.417 C  
BRANCH  28  29
HETATM   29  C   UNL     1     -10.285  19.550  65.970  1.00  0.00    -0.478 C  
HETATM   30  N   UNL     1      -8.963  19.849  65.794  1.00  0.00    -0.317 N  
HETATM   31  O   UNL     1     -11.149  20.089  65.284  1.00  0.00    -0.301 OA 
HETATM   32  H1  UNL     1      -8.736  20.453  65.004  1.00  0.00     0.000 HD 
HETATM   33  H2  UNL     1      -8.243  19.488  66.419  1.00  0.00     0.000 HD 
ENDBRANCH  28  29
ENDBRANCH  22  24
ENDBRANCH  20  22
ENDBRANCH   6  20
TORSDOF 6
ENDMDL
MODEL       88
REMARK 921   NORMALIZED FREE ENERGY PREDICTED BY IDOCK:   -6.15 KCAL/MOL
REMARK 922        TOTAL FREE ENERGY PREDICTED BY IDOCK:   -9.40 KCAL/MOL
REMARK 923 INTER-LIGAND FREE ENERGY PREDICTED BY IDOCK:   -8.60 KCAL/MOL
REMARK 924 INTRA-LIGAND FREE ENERGY PREDICTED BY IDOCK:   -0.80 KCAL/MOL
REMARK 927      BINDING AFFINITY PREDICTED BY RF-SCORE:    0.00 PKD
ROOT
HETATM    1  C   UNL     1     -10.429  10.547  65.295  1.00  0.00    -0.232 C  
HETATM    2  C   UNL     1     -10.523  11.575  66.365  1.00  0.00    -0.250 A  
HETATM    3  C   UNL     1     -10.407  11.431  67.750  1.00  0.00    -0.182 A  
HETATM    4  S   UNL     1     -10.701  12.978  68.474  1.00  0.00    -0.253 SA 
HETATM    5  N   UNL     1     -10.743  12.873  65.919  1.00  0.00    -0.268 NA 
HETATM    6  C   UNL     1     -10.833  13.685  66.933  1.00  0.00    -0.283 A  
ENDROOT
BRANCH   3   7
HETATM    7  C   UNL     1     -10.135  10.260  68.610  1.00  0.00    -0.187 A  
HETATM    8  C   UNL     1     -10.764   8.712  70.391  1.00  0.00    -0.224 A  
HETATM    9  C   UNL     1      -8.711   8.482  69.335  1.00  0.00    -0.136 A  
HETATM   10  C   UNL     1     -11.053   9.821  69.583  1.00  0.00    -0.251 A  
HETATM   11  N   UNL     1      -9.584   8.060  70.272  1.00  0.00    -0.171 NA 
HETATM   12  C   UNL     1      -8.943   9.549  68.488  1.00  0.00    -0.128 A  
BRANCH   8  13
HETATM   13  C   UNL     1     -11.728   8.220  71.480  1.00  0.00    -0.337 C  
HETATM   14  F   UNL     1     -13.831   7.162  71.000  1.00  0.00    -0.438 F  
HETATM   15  C   UNL     1     -10.968   7.908  72.796  1.00  0.00    -0.456 C  
HETATM   16  C   UNL     1     -12.721   9.357  71.811  1.00  0.00    -0.476 C  
HETATM   17  F   UNL     1     -12.298   5.908  71.889  1.00  0.00    -0.296 F  
HETATM   18  F   UNL     1     -12.142   6.508  69.810  1.00  0.00    -0.430 F  
HETATM   19  C   UNL     1     -12.490   6.948  71.041  1.00  0.00    -0.313 C  
ENDBRANCH   8  13
ENDBRANCH   3   7
BRANCH   6  20
HETATM   20  N   UNL     1     -11.018  15.039  66.964  1.00  0.00    -0.313 N  
HETATM   21  H   UNL     1     -11.524  15.439  67.754  1.00  0.00     0.000 HD 
BRANCH  20  22
HETATM   22  C   UNL     1     -10.558  15.889  65.990  1.00  0.00    -0.323 C  
HETATM   23  O   UNL     1     -10.684  15.726  64.780  1.00  0.00    -0.500 OA 
BRANCH  22  24
HETATM   24  N   UNL     1      -9.900  17.009  66.480  1.00  0.00    -0.280 N  
HETATM   25  C   UNL     1     -10.511  17.885  67.465  1.00  0.00    -0.390 C  
HETATM   26  C   UNL     1      -9.966  19.256  67.113  1.00  0.00    -0.452 C  
HETATM   27  C   UNL     1      -8.563  18.980  66.582  1.00  0.00    -0.319 C  
HETATM   28  C   UNL     1      -8.611  17.551  66.035  1.00  0.00    -0.045 C  
BRANCH  28  29
HETATM   29  C   UNL     1      -7.443  16.719  66.595  1.00  0.00    -0.273 C  
HETATM   30  N   UNL     1      -7.740  15.864  67.620  1.00  0.00    -0.140 N  
HETATM   31  O   UNL     1      -6.281  16.893  66.239  1.00  0.00    -0.257 OA 
HETATM   32  H1  UNL     1      -6.965  15.313  67.991  1.00  0.00     0.000 HD 
HETATM   33  H2  UNL     1      -8.685  15.782  67.994  1.00  0.00     0.000 HD 
ENDBRANCH  28  29
ENDBRANCH  22  24
ENDBRANCH  20  22
ENDBRANCH   6  20
TORSDOF 6
ENDMDL
MODEL       89
REMARK 921   NORMALIZED FREE ENERGY PREDICTED BY IDOCK:   -6.14 KCAL/MOL
REMARK 922        TOTAL FREE ENERGY PREDICTED BY IDOCK:   -9.39 KCAL/MOL
REMARK 923 INTER-LIGAND FREE ENERGY PREDICTED BY IDOCK:   -8.44 KCAL/MOL
REMARK 924 INTRA-LIGAND FREE ENERGY PREDICTED BY IDOCK:   -0.96 KCAL/MOL
REMARK 927      BINDING AFFINITY PREDICTED BY RF-SCORE:    0.00 PKD
ROOT
HETATM    1  C   UNL     1     -12.431  13.603  71.411  1.00  0.00    -0.374 C  
HETATM    2  C   UNL     1     -12.154  12.813  70.181  1.00  0.00    -0.298 A  
HETATM    3  C   UNL     1     -12.031  11.430  70.020  1.00  0.00    -0.363 A  
HETATM    4  S   UNL     1     -11.616  11.120  68.366  1.00  0.00    -0.286 SA 
HETATM    5  N   UNL     1     -12.013  13.561  69.019  1.00  0.00    -0.341 NA 
HETATM    6  C   UNL     1     -11.750  12.779  68.012  1.00  0.00    -0.356 A  
ENDROOT
BRANCH   3   7
HETATM    7  C   UNL     1     -12.153  10.303  70.969  1.00  0.00    -0.487 A  
HETATM    8  C   UNL     1     -11.211   8.394  72.166  1.00  0.00    -0.361 A  
HETATM    9  C   UNL     1     -13.447   8.944  72.449  1.00  0.00    -0.450 A  
HETATM   10  C   UNL     1     -11.064   9.462  71.269  1.00  0.00    -0.446 A  
HETATM   11  N   UNL     1     -12.410   8.133  72.738  1.00  0.00    -0.177 NA 
HETATM   12  C   UNL     1     -13.366  10.029  71.596  1.00  0.00    -0.468 A  
BRANCH   8  13
HETATM   13  C   UNL     1     -10.055   7.440  72.499  1.00  0.00    -0.237 C  
HETATM   14  F   UNL     1     -10.119   5.082  72.046  1.00  0.00    -0.211 F  
HETATM   15  C   UNL     1      -8.704   8.199  72.546  1.00  0.00    -0.266 C  
HETATM   16  C   UNL     1     -10.280   6.866  73.916  1.00  0.00    -0.401 C  
HETATM   17  F   UNL     1      -8.721   6.254  70.870  1.00  0.00    -0.130 F  
HETATM   18  F   UNL     1     -10.849   6.374  70.468  1.00  0.00    -0.256 F  
HETATM   19  C   UNL     1      -9.939   6.296  71.465  1.00  0.00    -0.184 C  
ENDBRANCH   8  13
ENDBRANCH   3   7
BRANCH   6  20
HETATM   20  N   UNL     1     -11.562  13.074  66.691  1.00  0.00    -0.340 N  
HETATM   21  H   UNL     1     -12.377  13.093  66.079  1.00  0.00     0.000 HD 
BRANCH  20  22
HETATM   22  C   UNL     1     -10.333  13.346  66.144  1.00  0.00    -0.295 C  
HETATM   23  O   UNL     1     -10.012  14.392  65.586  1.00  0.00    -0.332 OA 
BRANCH  22  24
HETATM   24  N   UNL     1      -9.418  12.307  66.260  1.00  0.00    -0.237 N  
HETATM   25  C   UNL     1      -9.361  11.228  65.289  1.00  0.00    -0.203 C  
HETATM   26  C   UNL     1      -8.948  10.024  66.114  1.00  0.00    -0.174 C  
HETATM   27  C   UNL     1      -8.042  10.602  67.198  1.00  0.00    -0.121 C  
HETATM   28  C   UNL     1      -8.492  12.055  67.369  1.00  0.00    -0.170 C  
BRANCH  28  29
HETATM   29  C   UNL     1      -7.283  13.006  67.302  1.00  0.00    -0.049 C  
HETATM   30  N   UNL     1      -6.065  12.428  67.076  1.00  0.00    -0.256 N  
HETATM   31  O   UNL     1      -7.372  14.203  67.560  1.00  0.00    -0.170 OA 
HETATM   32  H1  UNL     1      -5.264  13.058  67.032  1.00  0.00     0.000 HD 
HETATM   33  H2  UNL     1      -5.963  11.420  66.959  1.00  0.00     0.000 HD 
ENDBRANCH  28  29
ENDBRANCH  22  24
ENDBRANCH  20  22
ENDBRANCH   6  20
TORSDOF 6
ENDMDL
MODEL       90
REMARK 921   NORMALIZED FREE ENERGY PREDICTED BY IDOCK:   -6.14 KCAL/MOL
REMARK 922        TOTAL FREE ENERGY PREDICTED BY IDOCK:   -9.39 KCAL/MOL
REMARK 923 INTER-LIGAND FREE ENERGY PREDICTED BY IDOCK:   -8.32 KCAL/MOL
REMARK 924 INTRA-LIGAND FREE ENERGY PREDICTED BY IDOCK:   -1.07 KCAL/MOL
REMARK 927      BINDING AFFINITY PREDICTED BY RF-SCORE:    0.00 PKD
ROOT
HETATM    1  C   UNL     1      -7.708  12.433  67.505  1.00  0.00    -0.161 C  
HETATM    2  C   UNL     1      -9.060  13.023  67.695  1.00  0.00    -0.198 A  
HETATM    3  C   UNL     1     -10.196  12.473  68.295  1.00  0.00    -0.234 A  
HETATM    4  S   UNL     1     -11.492  13.611  68.132  1.00  0.00    -0.335 SA 
HETATM    5  N   UNL     1      -9.211  14.321  67.219  1.00  0.00    -0.205 NA 
HETATM    6  C   UNL     1     -10.431  14.730  67.412  1.00  0.00    -0.256 A  
ENDROOT
BRANCH   3   7
HETATM    7  C   UNL     1     -10.442  11.171  68.951  1.00  0.00    -0.233 A  
HETATM    8  C   UNL     1     -10.071   8.766  69.157  1.00  0.00    -0.198 A  
HETATM    9  C   UNL     1     -11.555   9.830  70.587  1.00  0.00    -0.313 A  
HETATM   10  C   UNL     1      -9.810   9.989  68.521  1.00  0.00    -0.168 A  
HETATM   11  N   UNL     1     -10.957   8.693  70.177  1.00  0.00    -0.244 NA 
HETATM   12  C   UNL     1     -11.325  11.071  70.025  1.00  0.00    -0.358 A  
BRANCH   8  13
HETATM   13  C   UNL     1      -9.421   7.452  68.700  1.00  0.00    -0.139 C  
HETATM   14  F   UNL     1     -10.678   5.573  67.887  1.00  0.00    -0.256 F  
HETATM   15  C   UNL     1      -7.960   7.686  68.236  1.00  0.00    -0.123 C  
HETATM   16  C   UNL     1      -9.345   6.492  69.908  1.00  0.00    -0.155 C  
HETATM   17  F   UNL     1      -9.439   6.608  66.436  1.00  0.00    -0.177 F  
HETATM   18  F   UNL     1     -11.280   7.515  67.139  1.00  0.00    -0.345 F  
HETATM   19  C   UNL     1     -10.205   6.797  67.538  1.00  0.00    -0.190 C  
ENDBRANCH   8  13
ENDBRANCH   3   7
BRANCH   6  20
HETATM   20  N   UNL     1     -11.013  15.934  67.129  1.00  0.00    -0.267 N  
HETATM   21  H   UNL     1     -11.903  16.156  67.575  1.00  0.00     0.000 HD 
BRANCH  20  22
HETATM   22  C   UNL     1     -10.464  16.858  66.278  1.00  0.00    -0.262 C  
HETATM   23  O   UNL     1     -10.373  16.745  65.059  1.00  0.00    -0.631 OA 
BRANCH  22  24
HETATM   24  N   UNL     1      -9.984  17.998  66.911  1.00  0.00    -0.323 N  
HETATM   25  C   UNL     1     -10.463  18.402  68.222  1.00  0.00    -0.299 C  
HETATM   26  C   UNL     1     -10.404  19.917  68.174  1.00  0.00    -0.533 C  
HETATM   27  C   UNL     1      -9.205  20.220  67.279  1.00  0.00    -0.523 C  
HETATM   28  C   UNL     1      -9.065  19.001  66.364  1.00  0.00    -0.329 C  
BRANCH  28  29
HETATM   29  C   UNL     1      -7.615  18.483  66.374  1.00  0.00    -0.260 C  
HETATM   30  N   UNL     1      -6.719  19.195  67.120  1.00  0.00    -0.197 N  
HETATM   31  O   UNL     1      -7.242  17.559  65.656  1.00  0.00    -0.405 OA 
HETATM   32  H1  UNL     1      -5.758  18.851  67.126  1.00  0.00     0.000 HD 
HETATM   33  H2  UNL     1      -6.996  20.025  67.643  1.00  0.00     0.000 HD 
ENDBRANCH  28  29
ENDBRANCH  22  24
ENDBRANCH  20  22
ENDBRANCH   6  20
TORSDOF 6
ENDMDL
MODEL       91
REMARK 921   NORMALIZED FREE ENERGY PREDICTED BY IDOCK:   -6.14 KCAL/MOL
REMARK 922        TOTAL FREE ENERGY PREDICTED BY IDOCK:   -9.39 KCAL/MOL
REMARK 923 INTER-LIGAND FREE ENERGY PREDICTED BY IDOCK:   -8.04 KCAL/MOL
REMARK 924 INTRA-LIGAND FREE ENERGY PREDICTED BY IDOCK:   -1.35 KCAL/MOL
REMARK 927      BINDING AFFINITY PREDICTED BY RF-SCORE:    0.00 PKD
ROOT
HETATM    1  C   UNL     1     -12.789  12.341  71.425  1.00  0.00    -0.373 C  
HETATM    2  C   UNL     1     -12.081  11.751  70.258  1.00  0.00    -0.342 A  
HETATM    3  C   UNL     1     -11.723  10.423  70.012  1.00  0.00    -0.286 A  
HETATM    4  S   UNL     1     -10.838  10.375  68.523  1.00  0.00    -0.253 SA 
HETATM    5  N   UNL     1     -11.740  12.653  69.257  1.00  0.00    -0.310 NA 
HETATM    6  C   UNL     1     -11.106  12.040  68.300  1.00  0.00    -0.243 A  
ENDROOT
BRANCH   3   7
HETATM    7  C   UNL     1     -11.935   9.177  70.779  1.00  0.00    -0.243 A  
HETATM    8  C   UNL     1     -11.117   7.097  71.762  1.00  0.00    -0.236 A  
HETATM    9  C   UNL     1     -13.360   7.655  71.947  1.00  0.00    -0.245 A  
HETATM   10  C   UNL     1     -10.884   8.277  71.040  1.00  0.00    -0.269 A  
HETATM   11  N   UNL     1     -12.360   6.787  72.197  1.00  0.00    -0.248 NA 
HETATM   12  C   UNL     1     -13.198   8.847  71.266  1.00  0.00    -0.231 A  
BRANCH   8  13
HETATM   13  C   UNL     1     -10.003   6.078  72.044  1.00  0.00    -0.195 C  
HETATM   14  F   UNL     1     -10.157   3.757  71.445  1.00  0.00    -0.249 F  
HETATM   15  C   UNL     1      -8.623   6.778  72.149  1.00  0.00    -0.117 C  
HETATM   16  C   UNL     1     -10.266   5.428  73.421  1.00  0.00    -0.219 C  
HETATM   17  F   UNL     1      -8.701   4.942  70.356  1.00  0.00    -0.093 F  
HETATM   18  F   UNL     1     -10.818   5.173  69.945  1.00  0.00    -0.357 F  
HETATM   19  C   UNL     1      -9.922   4.996  70.942  1.00  0.00    -0.216 C  
ENDBRANCH   8  13
ENDBRANCH   3   7
BRANCH   6  20
HETATM   20  N   UNL     1     -10.612  12.522  67.119  1.00  0.00    -0.227 N  
HETATM   21  H   UNL     1     -10.907  12.072  66.253  1.00  0.00     0.000 HD 
BRANCH  20  22
HETATM   22  C   UNL     1      -9.740  13.578  67.038  1.00  0.00    -0.251 C  
HETATM   23  O   UNL     1      -8.552  13.551  67.345  1.00  0.00    -0.186 OA 
BRANCH  22  24
HETATM   24  N   UNL     1     -10.313  14.750  66.563  1.00  0.00    -0.279 N  
HETATM   25  C   UNL     1     -11.219  14.753  65.428  1.00  0.00    -0.347 C  
HETATM   26  C   UNL     1     -10.945  16.083  64.752  1.00  0.00    -0.373 C  
HETATM   27  C   UNL     1     -10.589  17.023  65.900  1.00  0.00    -0.221 C  
HETATM   28  C   UNL     1     -10.033  16.121  67.005  1.00  0.00    -0.258 C  
BRANCH  28  29
HETATM   29  C   UNL     1     -10.729  16.419  68.346  1.00  0.00    -0.327 C  
HETATM   30  N   UNL     1     -11.850  15.689  68.626  1.00  0.00    -0.505 N  
HETATM   31  O   UNL     1     -10.382  17.344  69.075  1.00  0.00    -0.343 OA 
HETATM   32  H1  UNL     1     -12.310  15.887  69.514  1.00  0.00     0.000 HD 
HETATM   33  H2  UNL     1     -12.207  14.985  67.981  1.00  0.00     0.000 HD 
ENDBRANCH  28  29
ENDBRANCH  22  24
ENDBRANCH  20  22
ENDBRANCH   6  20
TORSDOF 6
ENDMDL
MODEL       92
REMARK 921   NORMALIZED FREE ENERGY PREDICTED BY IDOCK:   -6.14 KCAL/MOL
REMARK 922        TOTAL FREE ENERGY PREDICTED BY IDOCK:   -9.38 KCAL/MOL
REMARK 923 INTER-LIGAND FREE ENERGY PREDICTED BY IDOCK:   -8.39 KCAL/MOL
REMARK 924 INTRA-LIGAND FREE ENERGY PREDICTED BY IDOCK:   -0.99 KCAL/MOL
REMARK 927      BINDING AFFINITY PREDICTED BY RF-SCORE:    0.00 PKD
ROOT
HETATM    1  C   UNL     1     -13.185  11.512  71.829  1.00  0.00    -0.456 C  
HETATM    2  C   UNL     1     -12.150  10.708  71.125  1.00  0.00    -0.341 A  
HETATM    3  C   UNL     1     -11.479  10.971  69.928  1.00  0.00    -0.320 A  
HETATM    4  S   UNL     1     -10.456   9.616  69.580  1.00  0.00    -0.245 SA 
HETATM    5  N   UNL     1     -11.786   9.528  71.763  1.00  0.00    -0.383 NA 
HETATM    6  C   UNL     1     -10.897   8.892  71.055  1.00  0.00    -0.259 A  
ENDROOT
BRANCH   3   7
HETATM    7  C   UNL     1     -11.536  12.108  68.985  1.00  0.00    -0.374 A  
HETATM    8  C   UNL     1     -11.312  13.050  66.743  1.00  0.00    -0.324 A  
HETATM    9  C   UNL     1     -11.868  14.429  68.523  1.00  0.00    -0.334 A  
HETATM   10  C   UNL     1     -11.259  11.951  67.613  1.00  0.00    -0.340 A  
HETATM   11  N   UNL     1     -11.600  14.287  67.210  1.00  0.00    -0.358 NA 
HETATM   12  C   UNL     1     -11.862  13.387  69.431  1.00  0.00    -0.390 A  
BRANCH   8  13
HETATM   13  C   UNL     1     -10.991  12.924  65.247  1.00  0.00    -0.310 C  
HETATM   14  F   UNL     1     -12.263  11.555  63.736  1.00  0.00    -0.457 F  
HETATM   15  C   UNL     1     -10.235  14.176  64.732  1.00  0.00    -0.311 C  
HETATM   16  C   UNL     1     -10.035  11.726  65.046  1.00  0.00    -0.287 C  
HETATM   17  F   UNL     1     -12.410  13.702  63.452  1.00  0.00    -0.548 F  
HETATM   18  F   UNL     1     -13.410  12.756  65.128  1.00  0.00    -0.330 F  
HETATM   19  C   UNL     1     -12.271  12.741  64.398  1.00  0.00    -0.428 C  
ENDBRANCH   8  13
ENDBRANCH   3   7
BRANCH   6  20
HETATM   20  N   UNL     1     -10.246   7.717  71.305  1.00  0.00    -0.188 N  
HETATM   21  H   UNL     1      -9.336   7.757  71.765  1.00  0.00     0.000 HD 
BRANCH  20  22
HETATM   22  C   UNL     1     -10.750   6.486  70.971  1.00  0.00    -0.243 C  
HETATM   23  O   UNL     1     -11.928   6.148  71.050  1.00  0.00    -0.172 OA 
BRANCH  22  24
HETATM   24  N   UNL     1      -9.796   5.587  70.513  1.00  0.00    -0.182 N  
HETATM   25  C   UNL     1     -10.010   4.786  69.321  1.00  0.00    -0.184 C  
HETATM   26  C   UNL     1      -9.280   3.491  69.622  1.00  0.00    -0.223 C  
HETATM   27  C   UNL     1      -8.095   3.917  70.483  1.00  0.00    -0.059 C  
HETATM   28  C   UNL     1      -8.537   5.213  71.168  1.00  0.00    -0.122 C  
BRANCH  28  29
HETATM   29  C   UNL     1      -7.475   6.311  70.986  1.00  0.00    -0.085 C  
HETATM   30  N   UNL     1      -6.597   6.488  72.020  1.00  0.00    -0.057 N  
HETATM   31  O   UNL     1      -7.479   7.079  70.028  1.00  0.00    -0.085 OA 
HETATM   32  H1  UNL     1      -5.893   7.216  71.899  1.00  0.00     0.000 HD 
HETATM   33  H2  UNL     1      -6.645   5.921  72.866  1.00  0.00     0.000 HD 
ENDBRANCH  28  29
ENDBRANCH  22  24
ENDBRANCH  20  22
ENDBRANCH   6  20
TORSDOF 6
ENDMDL
MODEL       93
REMARK 921   NORMALIZED FREE ENERGY PREDICTED BY IDOCK:   -6.12 KCAL/MOL
REMARK 922        TOTAL FREE ENERGY PREDICTED BY IDOCK:   -9.37 KCAL/MOL
REMARK 923 INTER-LIGAND FREE ENERGY PREDICTED BY IDOCK:   -8.08 KCAL/MOL
REMARK 924 INTRA-LIGAND FREE ENERGY PREDICTED BY IDOCK:   -1.28 KCAL/MOL
REMARK 927      BINDING AFFINITY PREDICTED BY RF-SCORE:    0.00 PKD
ROOT
HETATM    1  C   UNL     1      -6.430   8.682  65.522  1.00  0.00    -0.059 C  
HETATM    2  C   UNL     1      -7.740   8.396  66.165  1.00  0.00    -0.097 A  
HETATM    3  C   UNL     1      -8.961   9.061  66.032  1.00  0.00    -0.185 A  
HETATM    4  S   UNL     1     -10.098   8.311  67.104  1.00  0.00    -0.292 SA 
HETATM    5  N   UNL     1      -7.754   7.292  67.010  1.00  0.00    -0.109 NA 
HETATM    6  C   UNL     1      -8.935   7.147  67.537  1.00  0.00    -0.121 A  
ENDROOT
BRANCH   3   7
HETATM    7  C   UNL     1      -9.378  10.223  65.220  1.00  0.00    -0.267 A  
HETATM    8  C   UNL     1     -10.322  12.465  65.006  1.00  0.00    -0.293 A  
HETATM    9  C   UNL     1      -9.682  11.298  63.106  1.00  0.00    -0.386 A  
HETATM   10  C   UNL     1      -9.927  11.382  65.803  1.00  0.00    -0.271 A  
HETATM   11  N   UNL     1     -10.212  12.408  63.658  1.00  0.00    -0.408 NA 
HETATM   12  C   UNL     1      -9.246  10.206  63.833  1.00  0.00    -0.322 A  
BRANCH   8  13
HETATM   13  C   UNL     1     -10.949  13.734  65.603  1.00  0.00    -0.288 C  
HETATM   14  F   UNL     1     -12.856  14.838  64.647  1.00  0.00    -0.394 F  
HETATM   15  C   UNL     1     -10.655  13.837  67.122  1.00  0.00    -0.277 C  
HETATM   16  C   UNL     1     -10.287  14.967  64.947  1.00  0.00    -0.347 C  
HETATM   17  F   UNL     1     -13.161  13.869  66.565  1.00  0.00    -0.215 F  
HETATM   18  F   UNL     1     -12.967  12.678  64.763  1.00  0.00    -0.535 F  
HETATM   19  C   UNL     1     -12.481  13.770  65.396  1.00  0.00    -0.500 C  
ENDBRANCH   8  13
ENDBRANCH   3   7
BRANCH   6  20
HETATM   20  N   UNL     1      -9.407   6.193  68.395  1.00  0.00    -0.117 N  
HETATM   21  H   UNL     1      -9.065   5.238  68.292  1.00  0.00     0.000 HD 
BRANCH  20  22
HETATM   22  C   UNL     1     -10.318   6.453  69.388  1.00  0.00    -0.209 C  
HETATM   23  O   UNL     1     -11.504   6.137  69.373  1.00  0.00    -0.423 OA 
BRANCH  22  24
HETATM   24  N   UNL     1      -9.791   7.137  70.476  1.00  0.00    -0.180 N  
HETATM   25  C   UNL     1      -8.472   6.834  71.003  1.00  0.00    -0.132 C  
HETATM   26  C   UNL     1      -8.611   7.095  72.491  1.00  0.00    -0.131 C  
HETATM   27  C   UNL     1      -9.614   8.242  72.581  1.00  0.00    -0.352 C  
HETATM   28  C   UNL     1     -10.466   8.134  71.314  1.00  0.00    -0.209 C  
BRANCH  28  29
HETATM   29  C   UNL     1     -10.543   9.495  70.597  1.00  0.00    -0.308 C  
HETATM   30  N   UNL     1      -9.354  10.048  70.212  1.00  0.00    -0.376 N  
HETATM   31  O   UNL     1     -11.593  10.120  70.483  1.00  0.00    -0.280 OA 
HETATM   32  H1  UNL     1      -9.405  10.949  69.737  1.00  0.00     0.000 HD 
HETATM   33  H2  UNL     1      -8.463   9.584  70.390  1.00  0.00     0.000 HD 
ENDBRANCH  28  29
ENDBRANCH  22  24
ENDBRANCH  20  22
ENDBRANCH   6  20
TORSDOF 6
ENDMDL
MODEL       94
REMARK 921   NORMALIZED FREE ENERGY PREDICTED BY IDOCK:   -6.12 KCAL/MOL
REMARK 922        TOTAL FREE ENERGY PREDICTED BY IDOCK:   -9.35 KCAL/MOL
REMARK 923 INTER-LIGAND FREE ENERGY PREDICTED BY IDOCK:   -8.49 KCAL/MOL
REMARK 924 INTRA-LIGAND FREE ENERGY PREDICTED BY IDOCK:   -0.87 KCAL/MOL
REMARK 927      BINDING AFFINITY PREDICTED BY RF-SCORE:    0.00 PKD
ROOT
HETATM    1  C   UNL     1      -9.668   8.598  66.638  1.00  0.00    -0.315 C  
HETATM    2  C   UNL     1      -9.592   8.836  68.104  1.00  0.00    -0.146 A  
HETATM    3  C   UNL     1     -10.037   9.928  68.853  1.00  0.00    -0.184 A  
HETATM    4  S   UNL     1      -9.583   9.663  70.505  1.00  0.00    -0.112 SA 
HETATM    5  N   UNL     1      -9.007   7.811  68.838  1.00  0.00    -0.142 NA 
HETATM    6  C   UNL     1      -8.968   8.130  70.100  1.00  0.00    -0.146 A  
ENDROOT
BRANCH   3   7
HETATM    7  C   UNL     1     -10.736  11.175  68.476  1.00  0.00    -0.235 A  
HETATM    8  C   UNL     1     -11.573  12.745  66.803  1.00  0.00    -0.370 A  
HETATM    9  C   UNL     1     -11.854  13.205  69.059  1.00  0.00    -0.313 A  
HETATM   10  C   UNL     1     -10.914  11.551  67.131  1.00  0.00    -0.338 A  
HETATM   11  N   UNL     1     -12.025  13.573  67.774  1.00  0.00    -0.354 NA 
HETATM   12  C   UNL     1     -11.240  12.031  69.453  1.00  0.00    -0.263 A  
BRANCH   8  13
HETATM   13  C   UNL     1     -11.763  13.201  65.350  1.00  0.00    -0.383 C  
HETATM   14  F   UNL     1     -10.868  15.256  64.485  1.00  0.00    -0.383 F  
HETATM   15  C   UNL     1     -12.006  11.989  64.413  1.00  0.00    -0.385 C  
HETATM   16  C   UNL     1     -13.035  14.075  65.268  1.00  0.00    -0.315 C  
HETATM   17  F   UNL     1      -9.992  13.423  63.721  1.00  0.00    -0.145 F  
HETATM   18  F   UNL     1      -9.537  14.089  65.734  1.00  0.00    -0.288 F  
HETATM   19  C   UNL     1     -10.536  13.985  64.828  1.00  0.00    -0.421 C  
ENDBRANCH   8  13
ENDBRANCH   3   7
BRANCH   6  20
HETATM   20  N   UNL     1      -8.508   7.422  71.175  1.00  0.00    -0.117 N  
HETATM   21  H   UNL     1      -7.826   6.682  71.010  1.00  0.00     0.000 HD 
BRANCH  20  22
HETATM   22  C   UNL     1      -8.916   7.655  72.464  1.00  0.00    -0.142 C  
HETATM   23  O   UNL     1      -8.447   8.499  73.223  1.00  0.00    -0.372 OA 
BRANCH  22  24
HETATM   24  N   UNL     1      -9.948   6.830  72.890  1.00  0.00    -0.168 N  
HETATM   25  C   UNL     1     -10.027   6.350  74.259  1.00  0.00    -0.328 C  
HETATM   26  C   UNL     1     -10.655   4.976  74.122  1.00  0.00    -0.338 C  
HETATM   27  C   UNL     1     -11.596   5.108  72.928  1.00  0.00    -0.282 C  
HETATM   28  C   UNL     1     -11.006   6.230  72.070  1.00  0.00    -0.256 C  
BRANCH  28  29
HETATM   29  C   UNL     1     -12.087   7.268  71.721  1.00  0.00    -0.319 C  
HETATM   30  N   UNL     1     -12.638   7.179  70.472  1.00  0.00    -0.602 N  
HETATM   31  O   UNL     1     -12.361   8.208  72.462  1.00  0.00    -0.323 OA 
HETATM   32  H1  UNL     1     -13.354   7.867  70.242  1.00  0.00     0.000 HD 
HETATM   33  H2  UNL     1     -12.348   6.461  69.808  1.00  0.00     0.000 HD 
ENDBRANCH  28  29
ENDBRANCH  22  24
ENDBRANCH  20  22
ENDBRANCH   6  20
TORSDOF 6
ENDMDL
MODEL       95
REMARK 921   NORMALIZED FREE ENERGY PREDICTED BY IDOCK:   -6.11 KCAL/MOL
REMARK 922        TOTAL FREE ENERGY PREDICTED BY IDOCK:   -9.35 KCAL/MOL
REMARK 923 INTER-LIGAND FREE ENERGY PREDICTED BY IDOCK:   -8.34 KCAL/MOL
REMARK 924 INTRA-LIGAND FREE ENERGY PREDICTED BY IDOCK:   -1.01 KCAL/MOL
REMARK 927      BINDING AFFINITY PREDICTED BY RF-SCORE:    0.00 PKD
ROOT
HETATM    1  C   UNL     1     -10.429   6.592  66.740  1.00  0.00    -0.298 C  
HETATM    2  C   UNL     1     -10.578   7.586  67.836  1.00  0.00    -0.185 A  
HETATM    3  C   UNL     1     -10.536   8.982  67.784  1.00  0.00    -0.214 A  
HETATM    4  S   UNL     1     -10.685   9.581  69.403  1.00  0.00    -0.209 SA 
HETATM    5  N   UNL     1     -10.810   7.046  69.095  1.00  0.00    -0.217 NA 
HETATM    6  C   UNL     1     -10.900   7.996  69.980  1.00  0.00    -0.235 A  
ENDROOT
BRANCH   3   7
HETATM    7  C   UNL     1     -10.362   9.931  66.664  1.00  0.00    -0.275 A  
HETATM    8  C   UNL     1     -10.693  12.121  65.636  1.00  0.00    -0.275 A  
HETATM    9  C   UNL     1      -9.583  10.454  64.466  1.00  0.00    -0.309 A  
HETATM   10  C   UNL     1     -10.865  11.246  66.718  1.00  0.00    -0.334 A  
HETATM   11  N   UNL     1     -10.066  11.711  64.508  1.00  0.00    -0.266 NA 
HETATM   12  C   UNL     1      -9.693   9.548  65.504  1.00  0.00    -0.344 A  
BRANCH   8  13
HETATM   13  C   UNL     1     -11.250  13.552  65.646  1.00  0.00    -0.304 C  
HETATM   14  F   UNL     1     -12.364  14.547  63.764  1.00  0.00    -0.486 F  
HETATM   15  C   UNL     1     -11.575  14.012  67.090  1.00  0.00    -0.397 C  
HETATM   16  C   UNL     1     -10.158  14.511  65.120  1.00  0.00    -0.361 C  
HETATM   17  F   UNL     1     -13.591  14.132  65.505  1.00  0.00    -0.386 F  
HETATM   18  F   UNL     1     -12.924  12.507  64.232  1.00  0.00    -0.466 F  
HETATM   19  C   UNL     1     -12.533  13.675  64.791  1.00  0.00    -0.350 C  
ENDBRANCH   8  13
ENDBRANCH   3   7
BRANCH   6  20
HETATM   20  N   UNL     1     -11.145   7.930  71.324  1.00  0.00    -0.246 N  
HETATM   21  H   UNL     1     -10.742   8.649  71.924  1.00  0.00     0.000 HD 
BRANCH  20  22
HETATM   22  C   UNL     1     -11.905   6.948  71.907  1.00  0.00    -0.315 C  
HETATM   23  O   UNL     1     -13.122   6.822  71.796  1.00  0.00    -0.336 OA 
BRANCH  22  24
HETATM   24  N   UNL     1     -11.178   6.051  72.679  1.00  0.00    -0.278 N  
HETATM   25  C   UNL     1     -10.965   4.678  72.258  1.00  0.00     0.059 C  
HETATM   26  C   UNL     1     -10.934   3.903  73.561  1.00  0.00    -0.343 C  
HETATM   27  C   UNL     1     -10.314   4.873  74.563  1.00  0.00    -0.324 C  
HETATM   28  C   UNL     1     -10.634   6.270  74.024  1.00  0.00    -0.172 C  
BRANCH  28  29
HETATM   29  C   UNL     1      -9.360   7.133  73.969  1.00  0.00    -0.252 C  
HETATM   30  N   UNL     1      -8.193   6.520  74.332  1.00  0.00    -0.125 N  
HETATM   31  O   UNL     1      -9.391   8.338  73.737  1.00  0.00    -0.098 OA 
HETATM   32  H1  UNL     1      -7.350   7.092  74.295  1.00  0.00     0.000 HD 
HETATM   33  H2  UNL     1      -8.169   5.543  74.624  1.00  0.00     0.000 HD 
ENDBRANCH  28  29
ENDBRANCH  22  24
ENDBRANCH  20  22
ENDBRANCH   6  20
TORSDOF 6
ENDMDL
MODEL       96
REMARK 921   NORMALIZED FREE ENERGY PREDICTED BY IDOCK:   -6.11 KCAL/MOL
REMARK 922        TOTAL FREE ENERGY PREDICTED BY IDOCK:   -9.34 KCAL/MOL
REMARK 923 INTER-LIGAND FREE ENERGY PREDICTED BY IDOCK:   -8.29 KCAL/MOL
REMARK 924 INTRA-LIGAND FREE ENERGY PREDICTED BY IDOCK:   -1.05 KCAL/MOL
REMARK 927      BINDING AFFINITY PREDICTED BY RF-SCORE:    0.00 PKD
ROOT
HETATM    1  C   UNL     1      -8.584  12.434  66.825  1.00  0.00    -0.129 C  
HETATM    2  C   UNL     1      -9.646  11.890  67.712  1.00  0.00    -0.190 A  
HETATM    3  C   UNL     1     -10.518  12.561  68.574  1.00  0.00    -0.231 A  
HETATM    4  S   UNL     1     -11.466  11.373  69.406  1.00  0.00    -0.339 SA 
HETATM    5  N   UNL     1      -9.805  10.510  67.664  1.00  0.00    -0.164 NA 
HETATM    6  C   UNL     1     -10.738  10.137  68.492  1.00  0.00    -0.230 A  
ENDROOT
BRANCH   3   7
HETATM    7  C   UNL     1     -10.706  13.995  68.880  1.00  0.00    -0.265 A  
HETATM    8  C   UNL     1     -10.418  16.360  68.344  1.00  0.00    -0.298 A  
HETATM    9  C   UNL     1     -11.481  15.744  70.312  1.00  0.00    -0.359 A  
HETATM   10  C   UNL     1     -10.233  15.007  68.023  1.00  0.00    -0.228 A  
HETATM   11  N   UNL     1     -11.028  16.719  69.498  1.00  0.00    -0.245 NA 
HETATM   12  C   UNL     1     -11.358  14.394  70.045  1.00  0.00    -0.253 A  
BRANCH   8  13
HETATM   13  C   UNL     1      -9.894  17.492  67.449  1.00  0.00    -0.297 C  
HETATM   14  F   UNL     1      -8.261  19.098  68.174  1.00  0.00    -0.302 F  
HETATM   15  C   UNL     1     -10.026  17.121  65.949  1.00  0.00    -0.214 C  
HETATM   16  C   UNL     1     -10.776  18.742  67.666  1.00  0.00    -0.449 C  
HETATM   17  F   UNL     1      -7.623  17.691  66.649  1.00  0.00    -0.202 F  
HETATM   18  F   UNL     1      -7.866  17.035  68.702  1.00  0.00    -0.211 F  
HETATM   19  C   UNL     1      -8.411  17.819  67.744  1.00  0.00    -0.236 C  
ENDBRANCH   8  13
ENDBRANCH   3   7
BRANCH   6  20
HETATM   20  N   UNL     1     -11.241   8.893  68.752  1.00  0.00    -0.341 N  
HETATM   21  H   UNL     1     -12.198   8.689  68.464  1.00  0.00     0.000 HD 
BRANCH  20  22
HETATM   22  C   UNL     1     -10.528   7.905  69.381  1.00  0.00    -0.220 C  
HETATM   23  O   UNL     1      -9.927   6.989  68.825  1.00  0.00    -0.153 OA 
BRANCH  22  24
HETATM   24  N   UNL     1     -10.525   8.001  70.767  1.00  0.00    -0.204 N  
HETATM   25  C   UNL     1      -9.381   8.524  71.494  1.00  0.00    -0.222 C  
HETATM   26  C   UNL     1      -9.393   7.740  72.793  1.00  0.00    -0.263 C  
HETATM   27  C   UNL     1     -10.873   7.489  73.069  1.00  0.00    -0.445 C  
HETATM   28  C   UNL     1     -11.551   7.515  71.696  1.00  0.00    -0.268 C  
BRANCH  28  29
HETATM   29  C   UNL     1     -12.769   8.455  71.712  1.00  0.00    -0.342 C  
HETATM   30  N   UNL     1     -13.952   7.929  71.272  1.00  0.00    -0.606 N  
HETATM   31  O   UNL     1     -12.675   9.649  71.982  1.00  0.00    -0.383 OA 
HETATM   32  H1  UNL     1     -14.759   8.552  71.283  1.00  0.00     0.000 HD 
HETATM   33  H2  UNL     1     -14.022   6.964  70.950  1.00  0.00     0.000 HD 
ENDBRANCH  28  29
ENDBRANCH  22  24
ENDBRANCH  20  22
ENDBRANCH   6  20
TORSDOF 6
ENDMDL
MODEL       97
REMARK 921   NORMALIZED FREE ENERGY PREDICTED BY IDOCK:   -6.10 KCAL/MOL
REMARK 922        TOTAL FREE ENERGY PREDICTED BY IDOCK:   -9.33 KCAL/MOL
REMARK 923 INTER-LIGAND FREE ENERGY PREDICTED BY IDOCK:   -8.19 KCAL/MOL
REMARK 924 INTRA-LIGAND FREE ENERGY PREDICTED BY IDOCK:   -1.13 KCAL/MOL
REMARK 927      BINDING AFFINITY PREDICTED BY RF-SCORE:    0.00 PKD
ROOT
HETATM    1  C   UNL     1      -9.608   9.230  65.595  1.00  0.00    -0.324 C  
HETATM    2  C   UNL     1      -9.552   9.336  67.077  1.00  0.00    -0.171 A  
HETATM    3  C   UNL     1      -9.986  10.368  67.914  1.00  0.00    -0.167 A  
HETATM    4  S   UNL     1      -9.566   9.948  69.542  1.00  0.00    -0.235 SA 
HETATM    5  N   UNL     1      -9.002   8.237  67.727  1.00  0.00    -0.136 NA 
HETATM    6  C   UNL     1      -8.978   8.442  69.012  1.00  0.00    -0.147 A  
ENDROOT
BRANCH   3   7
HETATM    7  C   UNL     1     -10.651  11.659  67.638  1.00  0.00    -0.237 A  
HETATM    8  C   UNL     1     -11.222  13.953  68.250  1.00  0.00    -0.272 A  
HETATM    9  C   UNL     1     -12.030  13.053  66.271  1.00  0.00    -0.414 A  
HETATM   10  C   UNL     1     -10.571  12.743  68.533  1.00  0.00    -0.270 A  
HETATM   11  N   UNL     1     -11.962  14.093  67.125  1.00  0.00    -0.421 NA 
HETATM   12  C   UNL     1     -11.393  11.842  66.473  1.00  0.00    -0.403 A  
BRANCH   8  13
HETATM   13  C   UNL     1     -11.180  15.148  69.213  1.00  0.00    -0.287 C  
HETATM   14  F   UNL     1     -13.072  15.862  70.511  1.00  0.00    -0.466 F  
HETATM   15  C   UNL     1      -9.735  15.412  69.711  1.00  0.00    -0.219 C  
HETATM   16  C   UNL     1     -11.613  16.417  68.444  1.00  0.00    -0.071 C  
HETATM   17  F   UNL     1     -11.410  15.005  71.614  1.00  0.00    -0.393 F  
HETATM   18  F   UNL     1     -12.714  13.726  70.445  1.00  0.00    -0.365 F  
HETATM   19  C   UNL     1     -12.090  14.926  70.444  1.00  0.00    -0.330 C  
ENDBRANCH   8  13
ENDBRANCH   3   7
BRANCH   6  20
HETATM   20  N   UNL     1      -8.552   7.632  70.027  1.00  0.00    -0.136 N  
HETATM   21  H   UNL     1      -7.648   7.830  70.456  1.00  0.00     0.000 HD 
BRANCH  20  22
HETATM   22  C   UNL     1      -9.276   6.567  70.500  1.00  0.00    -0.155 C  
HETATM   23  O   UNL     1      -9.021   5.382  70.302  1.00  0.00    -0.130 OA 
BRANCH  22  24
HETATM   24  N   UNL     1     -10.383   6.925  71.258  1.00  0.00    -0.203 N  
HETATM   25  C   UNL     1     -11.722   6.483  70.912  1.00  0.00    -0.356 C  
HETATM   26  C   UNL     1     -12.606   7.635  71.350  1.00  0.00    -0.359 C  
HETATM   27  C   UNL     1     -11.900   8.207  72.577  1.00  0.00    -0.438 C  
HETATM   28  C   UNL     1     -10.422   7.852  72.395  1.00  0.00    -0.277 C  
BRANCH  28  29
HETATM   29  C   UNL     1      -9.866   7.186  73.667  1.00  0.00    -0.300 C  
HETATM   30  N   UNL     1      -8.557   7.443  73.967  1.00  0.00    -0.189 N  
HETATM   31  O   UNL     1     -10.510   6.367  74.316  1.00  0.00    -0.322 OA 
HETATM   32  H1  UNL     1      -8.189   7.002  74.809  1.00  0.00     0.000 HD 
HETATM   33  H2  UNL     1      -7.980   8.044  73.379  1.00  0.00     0.000 HD 
ENDBRANCH  28  29
ENDBRANCH  22  24
ENDBRANCH  20  22
ENDBRANCH   6  20
TORSDOF 6
ENDMDL
MODEL       98
REMARK 921   NORMALIZED FREE ENERGY PREDICTED BY IDOCK:   -6.09 KCAL/MOL
REMARK 922        TOTAL FREE ENERGY PREDICTED BY IDOCK:   -9.32 KCAL/MOL
REMARK 923 INTER-LIGAND FREE ENERGY PREDICTED BY IDOCK:   -8.06 KCAL/MOL
REMARK 924 INTRA-LIGAND FREE ENERGY PREDICTED BY IDOCK:   -1.26 KCAL/MOL
REMARK 927      BINDING AFFINITY PREDICTED BY RF-SCORE:    0.00 PKD
ROOT
HETATM    1  C   UNL     1     -12.012  12.278  63.808  1.00  0.00    -0.609 C  
HETATM    2  C   UNL     1     -11.439  12.883  65.040  1.00  0.00    -0.315 A  
HETATM    3  C   UNL     1     -10.766  12.272  66.102  1.00  0.00    -0.261 A  
HETATM    4  S   UNL     1     -10.421  13.489  67.286  1.00  0.00    -0.248 SA 
HETATM    5  N   UNL     1     -11.579  14.262  65.141  1.00  0.00    -0.340 NA 
HETATM    6  C   UNL     1     -11.068  14.683  66.261  1.00  0.00    -0.336 A  
ENDROOT
BRANCH   3   7
HETATM    7  C   UNL     1     -10.377  10.869  66.358  1.00  0.00    -0.306 A  
HETATM    8  C   UNL     1      -9.080   8.870  65.824  1.00  0.00    -0.221 A  
HETATM    9  C   UNL     1     -10.591   8.829  67.584  1.00  0.00    -0.213 A  
HETATM   10  C   UNL     1      -9.423  10.205  65.564  1.00  0.00    -0.286 A  
HETATM   11  N   UNL     1      -9.681   8.185  66.826  1.00  0.00    -0.214 NA 
HETATM   12  C   UNL     1     -10.955  10.150  67.401  1.00  0.00    -0.295 A  
BRANCH   8  13
HETATM   13  C   UNL     1      -8.065   8.104  64.965  1.00  0.00    -0.155 C  
HETATM   14  F   UNL     1      -5.829   8.884  64.555  1.00  0.00    -0.061 F  
HETATM   15  C   UNL     1      -8.389   6.587  64.938  1.00  0.00    -0.049 C  
HETATM   16  C   UNL     1      -8.180   8.598  63.506  1.00  0.00    -0.150 C  
HETATM   17  F   UNL     1      -6.023   7.107  65.786  1.00  0.00    -0.033 F  
HETATM   18  F   UNL     1      -6.537   9.052  66.596  1.00  0.00    -0.063 F  
HETATM   19  C   UNL     1      -6.619   8.286  65.484  1.00  0.00    -0.049 C  
ENDBRANCH   8  13
ENDBRANCH   3   7
BRANCH   6  20
HETATM   20  N   UNL     1     -10.961  15.951  66.761  1.00  0.00    -0.219 N  
HETATM   21  H   UNL     1     -11.306  16.129  67.704  1.00  0.00     0.000 HD 
BRANCH  20  22
HETATM   22  C   UNL     1     -10.415  16.997  66.061  1.00  0.00    -0.274 C  
HETATM   23  O   UNL     1     -10.910  17.535  65.074  1.00  0.00    -0.727 OA 
BRANCH  22  24
HETATM   24  N   UNL     1      -9.196  17.438  66.559  1.00  0.00    -0.261 N  
HETATM   25  C   UNL     1      -7.950  16.764  66.235  1.00  0.00    -0.316 C  
HETATM   26  C   UNL     1      -7.112  16.940  67.486  1.00  0.00    -0.170 C  
HETATM   27  C   UNL     1      -7.537  18.298  68.038  1.00  0.00    -0.257 C  
HETATM   28  C   UNL     1      -8.966  18.510  67.533  1.00  0.00    -0.276 C  
BRANCH  28  29
HETATM   29  C   UNL     1      -9.105  19.893  66.871  1.00  0.00    -0.356 C  
HETATM   30  N   UNL     1      -8.153  20.225  65.947  1.00  0.00    -0.550 N  
HETATM   31  O   UNL     1      -9.943  20.715  67.233  1.00  0.00    -0.448 OA 
HETATM   32  H1  UNL     1      -8.246  21.141  65.509  1.00  0.00     0.000 HD 
HETATM   33  H2  UNL     1      -7.392  19.590  65.710  1.00  0.00     0.000 HD 
ENDBRANCH  28  29
ENDBRANCH  22  24
ENDBRANCH  20  22
ENDBRANCH   6  20
TORSDOF 6
ENDMDL
MODEL       99
REMARK 921   NORMALIZED FREE ENERGY PREDICTED BY IDOCK:   -6.08 KCAL/MOL
REMARK 922        TOTAL FREE ENERGY PREDICTED BY IDOCK:   -9.31 KCAL/MOL
REMARK 923 INTER-LIGAND FREE ENERGY PREDICTED BY IDOCK:   -8.31 KCAL/MOL
REMARK 924 INTRA-LIGAND FREE ENERGY PREDICTED BY IDOCK:   -1.00 KCAL/MOL
REMARK 927      BINDING AFFINITY PREDICTED BY RF-SCORE:    0.00 PKD
ROOT
HETATM    1  C   UNL     1     -11.945  15.554  69.971  1.00  0.00    -0.385 C  
HETATM    2  C   UNL     1     -11.194  15.088  68.774  1.00  0.00    -0.277 A  
HETATM    3  C   UNL     1     -10.374  15.808  67.902  1.00  0.00    -0.261 A  
HETATM    4  S   UNL     1      -9.854  14.732  66.647  1.00  0.00    -0.271 SA 
HETATM    5  N   UNL     1     -11.314  13.732  68.493  1.00  0.00    -0.266 NA 
HETATM    6  C   UNL     1     -10.642  13.437  67.419  1.00  0.00    -0.251 A  
ENDROOT
BRANCH   3   7
HETATM    7  C   UNL     1      -9.955  17.225  67.872  1.00  0.00    -0.297 A  
HETATM    8  C   UNL     1      -8.230  18.953  67.818  1.00  0.00    -0.270 A  
HETATM    9  C   UNL     1     -10.468  19.560  67.894  1.00  0.00    -0.427 A  
HETATM   10  C   UNL     1      -8.598  17.600  67.836  1.00  0.00    -0.238 A  
HETATM   11  N   UNL     1      -9.171  19.926  67.864  1.00  0.00    -0.333 NA 
HETATM   12  C   UNL     1     -10.902  18.248  67.886  1.00  0.00    -0.232 A  
BRANCH   8  13
HETATM   13  C   UNL     1      -6.761  19.401  67.805  1.00  0.00    -0.251 C  
HETATM   14  F   UNL     1      -5.907  21.160  69.200  1.00  0.00    -0.393 F  
HETATM   15  C   UNL     1      -5.835  18.255  67.322  1.00  0.00    -0.149 C  
HETATM   16  C   UNL     1      -6.603  20.548  66.782  1.00  0.00    -0.300 C  
HETATM   17  F   UNL     1      -5.218  19.151  69.647  1.00  0.00    -0.177 F  
HETATM   18  F   UNL     1      -7.239  19.747  70.160  1.00  0.00    -0.259 F  
HETATM   19  C   UNL     1      -6.287  19.857  69.205  1.00  0.00    -0.330 C  
ENDBRANCH   8  13
ENDBRANCH   3   7
BRANCH   6  20
HETATM   20  N   UNL     1     -10.459  12.234  66.795  1.00  0.00    -0.216 N  
HETATM   21  H   UNL     1      -9.892  12.211  65.948  1.00  0.00     0.000 HD 
BRANCH  20  22
HETATM   22  C   UNL     1     -10.999  11.057  67.248  1.00  0.00    -0.297 C  
HETATM   23  O   UNL     1     -12.071  10.939  67.836  1.00  0.00    -0.527 OA 
BRANCH  22  24
HETATM   24  N   UNL     1     -10.216   9.939  66.993  1.00  0.00    -0.220 N  
HETATM   25  C   UNL     1      -9.003  10.021  66.197  1.00  0.00    -0.149 C  
HETATM   26  C   UNL     1      -8.947   8.681  65.488  1.00  0.00    -0.209 C  
HETATM   27  C   UNL     1      -9.567   7.703  66.482  1.00  0.00    -0.254 C  
HETATM   28  C   UNL     1     -10.509   8.546  67.346  1.00  0.00    -0.280 C  
BRANCH  28  29
HETATM   29  C   UNL     1     -10.245   8.289  68.840  1.00  0.00    -0.210 C  
HETATM   30  N   UNL     1     -11.303   8.474  69.686  1.00  0.00    -0.435 N  
HETATM   31  O   UNL     1      -9.123   8.056  69.280  1.00  0.00    -0.148 OA 
HETATM   32  H1  UNL     1     -11.128   8.305  70.676  1.00  0.00     0.000 HD 
HETATM   33  H2  UNL     1     -12.219   8.766  69.344  1.00  0.00     0.000 HD 
ENDBRANCH  28  29
ENDBRANCH  22  24
ENDBRANCH  20  22
ENDBRANCH   6  20
TORSDOF 6
ENDMDL
MODEL      100
REMARK 921   NORMALIZED FREE ENERGY PREDICTED BY IDOCK:   -6.08 KCAL/MOL
REMARK 922        TOTAL FREE ENERGY PREDICTED BY IDOCK:   -9.30 KCAL/MOL
REMARK 923 INTER-LIGAND FREE ENERGY PREDICTED BY IDOCK:   -7.99 KCAL/MOL
REMARK 924 INTRA-LIGAND FREE ENERGY PREDICTED BY IDOCK:   -1.32 KCAL/MOL
REMARK 927      BINDING AFFINITY PREDICTED BY RF-SCORE:    0.00 PKD
ROOT
HETATM    1  C   UNL     1     -12.274  12.622  68.842  1.00  0.00    -0.001 C  
HETATM    2  C   UNL     1     -10.874  12.183  68.597  1.00  0.00    -0.235 A  
HETATM    3  C   UNL     1      -9.873  12.784  67.831  1.00  0.00    -0.223 A  
HETATM    4  S   UNL     1      -8.484  11.749  67.859  1.00  0.00    -0.163 SA 
HETATM    5  N   UNL     1     -10.504  11.007  69.239  1.00  0.00    -0.208 NA 
HETATM    6  C   UNL     1      -9.275  10.700  68.939  1.00  0.00    -0.183 A  
ENDROOT
BRANCH   3   7
HETATM    7  C   UNL     1      -9.839  14.035  67.043  1.00  0.00    -0.260 A  
HETATM    8  C   UNL     1      -9.370  16.422  66.824  1.00  0.00    -0.245 A  
HETATM    9  C   UNL     1     -10.258  15.252  65.029  1.00  0.00    -0.289 A  
HETATM   10  C   UNL     1      -9.381  15.249  67.593  1.00  0.00    -0.199 A  
HETATM   11  N   UNL     1      -9.826  16.418  65.550  1.00  0.00    -0.533 NA 
HETATM   12  C   UNL     1     -10.272  14.054  65.719  1.00  0.00    -0.343 A  
BRANCH   8  13
HETATM   13  C   UNL     1      -8.904  17.768  67.396  1.00  0.00    -0.240 C  
HETATM   14  F   UNL     1     -10.207  19.782  67.257  1.00  0.00    -0.441 F  
HETATM   15  C   UNL     1      -7.889  17.562  68.550  1.00  0.00    -0.274 C  
HETATM   16  C   UNL     1      -8.151  18.540  66.289  1.00  0.00    -0.259 C  
HETATM   17  F   UNL     1      -9.948  18.932  69.237  1.00  0.00    -0.398 F  
HETATM   18  F   UNL     1     -11.285  17.987  67.814  1.00  0.00    -0.315 F  
HETATM   19  C   UNL     1     -10.088  18.608  67.929  1.00  0.00    -0.369 C  
ENDBRANCH   8  13
ENDBRANCH   3   7
BRANCH   6  20
HETATM   20  N   UNL     1      -8.499   9.656  69.357  1.00  0.00    -0.142 N  
HETATM   21  H   UNL     1      -7.657   9.437  68.825  1.00  0.00     0.000 HD 
BRANCH  20  22
HETATM   22  C   UNL     1      -8.792   8.887  70.455  1.00  0.00    -0.181 C  
HETATM   23  O   UNL     1      -8.446   9.123  71.609  1.00  0.00    -0.344 OA 
BRANCH  22  24
HETATM   24  N   UNL     1      -9.546   7.756  70.169  1.00  0.00    -0.168 N  
HETATM   25  C   UNL     1      -8.960   6.587  69.537  1.00  0.00    -0.137 C  
HETATM   26  C   UNL     1     -10.091   6.030  68.694  1.00  0.00    -0.208 C  
HETATM   27  C   UNL     1     -11.351   6.355  69.490  1.00  0.00    -0.460 C  
HETATM   28  C   UNL     1     -10.995   7.588  70.326  1.00  0.00    -0.250 C  
BRANCH  28  29
HETATM   29  C   UNL     1     -11.366   7.364  71.803  1.00  0.00    -0.255 C  
HETATM   30  N   UNL     1     -11.227   6.091  72.281  1.00  0.00    -0.278 N  
HETATM   31  O   UNL     1     -11.880   8.241  72.492  1.00  0.00    -0.387 OA 
HETATM   32  H1  UNL     1     -11.474   5.943  73.259  1.00  0.00     0.000 HD 
HETATM   33  H2  UNL     1     -10.895   5.329  71.689  1.00  0.00     0.000 HD 
ENDBRANCH  28  29
ENDBRANCH  22  24
ENDBRANCH  20  22
ENDBRANCH   6  20
TORSDOF 6
ENDMDL
MODEL      101
REMARK 921   NORMALIZED FREE ENERGY PREDICTED BY IDOCK:   -6.07 KCAL/MOL
REMARK 922        TOTAL FREE ENERGY PREDICTED BY IDOCK:   -9.30 KCAL/MOL
REMARK 923 INTER-LIGAND FREE ENERGY PREDICTED BY IDOCK:   -8.14 KCAL/MOL
REMARK 924 INTRA-LIGAND FREE ENERGY PREDICTED BY IDOCK:   -1.16 KCAL/MOL
REMARK 927      BINDING AFFINITY PREDICTED BY RF-SCORE:    0.00 PKD
ROOT
HETATM    1  C   UNL     1      -7.214  10.144  68.141  1.00  0.00    -0.081 C  
HETATM    2  C   UNL     1      -8.487  10.680  67.590  1.00  0.00    -0.118 A  
HETATM    3  C   UNL     1      -9.776  10.143  67.642  1.00  0.00    -0.161 A  
HETATM    4  S   UNL     1     -10.826  11.186  66.741  1.00  0.00    -0.244 SA 
HETATM    5  N   UNL     1      -8.380  11.905  66.941  1.00  0.00    -0.173 NA 
HETATM    6  C   UNL     1      -9.540  12.269  66.478  1.00  0.00    -0.238 A  
ENDROOT
BRANCH   3   7
HETATM    7  C   UNL     1     -10.317   8.914  68.260  1.00  0.00    -0.250 A  
HETATM    8  C   UNL     1     -11.240   7.697  70.166  1.00  0.00    -0.180 A  
HETATM    9  C   UNL     1     -10.898   6.598  68.151  1.00  0.00    -0.263 A  
HETATM   10  C   UNL     1     -10.739   8.880  69.603  1.00  0.00    -0.222 A  
HETATM   11  N   UNL     1     -11.300   6.557  69.437  1.00  0.00    -0.354 NA 
HETATM   12  C   UNL     1     -10.421   7.735  67.526  1.00  0.00    -0.338 A  
BRANCH   8  13
HETATM   13  C   UNL     1     -11.684   7.614  71.633  1.00  0.00    -0.313 C  
HETATM   14  F   UNL     1     -10.874   5.949  73.164  1.00  0.00    -0.234 F  
HETATM   15  C   UNL     1     -12.163   8.996  72.148  1.00  0.00    -0.427 C  
HETATM   16  C   UNL     1     -12.904   6.669  71.726  1.00  0.00    -0.231 C  
HETATM   17  F   UNL     1     -10.253   7.995  73.541  1.00  0.00    -0.379 F  
HETATM   18  F   UNL     1      -9.385   6.881  71.895  1.00  0.00    -0.143 F  
HETATM   19  C   UNL     1     -10.544   7.116  72.552  1.00  0.00    -0.240 C  
ENDBRANCH   8  13
ENDBRANCH   3   7
BRANCH   6  20
HETATM   20  N   UNL     1      -9.906  13.400  65.803  1.00  0.00    -0.428 N  
HETATM   21  H   UNL     1      -9.428  13.616  64.928  1.00  0.00     0.000 HD 
BRANCH  20  22
HETATM   22  C   UNL     1     -10.881  14.260  66.241  1.00  0.00    -0.310 C  
HETATM   23  O   UNL     1     -12.047  14.279  65.855  1.00  0.00    -0.398 OA 
BRANCH  22  24
HETATM   24  N   UNL     1     -10.449  15.166  67.200  1.00  0.00    -0.275 N  
HETATM   25  C   UNL     1     -10.287  16.578  66.899  1.00  0.00    -0.300 C  
HETATM   26  C   UNL     1      -9.120  17.000  67.772  1.00  0.00    -0.228 C  
HETATM   27  C   UNL     1      -9.248  16.130  69.020  1.00  0.00    -0.252 C  
HETATM   28  C   UNL     1      -9.989  14.871  68.562  1.00  0.00    -0.223 C  
BRANCH  28  29
HETATM   29  C   UNL     1     -11.179  14.575  69.492  1.00  0.00    -0.264 C  
HETATM   30  N   UNL     1     -11.002  14.864  70.817  1.00  0.00    -0.523 N  
HETATM   31  O   UNL     1     -12.189  13.995  69.105  1.00  0.00    -0.346 OA 
HETATM   32  H1  UNL     1     -11.791  14.667  71.433  1.00  0.00     0.000 HD 
HETATM   33  H2  UNL     1     -10.129  15.254  71.169  1.00  0.00     0.000 HD 
ENDBRANCH  28  29
ENDBRANCH  22  24
ENDBRANCH  20  22
ENDBRANCH   6  20
TORSDOF 6
ENDMDL
MODEL      102
REMARK 921   NORMALIZED FREE ENERGY PREDICTED BY IDOCK:   -6.07 KCAL/MOL
REMARK 922        TOTAL FREE ENERGY PREDICTED BY IDOCK:   -9.29 KCAL/MOL
REMARK 923 INTER-LIGAND FREE ENERGY PREDICTED BY IDOCK:   -8.54 KCAL/MOL
REMARK 924 INTRA-LIGAND FREE ENERGY PREDICTED BY IDOCK:   -0.76 KCAL/MOL
REMARK 927      BINDING AFFINITY PREDICTED BY RF-SCORE:    0.00 PKD
ROOT
HETATM    1  C   UNL     1     -12.585  13.578  65.626  1.00  0.00    -0.512 C  
HETATM    2  C   UNL     1     -11.615  12.782  66.424  1.00  0.00    -0.378 A  
HETATM    3  C   UNL     1     -11.089  13.033  67.694  1.00  0.00    -0.267 A  
HETATM    4  S   UNL     1      -9.937  11.788  68.050  1.00  0.00    -0.193 SA 
HETATM    5  N   UNL     1     -11.180  11.607  65.823  1.00  0.00    -0.275 NA 
HETATM    6  C   UNL     1     -10.320  11.003  66.590  1.00  0.00    -0.240 A  
ENDROOT
BRANCH   3   7
HETATM    7  C   UNL     1     -11.318  14.120  68.669  1.00  0.00    -0.306 A  
HETATM    8  C   UNL     1     -12.276  14.972  70.747  1.00  0.00    -0.329 A  
HETATM    9  C   UNL     1     -11.070  16.392  69.366  1.00  0.00    -0.300 A  
HETATM   10  C   UNL     1     -12.066  13.919  69.845  1.00  0.00    -0.406 A  
HETATM   11  N   UNL     1     -11.789  16.209  70.492  1.00  0.00    -0.273 NA 
HETATM   12  C   UNL     1     -10.802  15.395  68.448  1.00  0.00    -0.268 A  
BRANCH   8  13
HETATM   13  C   UNL     1     -13.108  14.799  72.026  1.00  0.00    -0.421 C  
HETATM   14  F   UNL     1     -12.160  14.160  74.140  1.00  0.00    -0.037 F  
HETATM   15  C   UNL     1     -14.405  15.648  71.966  1.00  0.00    -0.486 C  
HETATM   16  C   UNL     1     -13.558  13.324  72.127  1.00  0.00    -0.655 C  
HETATM   17  F   UNL     1     -12.929  16.185  73.997  1.00  0.00    -0.569 F  
HETATM   18  F   UNL     1     -11.066  15.658  73.019  1.00  0.00    -0.247 F  
HETATM   19  C   UNL     1     -12.313  15.207  73.289  1.00  0.00    -0.456 C  
ENDBRANCH   8  13
ENDBRANCH   3   7
BRANCH   6  20
HETATM   20  N   UNL     1      -9.661   9.818  66.416  1.00  0.00    -0.200 N  
HETATM   21  H   UNL     1      -9.968   9.200  65.664  1.00  0.00     0.000 HD 
BRANCH  20  22
HETATM   22  C   UNL     1      -8.609   9.414  67.199  1.00  0.00    -0.128 C  
HETATM   23  O   UNL     1      -7.498   9.937  67.231  1.00  0.00    -0.087 OA 
BRANCH  22  24
HETATM   24  N   UNL     1      -8.887   8.314  67.999  1.00  0.00    -0.135 N  
HETATM   25  C   UNL     1      -9.119   8.446  69.427  1.00  0.00    -0.154 C  
HETATM   26  C   UNL     1      -8.561   7.158  70.002  1.00  0.00    -0.141 C  
HETATM   27  C   UNL     1      -8.826   6.115  68.918  1.00  0.00    -0.122 C  
HETATM   28  C   UNL     1      -8.876   6.900  67.605  1.00  0.00    -0.118 C  
BRANCH  28  29
HETATM   29  C   UNL     1     -10.143   6.541  66.809  1.00  0.00    -0.176 C  
HETATM   30  N   UNL     1      -9.985   5.657  65.778  1.00  0.00    -0.382 N  
HETATM   31  O   UNL     1     -11.219   7.104  66.995  1.00  0.00    -0.277 OA 
HETATM   32  H1  UNL     1     -10.825   5.420  65.251  1.00  0.00     0.000 HD 
HETATM   33  H2  UNL     1      -9.075   5.258  65.549  1.00  0.00     0.000 HD 
ENDBRANCH  28  29
ENDBRANCH  22  24
ENDBRANCH  20  22
ENDBRANCH   6  20
TORSDOF 6
ENDMDL
MODEL      103
REMARK 921   NORMALIZED FREE ENERGY PREDICTED BY IDOCK:   -6.05 KCAL/MOL
REMARK 922        TOTAL FREE ENERGY PREDICTED BY IDOCK:   -9.27 KCAL/MOL
REMARK 923 INTER-LIGAND FREE ENERGY PREDICTED BY IDOCK:   -7.96 KCAL/MOL
REMARK 924 INTRA-LIGAND FREE ENERGY PREDICTED BY IDOCK:   -1.30 KCAL/MOL
REMARK 927      BINDING AFFINITY PREDICTED BY RF-SCORE:    0.00 PKD
ROOT
HETATM    1  C   UNL     1     -11.731  12.874  68.597  1.00  0.00    -0.359 C  
HETATM    2  C   UNL     1     -10.299  12.714  68.225  1.00  0.00    -0.241 A  
HETATM    3  C   UNL     1      -9.479  13.548  67.462  1.00  0.00    -0.222 A  
HETATM    4  S   UNL     1      -7.934  12.780  67.304  1.00  0.00    -0.121 SA 
HETATM    5  N   UNL     1      -9.683  11.573  68.727  1.00  0.00    -0.170 NA 
HETATM    6  C   UNL     1      -8.447  11.518  68.324  1.00  0.00    -0.159 A  
ENDROOT
BRANCH   3   7
HETATM    7  C   UNL     1      -9.722  14.847  66.798  1.00  0.00    -0.263 A  
HETATM    8  C   UNL     1      -9.490  17.275  66.683  1.00  0.00    -0.265 A  
HETATM    9  C   UNL     1     -10.694  16.153  65.048  1.00  0.00    -0.337 A  
HETATM   10  C   UNL     1      -9.234  16.057  67.329  1.00  0.00    -0.215 A  
HETATM   11  N   UNL     1     -10.234  17.315  65.553  1.00  0.00    -0.620 NA 
HETATM   12  C   UNL     1     -10.458  14.915  65.617  1.00  0.00    -0.366 A  
BRANCH   8  13
HETATM   13  C   UNL     1      -8.997  18.616  67.244  1.00  0.00    -0.283 C  
HETATM   14  F   UNL     1     -10.223  20.671  67.017  1.00  0.00    -0.562 F  
HETATM   15  C   UNL     1      -8.033  18.399  68.440  1.00  0.00    -0.325 C  
HETATM   16  C   UNL     1      -8.178  19.339  66.151  1.00  0.00    -0.291 C  
HETATM   17  F   UNL     1     -10.067  19.854  69.022  1.00  0.00    -0.496 F  
HETATM   18  F   UNL     1     -11.383  18.926  67.570  1.00  0.00    -0.399 F  
HETATM   19  C   UNL     1     -10.170  19.507  67.716  1.00  0.00    -0.429 C  
ENDBRANCH   8  13
ENDBRANCH   3   7
BRANCH   6  20
HETATM   20  N   UNL     1      -7.472  10.598  68.591  1.00  0.00    -0.092 N  
HETATM   21  H   UNL     1      -7.058  10.590  69.524  1.00  0.00     0.000 HD 
BRANCH  20  22
HETATM   22  C   UNL     1      -7.020   9.686  67.672  1.00  0.00    -0.087 C  
HETATM   23  O   UNL     1      -6.054   9.835  66.929  1.00  0.00    -0.061 OA 
BRANCH  22  24
HETATM   24  N   UNL     1      -7.763   8.514  67.625  1.00  0.00    -0.101 N  
HETATM   25  C   UNL     1      -7.734   7.546  68.707  1.00  0.00    -0.119 C  
HETATM   26  C   UNL     1      -7.906   6.214  68.003  1.00  0.00    -0.106 C  
HETATM   27  C   UNL     1      -8.806   6.530  66.811  1.00  0.00    -0.130 C  
HETATM   28  C   UNL     1      -8.562   8.010  66.502  1.00  0.00    -0.140 C  
BRANCH  28  29
HETATM   29  C   UNL     1      -9.897   8.767  66.392  1.00  0.00    -0.282 C  
HETATM   30  N   UNL     1     -10.872   8.414  67.284  1.00  0.00    -0.461 N  
HETATM   31  O   UNL     1     -10.134   9.556  65.482  1.00  0.00    -0.260 OA 
HETATM   32  H1  UNL     1     -11.757   8.916  67.211  1.00  0.00     0.000 HD 
HETATM   33  H2  UNL     1     -10.722   7.688  67.983  1.00  0.00     0.000 HD 
ENDBRANCH  28  29
ENDBRANCH  22  24
ENDBRANCH  20  22
ENDBRANCH   6  20
TORSDOF 6
ENDMDL
MODEL      104
REMARK 921   NORMALIZED FREE ENERGY PREDICTED BY IDOCK:   -6.05 KCAL/MOL
REMARK 922        TOTAL FREE ENERGY PREDICTED BY IDOCK:   -9.27 KCAL/MOL
REMARK 923 INTER-LIGAND FREE ENERGY PREDICTED BY IDOCK:   -8.30 KCAL/MOL
REMARK 924 INTRA-LIGAND FREE ENERGY PREDICTED BY IDOCK:   -0.96 KCAL/MOL
REMARK 927      BINDING AFFINITY PREDICTED BY RF-SCORE:    0.00 PKD
ROOT
HETATM    1  C   UNL     1     -13.200  11.791  72.141  1.00  0.00    -0.342 C  
HETATM    2  C   UNL     1     -12.449  11.158  71.024  1.00  0.00    -0.403 A  
HETATM    3  C   UNL     1     -11.873  11.743  69.894  1.00  0.00    -0.348 A  
HETATM    4  S   UNL     1     -11.213  10.476  68.913  1.00  0.00    -0.260 SA 
HETATM    5  N   UNL     1     -12.281   9.782  71.131  1.00  0.00    -0.338 NA 
HETATM    6  C   UNL     1     -11.636   9.328  70.096  1.00  0.00    -0.045 A  
ENDROOT
BRANCH   3   7
HETATM    7  C   UNL     1     -11.785  13.146  69.435  1.00  0.00    -0.386 A  
HETATM    8  C   UNL     1     -11.073  14.836  67.823  1.00  0.00    -0.299 A  
HETATM    9  C   UNL     1     -12.192  15.480  69.750  1.00  0.00    -0.302 A  
HETATM   10  C   UNL     1     -11.150  13.496  68.228  1.00  0.00    -0.287 A  
HETATM   11  N   UNL     1     -11.582  15.822  68.598  1.00  0.00    -0.385 NA 
HETATM   12  C   UNL     1     -12.328  14.179  70.196  1.00  0.00    -0.413 A  
BRANCH   8  13
HETATM   13  C   UNL     1     -10.367  15.259  66.527  1.00  0.00    -0.289 C  
HETATM   14  F   UNL     1     -10.258  13.870  64.570  1.00  0.00    -0.445 F  
HETATM   15  C   UNL     1     -10.309  16.804  66.403  1.00  0.00    -0.309 C  
HETATM   16  C   UNL     1      -8.901  14.773  66.582  1.00  0.00    -0.262 C  
HETATM   17  F   UNL     1     -11.467  15.666  64.415  1.00  0.00    -0.408 F  
HETATM   18  F   UNL     1     -12.182  13.970  65.561  1.00  0.00    -0.355 F  
HETATM   19  C   UNL     1     -11.076  14.694  65.274  1.00  0.00    -0.360 C  
ENDBRANCH   8  13
ENDBRANCH   3   7
BRANCH   6  20
HETATM   20  N   UNL     1     -11.231   8.057  69.796  1.00  0.00    -0.451 N  
HETATM   21  H   UNL     1     -11.941   7.327  69.733  1.00  0.00     0.000 HD 
BRANCH  20  22
HETATM   22  C   UNL     1      -9.922   7.712  69.574  1.00  0.00    -0.182 C  
HETATM   23  O   UNL     1      -8.985   7.929  70.337  1.00  0.00    -0.144 OA 
BRANCH  22  24
HETATM   24  N   UNL     1      -9.703   7.066  68.364  1.00  0.00    -0.138 N  
HETATM   25  C   UNL     1     -10.766   6.889  67.390  1.00  0.00    -0.326 C  
HETATM   26  C   UNL     1     -10.433   5.562  66.733  1.00  0.00    -0.355 C  
HETATM   27  C   UNL     1      -8.908   5.507  66.746  1.00  0.00    -0.114 C  
HETATM   28  C   UNL     1      -8.481   6.383  67.927  1.00  0.00    -0.118 C  
BRANCH  28  29
HETATM   29  C   UNL     1      -7.410   7.398  67.488  1.00  0.00    -0.102 C  
HETATM   30  N   UNL     1      -6.659   7.960  68.483  1.00  0.00    -0.059 N  
HETATM   31  O   UNL     1      -7.308   7.787  66.328  1.00  0.00    -0.076 OA 
HETATM   32  H1  UNL     1      -5.950   8.632  68.192  1.00  0.00     0.000 HD 
HETATM   33  H2  UNL     1      -6.801   7.719  69.464  1.00  0.00     0.000 HD 
ENDBRANCH  28  29
ENDBRANCH  22  24
ENDBRANCH  20  22
ENDBRANCH   6  20
TORSDOF 6
ENDMDL
MODEL      105
REMARK 921   NORMALIZED FREE ENERGY PREDICTED BY IDOCK:   -6.05 KCAL/MOL
REMARK 922        TOTAL FREE ENERGY PREDICTED BY IDOCK:   -9.26 KCAL/MOL
REMARK 923 INTER-LIGAND FREE ENERGY PREDICTED BY IDOCK:   -8.66 KCAL/MOL
REMARK 924 INTRA-LIGAND FREE ENERGY PREDICTED BY IDOCK:   -0.60 KCAL/MOL
REMARK 927      BINDING AFFINITY PREDICTED BY RF-SCORE:    0.00 PKD
ROOT
HETATM    1  C   UNL     1      -8.545   7.118  65.506  1.00  0.00    -0.093 C  
HETATM    2  C   UNL     1      -8.456   8.045  66.665  1.00  0.00    -0.133 A  
HETATM    3  C   UNL     1      -8.772   9.404  66.745  1.00  0.00    -0.127 A  
HETATM    4  S   UNL     1      -8.372   9.953  68.339  1.00  0.00    -0.108 SA 
HETATM    5  N   UNL     1      -8.009   7.469  67.848  1.00  0.00    -0.117 NA 
HETATM    6  C   UNL     1      -7.945   8.368  68.787  1.00  0.00    -0.120 A  
ENDROOT
BRANCH   3   7
HETATM    7  C   UNL     1      -9.309  10.361  65.754  1.00  0.00    -0.230 A  
HETATM    8  C   UNL     1     -10.382  12.478  65.177  1.00  0.00    -0.289 A  
HETATM    9  C   UNL     1      -9.828  10.971  63.502  1.00  0.00    -0.359 A  
HETATM   10  C   UNL     1      -9.871  11.594  66.139  1.00  0.00    -0.250 A  
HETATM   11  N   UNL     1     -10.371  12.150  63.863  1.00  0.00    -0.381 NA 
HETATM   12  C   UNL     1      -9.283  10.065  64.393  1.00  0.00    -0.316 A  
BRANCH   8  13
HETATM   13  C   UNL     1     -11.025  13.818  65.558  1.00  0.00    -0.299 C  
HETATM   14  F   UNL     1     -12.420  15.083  64.066  1.00  0.00    -0.510 F  
HETATM   15  C   UNL     1     -11.204  13.932  67.095  1.00  0.00    -0.328 C  
HETATM   16  C   UNL     1     -10.070  14.960  65.146  1.00  0.00    -0.354 C  
HETATM   17  F   UNL     1     -13.400  14.202  65.791  1.00  0.00    -0.522 F  
HETATM   18  F   UNL     1     -12.786  12.949  64.131  1.00  0.00    -0.407 F  
HETATM   19  C   UNL     1     -12.408  14.003  64.889  1.00  0.00    -0.427 C  
ENDBRANCH   8  13
ENDBRANCH   3   7
BRANCH   6  20
HETATM   20  N   UNL     1      -7.587   8.248  70.101  1.00  0.00    -0.073 N  
HETATM   21  H   UNL     1      -6.599   8.122  70.323  1.00  0.00     0.000 HD 
BRANCH  20  22
HETATM   22  C   UNL     1      -8.485   8.287  71.137  1.00  0.00    -0.141 C  
HETATM   23  O   UNL     1      -8.375   8.962  72.157  1.00  0.00    -0.381 OA 
BRANCH  22  24
HETATM   24  N   UNL     1      -9.592   7.467  70.959  1.00  0.00    -0.162 N  
HETATM   25  C   UNL     1      -9.470   6.020  70.903  1.00  0.00    -0.168 C  
HETATM   26  C   UNL     1     -10.564   5.605  69.938  1.00  0.00    -0.399 C  
HETATM   27  C   UNL     1     -11.677   6.625  70.168  1.00  0.00    -0.412 C  
HETATM   28  C   UNL     1     -10.973   7.881  70.689  1.00  0.00    -0.245 C  
BRANCH  28  29
HETATM   29  C   UNL     1     -11.656   8.389  71.971  1.00  0.00    -0.351 C  
HETATM   30  N   UNL     1     -11.409   7.682  73.115  1.00  0.00    -0.596 N  
HETATM   31  O   UNL     1     -12.479   9.300  71.962  1.00  0.00    -0.365 OA 
HETATM   32  H1  UNL     1     -11.862   8.019  73.964  1.00  0.00     0.000 HD 
HETATM   33  H2  UNL     1     -10.804   6.861  73.117  1.00  0.00     0.000 HD 
ENDBRANCH  28  29
ENDBRANCH  22  24
ENDBRANCH  20  22
ENDBRANCH   6  20
TORSDOF 6
ENDMDL
MODEL      106
REMARK 921   NORMALIZED FREE ENERGY PREDICTED BY IDOCK:   -6.04 KCAL/MOL
REMARK 922        TOTAL FREE ENERGY PREDICTED BY IDOCK:   -9.26 KCAL/MOL
REMARK 923 INTER-LIGAND FREE ENERGY PREDICTED BY IDOCK:   -8.02 KCAL/MOL
REMARK 924 INTRA-LIGAND FREE ENERGY PREDICTED BY IDOCK:   -1.24 KCAL/MOL
REMARK 927      BINDING AFFINITY PREDICTED BY RF-SCORE:    0.00 PKD
ROOT
HETATM    1  C   UNL     1     -13.357  12.320  71.799  1.00  0.00    -0.353 C  
HETATM    2  C   UNL     1     -12.632  11.079  71.415  1.00  0.00    -0.393 A  
HETATM    3  C   UNL     1     -11.889  10.802  70.265  1.00  0.00    -0.349 A  
HETATM    4  S   UNL     1     -11.363   9.153  70.353  1.00  0.00    -0.183 SA 
HETATM    5  N   UNL     1     -12.691  10.050  72.347  1.00  0.00    -0.148 NA 
HETATM    6  C   UNL     1     -12.048   9.008  71.904  1.00  0.00    -0.378 A  
ENDROOT
BRANCH   3   7
HETATM    7  C   UNL     1     -11.548  11.617  69.080  1.00  0.00    -0.379 A  
HETATM    8  C   UNL     1     -10.690  13.660  68.054  1.00  0.00    -0.247 A  
HETATM    9  C   UNL     1     -11.479  11.940  66.712  1.00  0.00    -0.316 A  
HETATM   10  C   UNL     1     -10.993  12.906  69.197  1.00  0.00    -0.184 A  
HETATM   11  N   UNL     1     -10.952  13.176  66.817  1.00  0.00    -0.276 NA 
HETATM   12  C   UNL     1     -11.777  11.132  67.794  1.00  0.00    -0.220 A  
BRANCH   8  13
HETATM   13  C   UNL     1     -10.109  15.078  68.141  1.00  0.00    -0.220 C  
HETATM   14  F   UNL     1     -11.376  17.056  67.636  1.00  0.00    -0.206 F  
HETATM   15  C   UNL     1      -8.923  15.133  69.139  1.00  0.00    -0.219 C  
HETATM   16  C   UNL     1      -9.532  15.462  66.760  1.00  0.00    -0.260 C  
HETATM   17  F   UNL     1     -10.813  16.773  69.713  1.00  0.00    -0.318 F  
HETATM   18  F   UNL     1     -12.384  15.561  68.837  1.00  0.00    -0.285 F  
HETATM   19  C   UNL     1     -11.173  16.109  68.587  1.00  0.00    -0.369 C  
ENDBRANCH   8  13
ENDBRANCH   3   7
BRANCH   6  20
HETATM   20  N   UNL     1     -11.826   7.793  72.490  1.00  0.00    -0.509 N  
HETATM   21  H   UNL     1     -12.625   7.179  72.647  1.00  0.00     0.000 HD 
BRANCH  20  22
HETATM   22  C   UNL     1     -10.585   7.355  72.878  1.00  0.00    -0.321 C  
HETATM   23  O   UNL     1      -9.694   8.055  73.352  1.00  0.00    -0.280 OA 
BRANCH  22  24
HETATM   24  N   UNL     1     -10.380   5.995  72.691  1.00  0.00    -0.190 N  
HETATM   25  C   UNL     1     -11.274   5.002  73.261  1.00  0.00    -0.338 C  
HETATM   26  C   UNL     1     -10.360   3.831  73.569  1.00  0.00    -0.235 C  
HETATM   27  C   UNL     1      -9.299   3.881  72.473  1.00  0.00    -0.159 C  
HETATM   28  C   UNL     1      -9.237   5.348  72.037  1.00  0.00    -0.137 C  
BRANCH  28  29
HETATM   29  C   UNL     1      -9.343   5.461  70.505  1.00  0.00    -0.157 C  
HETATM   30  N   UNL     1      -8.213   5.852  69.843  1.00  0.00    -0.115 N  
HETATM   31  O   UNL     1     -10.408   5.334  69.908  1.00  0.00    -0.272 OA 
HETATM   32  H1  UNL     1      -8.283   5.927  68.829  1.00  0.00     0.000 HD 
HETATM   33  H2  UNL     1      -7.345   6.058  70.339  1.00  0.00     0.000 HD 
ENDBRANCH  28  29
ENDBRANCH  22  24
ENDBRANCH  20  22
ENDBRANCH   6  20
TORSDOF 6
ENDMDL
MODEL      107
REMARK 921   NORMALIZED FREE ENERGY PREDICTED BY IDOCK:   -6.03 KCAL/MOL
REMARK 922        TOTAL FREE ENERGY PREDICTED BY IDOCK:   -9.24 KCAL/MOL
REMARK 923 INTER-LIGAND FREE ENERGY PREDICTED BY IDOCK:   -8.17 KCAL/MOL
REMARK 924 INTRA-LIGAND FREE ENERGY PREDICTED BY IDOCK:   -1.07 KCAL/MOL
REMARK 927      BINDING AFFINITY PREDICTED BY RF-SCORE:    0.00 PKD
ROOT
HETATM    1  C   UNL     1      -5.830  11.476  68.730  1.00  0.00    -0.046 C  
HETATM    2  C   UNL     1      -7.204  10.982  69.015  1.00  0.00    -0.111 A  
HETATM    3  C   UNL     1      -8.439  11.534  68.666  1.00  0.00    -0.115 A  
HETATM    4  S   UNL     1      -9.682  10.546  69.361  1.00  0.00    -0.111 SA 
HETATM    5  N   UNL     1      -7.266   9.785  69.720  1.00  0.00    -0.089 NA 
HETATM    6  C   UNL     1      -8.507   9.458  69.937  1.00  0.00    -0.177 A  
ENDROOT
BRANCH   3   7
HETATM    7  C   UNL     1      -8.808  12.742  67.898  1.00  0.00    -0.186 A  
HETATM    8  C   UNL     1     -10.098  13.868  66.157  1.00  0.00    -0.308 A  
HETATM    9  C   UNL     1      -8.542  15.063  67.394  1.00  0.00    -0.192 A  
HETATM   10  C   UNL     1      -9.776  12.707  66.876  1.00  0.00    -0.234 A  
HETATM   11  N   UNL     1      -9.465  15.036  66.411  1.00  0.00    -0.279 NA 
HETATM   12  C   UNL     1      -8.195  13.966  68.159  1.00  0.00    -0.158 A  
BRANCH   8  13
HETATM   13  C   UNL     1     -11.129  13.864  65.019  1.00  0.00    -0.353 C  
HETATM   14  F   UNL     1     -12.940  12.291  64.885  1.00  0.00    -0.514 F  
HETATM   15  C   UNL     1     -11.255  15.271  64.378  1.00  0.00    -0.191 C  
HETATM   16  C   UNL     1     -10.628  12.921  63.902  1.00  0.00    -0.367 C  
HETATM   17  F   UNL     1     -13.480  14.357  65.274  1.00  0.00    -0.314 F  
HETATM   18  F   UNL     1     -12.574  13.157  66.837  1.00  0.00    -0.296 F  
HETATM   19  C   UNL     1     -12.527  13.423  65.511  1.00  0.00    -0.483 C  
ENDBRANCH   8  13
ENDBRANCH   3   7
BRANCH   6  20
HETATM   20  N   UNL     1      -9.034   8.362  70.561  1.00  0.00    -0.144 N  
HETATM   21  H   UNL     1      -9.209   7.526  70.004  1.00  0.00     0.000 HD 
BRANCH  20  22
HETATM   22  C   UNL     1      -9.340   8.327  71.898  1.00  0.00    -0.216 C  
HETATM   23  O   UNL     1      -8.678   8.835  72.799  1.00  0.00    -0.398 OA 
BRANCH  22  24
HETATM   24  N   UNL     1     -10.511   7.641  72.194  1.00  0.00    -0.211 N  
HETATM   25  C   UNL     1     -10.526   6.519  73.117  1.00  0.00    -0.249 C  
HETATM   26  C   UNL     1     -11.607   5.612  72.561  1.00  0.00    -0.303 C  
HETATM   27  C   UNL     1     -12.626   6.569  71.948  1.00  0.00    -0.238 C  
HETATM   28  C   UNL     1     -11.831   7.824  71.581  1.00  0.00    -0.287 C  
BRANCH  28  29
HETATM   29  C   UNL     1     -12.524   9.083  72.133  1.00  0.00    -0.380 C  
HETATM   30  N   UNL     1     -13.643   8.879  72.891  1.00  0.00    -0.872 N  
HETATM   31  O   UNL     1     -12.178  10.218  71.815  1.00  0.00    -0.351 OA 
HETATM   32  H1  UNL     1     -14.102   9.713  73.257  1.00  0.00     0.000 HD 
HETATM   33  H2  UNL     1     -13.999   7.943  73.081  1.00  0.00     0.000 HD 
ENDBRANCH  28  29
ENDBRANCH  22  24
ENDBRANCH  20  22
ENDBRANCH   6  20
TORSDOF 6
ENDMDL
MODEL      108
REMARK 921   NORMALIZED FREE ENERGY PREDICTED BY IDOCK:   -6.03 KCAL/MOL
REMARK 922        TOTAL FREE ENERGY PREDICTED BY IDOCK:   -9.24 KCAL/MOL
REMARK 923 INTER-LIGAND FREE ENERGY PREDICTED BY IDOCK:   -7.98 KCAL/MOL
REMARK 924 INTRA-LIGAND FREE ENERGY PREDICTED BY IDOCK:   -1.25 KCAL/MOL
REMARK 927      BINDING AFFINITY PREDICTED BY RF-SCORE:    0.00 PKD
ROOT
HETATM    1  C   UNL     1      -7.577  12.866  67.531  1.00  0.00    -0.164 C  
HETATM    2  C   UNL     1      -9.042  12.612  67.558  1.00  0.00    -0.192 A  
HETATM    3  C   UNL     1     -10.095  13.427  67.135  1.00  0.00    -0.240 A  
HETATM    4  S   UNL     1     -11.581  12.617  67.508  1.00  0.00    -0.368 SA 
HETATM    5  N   UNL     1      -9.417  11.372  68.064  1.00  0.00    -0.174 NA 
HETATM    6  C   UNL     1     -10.714  11.263  68.065  1.00  0.00    -0.203 A  
ENDROOT
BRANCH   3   7
HETATM    7  C   UNL     1     -10.128  14.767  66.512  1.00  0.00    -0.281 A  
HETATM    8  C   UNL     1      -9.610  17.154  66.526  1.00  0.00    -0.279 A  
HETATM    9  C   UNL     1     -10.781  16.238  64.745  1.00  0.00    -0.126 A  
HETATM   10  C   UNL     1      -9.555  15.892  67.137  1.00  0.00    -0.224 A  
HETATM   11  N   UNL     1     -10.239  17.320  65.339  1.00  0.00    -0.588 NA 
HETATM   12  C   UNL     1     -10.740  14.963  65.277  1.00  0.00    -0.409 A  
BRANCH   8  13
HETATM   13  C   UNL     1      -9.021  18.408  67.187  1.00  0.00    -0.268 C  
HETATM   14  F   UNL     1     -10.178  20.511  67.290  1.00  0.00    -0.552 F  
HETATM   15  C   UNL     1      -7.974  18.029  68.267  1.00  0.00    -0.294 C  
HETATM   16  C   UNL     1      -8.264  19.223  66.115  1.00  0.00    -0.291 C  
HETATM   17  F   UNL     1      -9.894  19.470  69.174  1.00  0.00    -0.449 F  
HETATM   18  F   UNL     1     -11.359  18.752  67.744  1.00  0.00    -0.289 F  
HETATM   19  C   UNL     1     -10.116  19.276  67.851  1.00  0.00    -0.395 C  
ENDBRANCH   8  13
ENDBRANCH   3   7
BRANCH   6  20
HETATM   20  N   UNL     1     -11.511  10.221  68.446  1.00  0.00    -0.523 N  
HETATM   21  H   UNL     1     -12.183   9.854  67.772  1.00  0.00     0.000 HD 
BRANCH  20  22
HETATM   22  C   UNL     1     -11.457   9.640  69.688  1.00  0.00    -0.001 C  
HETATM   23  O   UNL     1     -11.953  10.096  70.715  1.00  0.00    -0.297 OA 
BRANCH  22  24
HETATM   24  N   UNL     1     -10.764   8.437  69.722  1.00  0.00    -0.228 N  
HETATM   25  C   UNL     1     -10.707   7.556  68.569  1.00  0.00    -0.073 C  
HETATM   26  C   UNL     1     -10.659   6.168  69.180  1.00  0.00    -0.345 C  
HETATM   27  C   UNL     1      -9.886   6.356  70.482  1.00  0.00    -0.207 C  
HETATM   28  C   UNL     1     -10.112   7.816  70.881  1.00  0.00    -0.187 C  
BRANCH  28  29
HETATM   29  C   UNL     1      -8.771   8.505  71.192  1.00  0.00    -0.174 C  
HETATM   30  N   UNL     1      -7.668   8.007  70.557  1.00  0.00    -0.083 N  
HETATM   31  O   UNL     1      -8.661   9.371  72.056  1.00  0.00    -0.079 OA 
HETATM   32  H1  UNL     1      -6.780   8.464  70.763  1.00  0.00     0.000 HD 
HETATM   33  H2  UNL     1      -7.731   7.221  69.911  1.00  0.00     0.000 HD 
ENDBRANCH  28  29
ENDBRANCH  22  24
ENDBRANCH  20  22
ENDBRANCH   6  20
TORSDOF 6
ENDMDL
MODEL      109
REMARK 921   NORMALIZED FREE ENERGY PREDICTED BY IDOCK:   -6.03 KCAL/MOL
REMARK 922        TOTAL FREE ENERGY PREDICTED BY IDOCK:   -9.23 KCAL/MOL
REMARK 923 INTER-LIGAND FREE ENERGY PREDICTED BY IDOCK:   -8.71 KCAL/MOL
REMARK 924 INTRA-LIGAND FREE ENERGY PREDICTED BY IDOCK:   -0.53 KCAL/MOL
REMARK 927      BINDING AFFINITY PREDICTED BY RF-SCORE:    0.00 PKD
ROOT
HETATM    1  C   UNL     1     -12.810  11.190  71.622  1.00  0.00    -0.524 C  
HETATM    2  C   UNL     1     -11.788  10.943  70.571  1.00  0.00    -0.360 A  
HETATM    3  C   UNL     1     -10.956   9.836  70.381  1.00  0.00    -0.312 A  
HETATM    4  S   UNL     1      -9.916  10.175  69.036  1.00  0.00    -0.221 SA 
HETATM    5  N   UNL     1     -11.652  11.956  69.629  1.00  0.00    -0.316 NA 
HETATM    6  C   UNL     1     -10.719  11.651  68.774  1.00  0.00    -0.219 A  
ENDROOT
BRANCH   3   7
HETATM    7  C   UNL     1     -10.818   8.558  71.110  1.00  0.00    -0.298 A  
HETATM    8  C   UNL     1     -10.023   6.254  71.273  1.00  0.00    -0.180 A  
HETATM    9  C   UNL     1     -11.259   7.173  73.008  1.00  0.00    -0.239 A  
HETATM   10  C   UNL     1     -10.129   7.458  70.562  1.00  0.00    -0.192 A  
HETATM   11  N   UNL     1     -10.605   6.116  72.488  1.00  0.00    -0.204 NA 
HETATM   12  C   UNL     1     -11.379   8.397  72.375  1.00  0.00    -0.448 A  
BRANCH   8  13
HETATM   13  C   UNL     1      -9.303   5.026  70.699  1.00  0.00    -0.216 C  
HETATM   14  F   UNL     1      -7.128   5.128  69.684  1.00  0.00    -0.049 F  
HETATM   15  C   UNL     1      -9.799   3.723  71.377  1.00  0.00    -0.226 C  
HETATM   16  C   UNL     1      -9.662   4.900  69.201  1.00  0.00    -0.252 C  
HETATM   17  F   UNL     1      -7.264   4.075  71.577  1.00  0.00    -0.040 F  
HETATM   18  F   UNL     1      -7.371   6.240  71.527  1.00  0.00    -0.080 F  
HETATM   19  C   UNL     1      -7.770   5.121  70.880  1.00  0.00    -0.088 C  
ENDBRANCH   8  13
ENDBRANCH   3   7
BRANCH   6  20
HETATM   20  N   UNL     1     -10.270  12.332  67.678  1.00  0.00    -0.200 N  
HETATM   21  H   UNL     1      -9.319  12.155  67.355  1.00  0.00     0.000 HD 
BRANCH  20  22
HETATM   22  C   UNL     1     -11.031  13.242  66.988  1.00  0.00    -0.276 C  
HETATM   23  O   UNL     1     -12.227  13.131  66.736  1.00  0.00    -0.354 OA 
BRANCH  22  24
HETATM   24  N   UNL     1     -10.328  14.362  66.563  1.00  0.00    -0.276 N  
HETATM   25  C   UNL     1      -8.881  14.441  66.667  1.00  0.00    -0.159 C  
HETATM   26  C   UNL     1      -8.620  15.914  66.924  1.00  0.00    -0.274 C  
HETATM   27  C   UNL     1      -9.726  16.633  66.157  1.00  0.00    -0.329 C  
HETATM   28  C   UNL     1     -10.883  15.632  66.081  1.00  0.00    -0.264 C  
BRANCH  28  29
HETATM   29  C   UNL     1     -11.387  15.498  64.633  1.00  0.00    -0.357 C  
HETATM   30  N   UNL     1     -11.367  14.241  64.095  1.00  0.00    -0.608 N  
HETATM   31  O   UNL     1     -11.674  16.472  63.943  1.00  0.00    -1.148 OA 
HETATM   32  H1  UNL     1     -11.701  14.152  63.135  1.00  0.00     0.000 HD 
HETATM   33  H2  UNL     1     -11.035  13.436  64.625  1.00  0.00     0.000 HD 
ENDBRANCH  28  29
ENDBRANCH  22  24
ENDBRANCH  20  22
ENDBRANCH   6  20
TORSDOF 6
ENDMDL
MODEL      110
REMARK 921   NORMALIZED FREE ENERGY PREDICTED BY IDOCK:   -6.02 KCAL/MOL
REMARK 922        TOTAL FREE ENERGY PREDICTED BY IDOCK:   -9.22 KCAL/MOL
REMARK 923 INTER-LIGAND FREE ENERGY PREDICTED BY IDOCK:   -8.31 KCAL/MOL
REMARK 924 INTRA-LIGAND FREE ENERGY PREDICTED BY IDOCK:   -0.91 KCAL/MOL
REMARK 927      BINDING AFFINITY PREDICTED BY RF-SCORE:    0.00 PKD
ROOT
HETATM    1  C   UNL     1     -14.256   8.895  72.143  1.00  0.00    -0.463 C  
HETATM    2  C   UNL     1     -12.829   8.910  71.725  1.00  0.00    -0.365 A  
HETATM    3  C   UNL     1     -12.053   9.968  71.245  1.00  0.00    -0.394 A  
HETATM    4  S   UNL     1     -10.487   9.343  70.843  1.00  0.00    -0.316 SA 
HETATM    5  N   UNL     1     -12.165   7.695  71.847  1.00  0.00    -0.296 NA 
HETATM    6  C   UNL     1     -10.937   7.812  71.434  1.00  0.00    -0.235 A  
ENDROOT
BRANCH   3   7
HETATM    7  C   UNL     1     -12.353  11.397  71.013  1.00  0.00    -0.448 A  
HETATM    8  C   UNL     1     -12.034  13.487  69.790  1.00  0.00    -0.340 A  
HETATM    9  C   UNL     1     -13.485  13.419  71.599  1.00  0.00    -0.299 A  
HETATM   10  C   UNL     1     -11.737  12.129  69.980  1.00  0.00    -0.330 A  
HETATM   11  N   UNL     1     -12.896  14.127  70.614  1.00  0.00    -0.322 NA 
HETATM   12  C   UNL     1     -13.260  12.074  71.825  1.00  0.00    -0.421 A  
BRANCH   8  13
HETATM   13  C   UNL     1     -11.363  14.324  68.692  1.00  0.00    -0.302 C  
HETATM   14  F   UNL     1     -10.519  13.386  66.648  1.00  0.00    -0.268 F  
HETATM   15  C   UNL     1     -11.841  15.799  68.746  1.00  0.00    -0.321 C  
HETATM   16  C   UNL     1      -9.840  14.352  68.952  1.00  0.00    -0.164 C  
HETATM   17  F   UNL     1     -12.256  14.677  66.475  1.00  0.00    -0.391 F  
HETATM   18  F   UNL     1     -12.464  12.677  67.289  1.00  0.00    -0.226 F  
HETATM   19  C   UNL     1     -11.659  13.765  67.281  1.00  0.00    -0.361 C  
ENDBRANCH   8  13
ENDBRANCH   3   7
BRANCH   6  20
HETATM   20  N   UNL     1      -9.926   6.892  71.397  1.00  0.00    -0.182 N  
HETATM   21  H   UNL     1      -9.914   6.159  72.106  1.00  0.00     0.000 HD 
BRANCH  20  22
HETATM   22  C   UNL     1      -8.928   6.903  70.456  1.00  0.00    -0.155 C  
HETATM   23  O   UNL     1      -7.753   7.196  70.661  1.00  0.00    -0.091 OA 
BRANCH  22  24
HETATM   24  N   UNL     1      -9.346   6.544  69.181  1.00  0.00    -0.134 N  
HETATM   25  C   UNL     1      -8.974   7.318  68.009  1.00  0.00    -0.131 C  
HETATM   26  C   UNL     1     -10.172   7.176  67.091  1.00  0.00    -0.327 C  
HETATM   27  C   UNL     1     -10.708   5.777  67.382  1.00  0.00    -0.332 C  
HETATM   28  C   UNL     1     -10.275   5.469  68.818  1.00  0.00    -0.199 C  
BRANCH  28  29
HETATM   29  C   UNL     1      -9.583   4.095  68.890  1.00  0.00    -0.152 C  
HETATM   30  N   UNL     1      -9.256   3.514  67.697  1.00  0.00    -0.172 N  
HETATM   31  O   UNL     1      -9.440   3.486  69.946  1.00  0.00    -0.174 OA 
HETATM   32  H1  UNL     1      -8.798   2.604  67.745  1.00  0.00     0.000 HD 
HETATM   33  H2  UNL     1      -9.461   3.966  66.806  1.00  0.00     0.000 HD 
ENDBRANCH  28  29
ENDBRANCH  22  24
ENDBRANCH  20  22
ENDBRANCH   6  20
TORSDOF 6
ENDMDL
MODEL      111
REMARK 921   NORMALIZED FREE ENERGY PREDICTED BY IDOCK:   -6.01 KCAL/MOL
REMARK 922        TOTAL FREE ENERGY PREDICTED BY IDOCK:   -9.22 KCAL/MOL
REMARK 923 INTER-LIGAND FREE ENERGY PREDICTED BY IDOCK:   -8.70 KCAL/MOL
REMARK 924 INTRA-LIGAND FREE ENERGY PREDICTED BY IDOCK:   -0.52 KCAL/MOL
REMARK 927      BINDING AFFINITY PREDICTED BY RF-SCORE:    0.00 PKD
ROOT
HETATM    1  C   UNL     1      -7.840  11.019  69.144  1.00  0.00    -0.092 C  
HETATM    2  C   UNL     1      -9.066  11.472  68.435  1.00  0.00    -0.185 A  
HETATM    3  C   UNL     1     -10.409  11.231  68.736  1.00  0.00    -0.205 A  
HETATM    4  S   UNL     1     -11.374  11.948  67.487  1.00  0.00    -0.321 SA 
HETATM    5  N   UNL     1      -8.842  12.265  67.316  1.00  0.00    -0.182 NA 
HETATM    6  C   UNL     1      -9.974  12.584  66.759  1.00  0.00    -0.228 A  
ENDROOT
BRANCH   3   7
HETATM    7  C   UNL     1     -11.066  10.493  69.836  1.00  0.00    -0.371 A  
HETATM    8  C   UNL     1     -11.297   8.524  71.262  1.00  0.00    -0.271 A  
HETATM    9  C   UNL     1     -12.745  10.316  71.527  1.00  0.00    -0.452 A  
HETATM   10  C   UNL     1     -10.649   9.204  70.221  1.00  0.00    -0.261 A  
HETATM   11  N   UNL     1     -12.354   9.081  71.898  1.00  0.00    -0.359 NA 
HETATM   12  C   UNL     1     -12.136  11.054  70.530  1.00  0.00    -0.470 A  
BRANCH   8  13
HETATM   13  C   UNL     1     -10.889   7.108  71.692  1.00  0.00    -0.250 C  
HETATM   14  F   UNL     1      -8.734   6.580  72.615  1.00  0.00    -0.125 F  
HETATM   15  C   UNL     1     -12.133   6.255  72.051  1.00  0.00    -0.321 C  
HETATM   16  C   UNL     1     -10.210   6.404  70.495  1.00  0.00    -0.230 C  
HETATM   17  F   UNL     1     -10.428   6.425  73.963  1.00  0.00    -0.257 F  
HETATM   18  F   UNL     1      -9.682   8.375  73.375  1.00  0.00    -0.304 F  
HETATM   19  C   UNL     1      -9.940   7.129  72.913  1.00  0.00    -0.197 C  
ENDBRANCH   8  13
ENDBRANCH   3   7
BRANCH   6  20
HETATM   20  N   UNL     1     -10.231  13.362  65.664  1.00  0.00    -0.290 N  
HETATM   21  H   UNL     1      -9.788  13.113  64.780  1.00  0.00     0.000 HD 
BRANCH  20  22
HETATM   22  C   UNL     1     -11.053  14.459  65.692  1.00  0.00    -0.321 C  
HETATM   23  O   UNL     1     -11.984  14.678  64.921  1.00  0.00    -0.394 OA 
BRANCH  22  24
HETATM   24  N   UNL     1     -10.755  15.366  66.701  1.00  0.00    -0.308 N  
HETATM   25  C   UNL     1     -11.120  15.117  68.085  1.00  0.00    -0.304 C  
HETATM   26  C   UNL     1     -11.409  16.501  68.635  1.00  0.00    -0.237 C  
HETATM   27  C   UNL     1     -10.447  17.415  67.880  1.00  0.00    -0.383 C  
HETATM   28  C   UNL     1     -10.170  16.703  66.553  1.00  0.00    -0.310 C  
BRANCH  28  29
HETATM   29  C   UNL     1      -8.655  16.615  66.294  1.00  0.00    -0.324 C  
HETATM   30  N   UNL     1      -7.986  15.605  66.927  1.00  0.00    -0.239 N  
HETATM   31  O   UNL     1      -8.045  17.471  65.659  1.00  0.00    -0.508 OA 
HETATM   32  H1  UNL     1      -6.983  15.547  66.755  1.00  0.00     0.000 HD 
HETATM   33  H2  UNL     1      -8.466  14.945  67.538  1.00  0.00     0.000 HD 
ENDBRANCH  28  29
ENDBRANCH  22  24
ENDBRANCH  20  22
ENDBRANCH   6  20
TORSDOF 6
ENDMDL
MODEL      112
REMARK 921   NORMALIZED FREE ENERGY PREDICTED BY IDOCK:   -6.01 KCAL/MOL
REMARK 922        TOTAL FREE ENERGY PREDICTED BY IDOCK:   -9.21 KCAL/MOL
REMARK 923 INTER-LIGAND FREE ENERGY PREDICTED BY IDOCK:   -8.14 KCAL/MOL
REMARK 924 INTRA-LIGAND FREE ENERGY PREDICTED BY IDOCK:   -1.08 KCAL/MOL
REMARK 927      BINDING AFFINITY PREDICTED BY RF-SCORE:    0.00 PKD
ROOT
HETATM    1  C   UNL     1      -6.408  12.684  67.803  1.00  0.00    -0.130 C  
HETATM    2  C   UNL     1      -7.864  12.833  68.067  1.00  0.00    -0.150 A  
HETATM    3  C   UNL     1      -8.613  13.989  68.301  1.00  0.00    -0.180 A  
HETATM    4  S   UNL     1     -10.245  13.511  68.630  1.00  0.00    -0.140 SA 
HETATM    5  N   UNL     1      -8.589  11.647  68.062  1.00  0.00    -0.146 NA 
HETATM    6  C   UNL     1      -9.841  11.887  68.325  1.00  0.00    -0.199 A  
ENDROOT
BRANCH   3   7
HETATM    7  C   UNL     1      -8.246  15.421  68.344  1.00  0.00    -0.142 A  
HETATM    8  C   UNL     1      -8.588  17.746  67.679  1.00  0.00    -0.230 A  
HETATM    9  C   UNL     1      -6.826  17.196  69.083  1.00  0.00    -0.236 A  
HETATM   10  C   UNL     1      -8.966  16.396  67.627  1.00  0.00    -0.198 A  
HETATM   11  N   UNL     1      -7.507  18.134  68.396  1.00  0.00    -0.271 NA 
HETATM   12  C   UNL     1      -7.158  15.854  69.099  1.00  0.00    -0.185 A  
BRANCH   8  13
HETATM   13  C   UNL     1      -9.332  18.833  66.891  1.00  0.00    -0.314 C  
HETATM   14  F   UNL     1     -11.446  19.746  67.576  1.00  0.00    -0.371 F  
HETATM   15  C   UNL     1      -8.346  19.676  66.039  1.00  0.00    -0.294 C  
HETATM   16  C   UNL     1     -10.293  18.150  65.893  1.00  0.00    -0.284 C  
HETATM   17  F   UNL     1      -9.739  21.083  67.674  1.00  0.00    -0.551 F  
HETATM   18  F   UNL     1      -9.965  19.498  69.138  1.00  0.00    -0.464 F  
HETATM   19  C   UNL     1     -10.112  19.788  67.825  1.00  0.00    -0.419 C  
ENDBRANCH   8  13
ENDBRANCH   3   7
BRANCH   6  20
HETATM   20  N   UNL     1     -10.906  11.034  68.398  1.00  0.00    -0.203 N  
HETATM   21  H   UNL     1     -11.844  11.422  68.292  1.00  0.00     0.000 HD 
BRANCH  20  22
HETATM   22  C   UNL     1     -10.782   9.684  68.605  1.00  0.00    -0.201 C  
HETATM   23  O   UNL     1     -10.796   8.820  67.733  1.00  0.00    -0.167 OA 
BRANCH  22  24
HETATM   24  N   UNL     1     -10.633   9.326  69.939  1.00  0.00    -0.217 N  
HETATM   25  C   UNL     1      -9.323   9.116  70.532  1.00  0.00    -0.240 C  
HETATM   26  C   UNL     1      -9.565   8.026  71.559  1.00  0.00    -0.209 C  
HETATM   27  C   UNL     1     -10.987   8.281  72.052  1.00  0.00    -0.374 C  
HETATM   28  C   UNL     1     -11.693   8.996  70.897  1.00  0.00    -0.276 C  
BRANCH  28  29
HETATM   29  C   UNL     1     -12.397  10.270  71.400  1.00  0.00    -0.401 C  
HETATM   30  N   UNL     1     -13.431  10.089  72.275  1.00  0.00    -0.596 N  
HETATM   31  O   UNL     1     -12.139  11.384  70.953  1.00  0.00    -0.351 OA 
HETATM   32  H1  UNL     1     -13.897  10.933  72.608  1.00  0.00     0.000 HD 
HETATM   33  H2  UNL     1     -13.721   9.160  72.578  1.00  0.00     0.000 HD 
ENDBRANCH  28  29
ENDBRANCH  22  24
ENDBRANCH  20  22
ENDBRANCH   6  20
TORSDOF 6
ENDMDL
MODEL      113
REMARK 921   NORMALIZED FREE ENERGY PREDICTED BY IDOCK:   -6.00 KCAL/MOL
REMARK 922        TOTAL FREE ENERGY PREDICTED BY IDOCK:   -9.20 KCAL/MOL
REMARK 923 INTER-LIGAND FREE ENERGY PREDICTED BY IDOCK:   -8.12 KCAL/MOL
REMARK 924 INTRA-LIGAND FREE ENERGY PREDICTED BY IDOCK:   -1.09 KCAL/MOL
REMARK 927      BINDING AFFINITY PREDICTED BY RF-SCORE:    0.00 PKD
ROOT
HETATM    1  C   UNL     1      -6.358   8.993  68.582  1.00  0.00    -0.053 C  
HETATM    2  C   UNL     1      -7.550   9.411  67.797  1.00  0.00    -0.088 A  
HETATM    3  C   UNL     1      -8.798   8.794  67.677  1.00  0.00    -0.135 A  
HETATM    4  S   UNL     1      -9.741   9.712  66.549  1.00  0.00    -0.230 SA 
HETATM    5  N   UNL     1      -7.406  10.601  67.093  1.00  0.00    -0.095 NA 
HETATM    6  C   UNL     1      -8.492  10.860  66.425  1.00  0.00    -0.163 A  
ENDROOT
BRANCH   3   7
HETATM    7  C   UNL     1      -9.365   7.569  68.280  1.00  0.00    -0.141 A  
HETATM    8  C   UNL     1     -10.092   6.268  70.215  1.00  0.00    -0.184 A  
HETATM    9  C   UNL     1     -10.213   5.342  68.092  1.00  0.00    -0.165 A  
HETATM   10  C   UNL     1      -9.561   7.446  69.670  1.00  0.00    -0.156 A  
HETATM   11  N   UNL     1     -10.399   5.216  69.421  1.00  0.00    -0.226 NA 
HETATM   12  C   UNL     1      -9.720   6.482  67.485  1.00  0.00    -0.141 A  
BRANCH   8  13
HETATM   13  C   UNL     1     -10.296   6.087  71.726  1.00  0.00    -0.259 C  
HETATM   14  F   UNL     1     -11.629   7.572  73.065  1.00  0.00    -0.337 F  
HETATM   15  C   UNL     1     -10.110   4.604  72.139  1.00  0.00    -0.256 C  
HETATM   16  C   UNL     1      -9.203   6.886  72.471  1.00  0.00    -0.149 C  
HETATM   17  F   UNL     1     -12.401   5.562  72.790  1.00  0.00    -0.300 F  
HETATM   18  F   UNL     1     -12.477   6.988  71.158  1.00  0.00    -0.365 F  
HETATM   19  C   UNL     1     -11.703   6.548  72.176  1.00  0.00    -0.311 C  
ENDBRANCH   8  13
ENDBRANCH   3   7
BRANCH   6  20
HETATM   20  N   UNL     1      -8.804  11.924  65.626  1.00  0.00    -0.406 N  
HETATM   21  H   UNL     1      -8.632  11.842  64.624  1.00  0.00     0.000 HD 
BRANCH  20  22
HETATM   22  C   UNL     1      -9.334  13.097  66.100  1.00  0.00    -0.072 C  
HETATM   23  O   UNL     1      -8.786  13.867  66.884  1.00  0.00    -0.231 OA 
BRANCH  22  24
HETATM   24  N   UNL     1     -10.605  13.381  65.616  1.00  0.00    -0.277 N  
HETATM   25  C   UNL     1     -11.781  12.679  66.099  1.00  0.00    -0.406 C  
HETATM   26  C   UNL     1     -12.688  12.620  64.885  1.00  0.00    -0.450 C  
HETATM   27  C   UNL     1     -12.390  13.911  64.128  1.00  0.00    -0.380 C  
HETATM   28  C   UNL     1     -10.958  14.288  64.518  1.00  0.00    -0.298 C  
BRANCH  28  29
HETATM   29  C   UNL     1     -10.890  15.756  64.973  1.00  0.00    -0.443 C  
HETATM   30  N   UNL     1     -10.577  15.973  66.286  1.00  0.00    -0.304 N  
HETATM   31  O   UNL     1     -11.221  16.687  64.244  1.00  0.00    -1.098 OA 
HETATM   32  H1  UNL     1     -10.532  16.947  66.588  1.00  0.00     0.000 HD 
HETATM   33  H2  UNL     1     -10.397  15.202  66.929  1.00  0.00     0.000 HD 
ENDBRANCH  28  29
ENDBRANCH  22  24
ENDBRANCH  20  22
ENDBRANCH   6  20
TORSDOF 6
ENDMDL
MODEL      114
REMARK 921   NORMALIZED FREE ENERGY PREDICTED BY IDOCK:   -5.99 KCAL/MOL
REMARK 922        TOTAL FREE ENERGY PREDICTED BY IDOCK:   -9.18 KCAL/MOL
REMARK 923 INTER-LIGAND FREE ENERGY PREDICTED BY IDOCK:   -9.26 KCAL/MOL
REMARK 924 INTRA-LIGAND FREE ENERGY PREDICTED BY IDOCK:    0.08 KCAL/MOL
REMARK 927      BINDING AFFINITY PREDICTED BY RF-SCORE:    0.00 PKD
ROOT
HETATM    1  C   UNL     1     -11.986  12.387  65.737  1.00  0.00    -0.437 C  
HETATM    2  C   UNL     1     -11.112  13.328  66.486  1.00  0.00    -0.294 A  
HETATM    3  C   UNL     1     -10.814  13.372  67.851  1.00  0.00    -0.247 A  
HETATM    4  S   UNL     1      -9.806  14.754  68.133  1.00  0.00    -0.226 SA 
HETATM    5  N   UNL     1     -10.486  14.297  65.711  1.00  0.00    -0.302 NA 
HETATM    6  C   UNL     1      -9.769  15.079  66.464  1.00  0.00    -0.266 A  
ENDROOT
BRANCH   3   7
HETATM    7  C   UNL     1     -11.223  12.519  68.987  1.00  0.00    -0.321 A  
HETATM    8  C   UNL     1     -11.188  10.401  70.202  1.00  0.00    -0.321 A  
HETATM    9  C   UNL     1     -12.469  12.165  70.996  1.00  0.00    -0.269 A  
HETATM   10  C   UNL     1     -10.775  11.190  69.119  1.00  0.00    -0.262 A  
HETATM   11  N   UNL     1     -12.047  10.891  71.126  1.00  0.00    -0.317 NA 
HETATM   12  C   UNL     1     -12.081  13.007  69.970  1.00  0.00    -0.367 A  
BRANCH   8  13
HETATM   13  C   UNL     1     -10.742   8.941  70.367  1.00  0.00    -0.261 C  
HETATM   14  F   UNL     1     -11.421   7.554  72.207  1.00  0.00    -0.265 F  
HETATM   15  C   UNL     1     -10.378   8.313  68.996  1.00  0.00    -0.233 C  
HETATM   16  C   UNL     1      -9.451   8.911  71.215  1.00  0.00    -0.343 C  
HETATM   17  F   UNL     1     -12.206   7.022  70.255  1.00  0.00    -0.304 F  
HETATM   18  F   UNL     1     -12.976   8.760  71.299  1.00  0.00    -0.322 F  
HETATM   19  C   UNL     1     -11.842   8.076  71.026  1.00  0.00    -0.263 C  
ENDBRANCH   8  13
ENDBRANCH   3   7
BRANCH   6  20
HETATM   20  N   UNL     1      -8.972  16.139  66.130  1.00  0.00    -0.331 N  
HETATM   21  H   UNL     1      -8.777  16.304  65.143  1.00  0.00     0.000 HD 
BRANCH  20  22
HETATM   22  C   UNL     1      -8.422  16.992  67.052  1.00  0.00    -0.210 C  
HETATM   23  O   UNL     1      -7.420  16.770  67.726  1.00  0.00    -0.156 OA 
BRANCH  22  24
HETATM   24  N   UNL     1      -9.105  18.193  67.192  1.00  0.00    -0.252 N  
HETATM   25  C   UNL     1     -10.345  18.284  67.945  1.00  0.00    -0.399 C  
HETATM   26  C   UNL     1     -11.130  19.357  67.215  1.00  0.00    -0.293 C  
HETATM   27  C   UNL     1     -10.064  20.319  66.697  1.00  0.00    -0.538 C  
HETATM   28  C   UNL     1      -8.795  19.475  66.550  1.00  0.00    -0.357 C  
BRANCH  28  29
HETATM   29  C   UNL     1      -7.605  20.164  67.243  1.00  0.00    -0.298 C  
HETATM   30  N   UNL     1      -6.902  21.066  66.493  1.00  0.00    -0.503 N  
HETATM   31  O   UNL     1      -7.218  19.840  68.362  1.00  0.00    -0.302 OA 
HETATM   32  H1  UNL     1      -6.114  21.522  66.953  1.00  0.00     0.000 HD 
HETATM   33  H2  UNL     1      -7.154  21.271  65.527  1.00  0.00     0.000 HD 
ENDBRANCH  28  29
ENDBRANCH  22  24
ENDBRANCH  20  22
ENDBRANCH   6  20
TORSDOF 6
ENDMDL
MODEL      115
REMARK 921   NORMALIZED FREE ENERGY PREDICTED BY IDOCK:   -5.98 KCAL/MOL
REMARK 922        TOTAL FREE ENERGY PREDICTED BY IDOCK:   -9.17 KCAL/MOL
REMARK 923 INTER-LIGAND FREE ENERGY PREDICTED BY IDOCK:   -8.16 KCAL/MOL
REMARK 924 INTRA-LIGAND FREE ENERGY PREDICTED BY IDOCK:   -1.01 KCAL/MOL
REMARK 927      BINDING AFFINITY PREDICTED BY RF-SCORE:    0.00 PKD
ROOT
HETATM    1  C   UNL     1     -12.728  10.904  70.972  1.00  0.00    -0.505 C  
HETATM    2  C   UNL     1     -11.923  11.714  70.019  1.00  0.00    -0.351 A  
HETATM    3  C   UNL     1     -11.047  11.296  69.014  1.00  0.00    -0.244 A  
HETATM    4  S   UNL     1     -10.340  12.709  68.301  1.00  0.00    -0.244 SA 
HETATM    5  N   UNL     1     -12.079  13.090  70.137  1.00  0.00    -0.338 NA 
HETATM    6  C   UNL     1     -11.316  13.702  69.278  1.00  0.00    -0.269 A  
ENDROOT
BRANCH   3   7
HETATM    7  C   UNL     1     -10.643   9.956  68.540  1.00  0.00    -0.248 A  
HETATM    8  C   UNL     1      -9.850   7.682  68.950  1.00  0.00    -0.164 A  
HETATM    9  C   UNL     1     -10.224   8.398  66.776  1.00  0.00    -0.306 A  
HETATM   10  C   UNL     1     -10.238   8.942  69.430  1.00  0.00    -0.210 A  
HETATM   11  N   UNL     1      -9.830   7.425  67.622  1.00  0.00    -0.146 NA 
HETATM   12  C   UNL     1     -10.643   9.652  67.180  1.00  0.00    -0.298 A  
BRANCH   8  13
HETATM   13  C   UNL     1      -9.377   6.562  69.887  1.00  0.00    -0.155 C  
HETATM   14  F   UNL     1     -10.757   5.613  71.610  1.00  0.00    -0.274 F  
HETATM   15  C   UNL     1      -8.248   5.726  69.229  1.00  0.00    -0.105 C  
HETATM   16  C   UNL     1      -8.763   7.202  71.152  1.00  0.00    -0.133 C  
HETATM   17  F   UNL     1     -10.277   4.320  69.934  1.00  0.00    -0.298 F  
HETATM   18  F   UNL     1     -11.712   5.927  69.691  1.00  0.00    -0.413 F  
HETATM   19  C   UNL     1     -10.532   5.608  70.271  1.00  0.00    -0.293 C  
ENDBRANCH   8  13
ENDBRANCH   3   7
BRANCH   6  20
HETATM   20  N   UNL     1     -11.166  15.037  69.025  1.00  0.00    -0.253 N  
HETATM   21  H   UNL     1     -11.439  15.700  69.751  1.00  0.00     0.000 HD 
BRANCH  20  22
HETATM   22  C   UNL     1     -10.669  15.532  67.846  1.00  0.00    -0.294 C  
HETATM   23  O   UNL     1     -11.165  15.370  66.734  1.00  0.00    -0.298 OA 
BRANCH  22  24
HETATM   24  N   UNL     1      -9.501  16.270  67.989  1.00  0.00    -0.221 N  
HETATM   25  C   UNL     1      -8.244  15.645  68.363  1.00  0.00    -0.146 C  
HETATM   26  C   UNL     1      -7.543  16.712  69.182  1.00  0.00    -0.192 C  
HETATM   27  C   UNL     1      -7.993  18.027  68.552  1.00  0.00    -0.310 C  
HETATM   28  C   UNL     1      -9.353  17.728  67.917  1.00  0.00    -0.266 C  
BRANCH  28  29
HETATM   29  C   UNL     1      -9.385  18.212  66.456  1.00  0.00    -0.295 C  
HETATM   30  N   UNL     1     -10.617  18.502  65.937  1.00  0.00    -0.410 N  
HETATM   31  O   UNL     1      -8.385  18.222  65.743  1.00  0.00    -0.489 OA 
HETATM   32  H1  UNL     1     -10.638  18.823  64.969  1.00  0.00     0.000 HD 
HETATM   33  H2  UNL     1     -11.468  18.402  66.489  1.00  0.00     0.000 HD 
ENDBRANCH  28  29
ENDBRANCH  22  24
ENDBRANCH  20  22
ENDBRANCH   6  20
TORSDOF 6
ENDMDL
MODEL      116
REMARK 921   NORMALIZED FREE ENERGY PREDICTED BY IDOCK:   -5.94 KCAL/MOL
REMARK 922        TOTAL FREE ENERGY PREDICTED BY IDOCK:   -9.11 KCAL/MOL
REMARK 923 INTER-LIGAND FREE ENERGY PREDICTED BY IDOCK:   -8.01 KCAL/MOL
REMARK 924 INTRA-LIGAND FREE ENERGY PREDICTED BY IDOCK:   -1.11 KCAL/MOL
REMARK 927      BINDING AFFINITY PREDICTED BY RF-SCORE:    0.00 PKD
ROOT
HETATM    1  C   UNL     1     -13.159  10.864  71.818  1.00  0.00    -0.564 C  
HETATM    2  C   UNL     1     -12.399  11.533  70.728  1.00  0.00    -0.375 A  
HETATM    3  C   UNL     1     -11.379  11.031  69.916  1.00  0.00    -0.287 A  
HETATM    4  S   UNL     1     -10.829  12.316  68.892  1.00  0.00    -0.159 SA 
HETATM    5  N   UNL     1     -12.772  12.847  70.469  1.00  0.00    -0.091 NA 
HETATM    6  C   UNL     1     -12.032  13.343  69.519  1.00  0.00    -0.319 A  
ENDROOT
BRANCH   3   7
HETATM    7  C   UNL     1     -10.734   9.703  69.835  1.00  0.00    -0.283 A  
HETATM    8  C   UNL     1      -9.766   7.719  70.881  1.00  0.00    -0.168 A  
HETATM    9  C   UNL     1      -9.801   7.903  68.569  1.00  0.00    -0.177 A  
HETATM   10  C   UNL     1     -10.387   8.973  70.989  1.00  0.00    -0.348 A  
HETATM   11  N   UNL     1      -9.462   7.201  69.669  1.00  0.00    -0.152 NA 
HETATM   12  C   UNL     1     -10.437   9.130  68.601  1.00  0.00    -0.235 A  
BRANCH   8  13
HETATM   13  C   UNL     1      -9.350   6.906  72.115  1.00  0.00    -0.147 C  
HETATM   14  F   UNL     1     -10.898   6.192  73.808  1.00  0.00    -0.256 F  
HETATM   15  C   UNL     1      -8.055   6.099  71.838  1.00  0.00    -0.107 C  
HETATM   16  C   UNL     1      -9.015   7.884  73.263  1.00  0.00    -0.326 C  
HETATM   17  F   UNL     1     -10.030   4.633  72.573  1.00  0.00    -0.177 F  
HETATM   18  F   UNL     1     -11.551   5.946  71.757  1.00  0.00    -0.329 F  
HETATM   19  C   UNL     1     -10.458   5.919  72.553  1.00  0.00    -0.204 C  
ENDBRANCH   8  13
ENDBRANCH   3   7
BRANCH   6  20
HETATM   20  N   UNL     1     -12.063  14.575  68.930  1.00  0.00    -0.523 N  
HETATM   21  H   UNL     1     -12.323  15.378  69.502  1.00  0.00     0.000 HD 
BRANCH  20  22
HETATM   22  C   UNL     1     -11.763  14.790  67.608  1.00  0.00    -0.341 C  
HETATM   23  O   UNL     1     -12.298  14.235  66.652  1.00  0.00    -0.446 OA 
BRANCH  22  24
HETATM   24  N   UNL     1     -10.757  15.724  67.400  1.00  0.00    -0.314 N  
HETATM   25  C   UNL     1     -10.858  17.082  67.906  1.00  0.00    -0.302 C  
HETATM   26  C   UNL     1     -10.129  17.909  66.865  1.00  0.00    -0.348 C  
HETATM   27  C   UNL     1      -9.026  16.986  66.354  1.00  0.00    -0.308 C  
HETATM   28  C   UNL     1      -9.549  15.565  66.582  1.00  0.00    -0.253 C  
BRANCH  28  29
HETATM   29  C   UNL     1      -8.496  14.714  67.316  1.00  0.00    -0.215 C  
HETATM   30  N   UNL     1      -7.781  15.342  68.297  1.00  0.00    -0.109 N  
HETATM   31  O   UNL     1      -8.215  13.571  66.966  1.00  0.00    -0.142 OA 
HETATM   32  H1  UNL     1      -7.084  14.778  68.782  1.00  0.00     0.000 HD 
HETATM   33  H2  UNL     1      -7.936  16.322  68.530  1.00  0.00     0.000 HD 
ENDBRANCH  28  29
ENDBRANCH  22  24
ENDBRANCH  20  22
ENDBRANCH   6  20
TORSDOF 6
ENDMDL
MODEL      117
REMARK 921   NORMALIZED FREE ENERGY PREDICTED BY IDOCK:   -5.93 KCAL/MOL
REMARK 922        TOTAL FREE ENERGY PREDICTED BY IDOCK:   -9.11 KCAL/MOL
REMARK 923 INTER-LIGAND FREE ENERGY PREDICTED BY IDOCK:   -8.36 KCAL/MOL
REMARK 924 INTRA-LIGAND FREE ENERGY PREDICTED BY IDOCK:   -0.75 KCAL/MOL
REMARK 927      BINDING AFFINITY PREDICTED BY RF-SCORE:    0.00 PKD
ROOT
HETATM    1  C   UNL     1     -12.586  13.577  65.626  1.00  0.00    -0.512 C  
HETATM    2  C   UNL     1     -11.620  12.775  66.424  1.00  0.00    -0.378 A  
HETATM    3  C   UNL     1     -11.092  13.022  67.694  1.00  0.00    -0.267 A  
HETATM    4  S   UNL     1      -9.948  11.771  68.050  1.00  0.00    -0.193 SA 
HETATM    5  N   UNL     1     -11.193  11.597  65.823  1.00  0.00    -0.275 NA 
HETATM    6  C   UNL     1     -10.336  10.988  66.591  1.00  0.00    -0.240 A  
ENDROOT
BRANCH   3   7
HETATM    7  C   UNL     1     -11.315  14.111  68.669  1.00  0.00    -0.306 A  
HETATM    8  C   UNL     1     -12.265  14.969  70.749  1.00  0.00    -0.329 A  
HETATM    9  C   UNL     1     -11.054  16.383  69.365  1.00  0.00    -0.300 A  
HETATM   10  C   UNL     1     -12.062  13.914  69.847  1.00  0.00    -0.406 A  
HETATM   11  N   UNL     1     -11.772  16.203  70.492  1.00  0.00    -0.316 NA 
HETATM   12  C   UNL     1     -10.793  15.383  68.447  1.00  0.00    -0.268 A  
BRANCH   8  13
HETATM   13  C   UNL     1     -13.095  14.800  72.029  1.00  0.00    -0.421 C  
HETATM   14  F   UNL     1     -12.145  14.165  74.143  1.00  0.00    -0.037 F  
HETATM   15  C   UNL     1     -14.390  15.651  71.969  1.00  0.00    -0.486 C  
HETATM   16  C   UNL     1     -13.548  13.327  72.134  1.00  0.00    -0.655 C  
HETATM   17  F   UNL     1     -12.911  16.191  73.997  1.00  0.00    -0.569 F  
HETATM   18  F   UNL     1     -11.051  15.658  73.017  1.00  0.00    -0.247 F  
HETATM   19  C   UNL     1     -12.298  15.210  73.290  1.00  0.00    -0.456 C  
ENDBRANCH   8  13
ENDBRANCH   3   7
BRANCH   6  20
HETATM   20  N   UNL     1      -9.685   9.799  66.417  1.00  0.00    -0.200 N  
HETATM   21  H   UNL     1      -9.958   9.209  65.630  1.00  0.00     0.000 HD 
BRANCH  20  22
HETATM   22  C   UNL     1      -8.683   9.356  67.243  1.00  0.00    -0.128 C  
HETATM   23  O   UNL     1      -7.568   9.860  67.351  1.00  0.00    -0.091 OA 
BRANCH  22  24
HETATM   24  N   UNL     1      -9.019   8.237  67.993  1.00  0.00    -0.138 N  
HETATM   25  C   UNL     1      -8.718   6.892  67.535  1.00  0.00    -0.120 C  
HETATM   26  C   UNL     1      -9.865   6.062  68.080  1.00  0.00    -0.137 C  
HETATM   27  C   UNL     1     -10.227   6.739  69.399  1.00  0.00    -0.204 C  
HETATM   28  C   UNL     1      -9.796   8.199  69.237  1.00  0.00    -0.182 C  
BRANCH  28  29
HETATM   29  C   UNL     1      -8.939   8.645  70.435  1.00  0.00    -0.158 C  
HETATM   30  N   UNL     1      -7.650   8.191  70.465  1.00  0.00    -0.077 N  
HETATM   31  O   UNL     1      -9.408   9.269  71.383  1.00  0.00    -0.263 OA 
HETATM   32  H1  UNL     1      -7.083   8.487  71.259  1.00  0.00     0.000 HD 
HETATM   33  H2  UNL     1      -7.277   7.588  69.732  1.00  0.00     0.000 HD 
ENDBRANCH  28  29
ENDBRANCH  22  24
ENDBRANCH  20  22
ENDBRANCH   6  20
TORSDOF 6
ENDMDL
MODEL      118
REMARK 921   NORMALIZED FREE ENERGY PREDICTED BY IDOCK:   -5.90 KCAL/MOL
REMARK 922        TOTAL FREE ENERGY PREDICTED BY IDOCK:   -9.07 KCAL/MOL
REMARK 923 INTER-LIGAND FREE ENERGY PREDICTED BY IDOCK:   -7.59 KCAL/MOL
REMARK 924 INTRA-LIGAND FREE ENERGY PREDICTED BY IDOCK:   -1.47 KCAL/MOL
REMARK 927      BINDING AFFINITY PREDICTED BY RF-SCORE:    0.00 PKD
ROOT
HETATM    1  C   UNL     1      -8.531   6.524  65.400  1.00  0.00    -0.119 C  
HETATM    2  C   UNL     1      -8.602   7.900  65.960  1.00  0.00    -0.150 A  
HETATM    3  C   UNL     1      -8.625   8.319  67.293  1.00  0.00    -0.124 A  
HETATM    4  S   UNL     1      -8.804  10.042  67.309  1.00  0.00    -0.134 SA 
HETATM    5  N   UNL     1      -8.631   8.921  65.017  1.00  0.00    -0.176 NA 
HETATM    6  C   UNL     1      -8.718  10.076  65.610  1.00  0.00    -0.155 A  
ENDROOT
BRANCH   3   7
HETATM    7  C   UNL     1      -8.566   7.576  68.570  1.00  0.00    -0.129 A  
HETATM    8  C   UNL     1      -9.578   6.807  70.655  1.00  0.00    -0.169 A  
HETATM    9  C   UNL     1      -7.374   6.265  70.175  1.00  0.00    -0.085 A  
HETATM   10  C   UNL     1      -9.667   7.511  69.445  1.00  0.00    -0.164 A  
HETATM   11  N   UNL     1      -8.423   6.202  71.019  1.00  0.00    -0.127 NA 
HETATM   12  C   UNL     1      -7.400   6.917  68.956  1.00  0.00    -0.093 A  
BRANCH   8  13
HETATM   13  C   UNL     1     -10.748   6.735  71.647  1.00  0.00    -0.252 C  
HETATM   14  F   UNL     1     -10.581   7.443  73.937  1.00  0.00    -0.400 F  
HETATM   15  C   UNL     1     -12.109   6.773  70.905  1.00  0.00    -0.421 C  
HETATM   16  C   UNL     1     -10.691   5.376  72.380  1.00  0.00    -0.286 C  
HETATM   17  F   UNL     1     -11.844   8.644  72.642  1.00  0.00    -0.436 F  
HETATM   18  F   UNL     1      -9.685   8.758  72.466  1.00  0.00    -0.349 F  
HETATM   19  C   UNL     1     -10.712   7.899  72.664  1.00  0.00    -0.347 C  
ENDBRANCH   8  13
ENDBRANCH   3   7
BRANCH   6  20
HETATM   20  N   UNL     1      -8.749  11.338  65.085  1.00  0.00    -0.390 N  
HETATM   21  H   UNL     1      -7.934  11.936  65.217  1.00  0.00     0.000 HD 
BRANCH  20  22
HETATM   22  C   UNL     1      -9.819  11.842  64.390  1.00  0.00    -0.202 C  
HETATM   23  O   UNL     1     -10.081  11.613  63.212  1.00  0.00    -0.390 OA 
BRANCH  22  24
HETATM   24  N   UNL     1     -10.637  12.679  65.137  1.00  0.00    -0.291 N  
HETATM   25  C   UNL     1     -12.050  12.399  65.323  1.00  0.00    -0.391 C  
HETATM   26  C   UNL     1     -12.683  13.776  65.395  1.00  0.00    -0.513 C  
HETATM   27  C   UNL     1     -11.619  14.646  66.058  1.00  0.00    -0.328 C  
HETATM   28  C   UNL     1     -10.283  13.973  65.731  1.00  0.00    -0.328 C  
BRANCH  28  29
HETATM   29  C   UNL     1      -9.447  13.782  67.009  1.00  0.00    -0.255 C  
HETATM   30  N   UNL     1     -10.143  13.648  68.178  1.00  0.00    -0.239 N  
HETATM   31  O   UNL     1      -8.222  13.870  67.013  1.00  0.00    -0.154 OA 
HETATM   32  H1  UNL     1      -9.588  13.521  69.024  1.00  0.00     0.000 HD 
HETATM   33  H2  UNL     1     -11.162  13.673  68.201  1.00  0.00     0.000 HD 
ENDBRANCH  28  29
ENDBRANCH  22  24
ENDBRANCH  20  22
ENDBRANCH   6  20
TORSDOF 6
ENDMDL
MODEL      119
REMARK 921   NORMALIZED FREE ENERGY PREDICTED BY IDOCK:   -5.90 KCAL/MOL
REMARK 922        TOTAL FREE ENERGY PREDICTED BY IDOCK:   -9.06 KCAL/MOL
REMARK 923 INTER-LIGAND FREE ENERGY PREDICTED BY IDOCK:   -8.14 KCAL/MOL
REMARK 924 INTRA-LIGAND FREE ENERGY PREDICTED BY IDOCK:   -0.92 KCAL/MOL
REMARK 927      BINDING AFFINITY PREDICTED BY RF-SCORE:    0.00 PKD
ROOT
HETATM    1  C   UNL     1     -13.201  10.386  71.783  1.00  0.00    -0.529 C  
HETATM    2  C   UNL     1     -11.929  10.040  71.094  1.00  0.00    -0.392 A  
HETATM    3  C   UNL     1     -11.258  10.716  70.072  1.00  0.00    -0.309 A  
HETATM    4  S   UNL     1      -9.875   9.772  69.625  1.00  0.00    -0.234 SA 
HETATM    5  N   UNL     1     -11.309   8.882  71.547  1.00  0.00    -0.298 NA 
HETATM    6  C   UNL     1     -10.223   8.659  70.864  1.00  0.00    -0.209 A  
ENDROOT
BRANCH   3   7
HETATM    7  C   UNL     1     -11.546  11.978  69.357  1.00  0.00    -0.393 A  
HETATM    8  C   UNL     1     -11.797  13.270  67.300  1.00  0.00    -0.372 A  
HETATM    9  C   UNL     1     -12.066  14.311  69.356  1.00  0.00    -0.318 A  
HETATM   10  C   UNL     1     -11.529  12.057  67.951  1.00  0.00    -0.396 A  
HETATM   11  N   UNL     1     -12.047  14.395  68.011  1.00  0.00    -0.287 NA 
HETATM   12  C   UNL     1     -11.838  13.144  70.061  1.00  0.00    -0.360 A  
BRANCH   8  13
HETATM   13  C   UNL     1     -11.762  13.402  65.771  1.00  0.00    -0.380 C  
HETATM   14  F   UNL     1     -10.789  15.280  64.631  1.00  0.00    -0.392 F  
HETATM   15  C   UNL     1     -11.822  12.010  65.091  1.00  0.00    -0.278 C  
HETATM   16  C   UNL     1     -13.025  14.165  65.312  1.00  0.00    -0.268 C  
HETATM   17  F   UNL     1      -9.758  13.382  64.421  1.00  0.00    -0.217 F  
HETATM   18  F   UNL     1      -9.648  14.478  66.289  1.00  0.00    -0.267 F  
HETATM   19  C   UNL     1     -10.486  14.130  65.286  1.00  0.00    -0.384 C  
ENDBRANCH   8  13
ENDBRANCH   3   7
BRANCH   6  20
HETATM   20  N   UNL     1      -9.296   7.661  70.980  1.00  0.00    -0.152 N  
HETATM   21  H   UNL     1      -9.269   7.126  71.849  1.00  0.00     0.000 HD 
BRANCH  20  22
HETATM   22  C   UNL     1      -8.401   7.341  69.992  1.00  0.00    -0.137 C  
HETATM   23  O   UNL     1      -7.201   7.600  70.000  1.00  0.00    -0.068 OA 
BRANCH  22  24
HETATM   24  N   UNL     1      -8.963   6.668  68.914  1.00  0.00    -0.130 N  
HETATM   25  C   UNL     1      -8.507   6.891  67.553  1.00  0.00    -0.122 C  
HETATM   26  C   UNL     1      -9.762   6.711  66.720  1.00  0.00    -0.217 C  
HETATM   27  C   UNL     1     -10.565   5.652  67.471  1.00  0.00    -0.296 C  
HETATM   28  C   UNL     1     -10.121   5.767  68.931  1.00  0.00    -0.186 C  
BRANCH  28  29
HETATM   29  C   UNL     1      -9.734   4.386  69.489  1.00  0.00    -0.210 C  
HETATM   30  N   UNL     1      -9.697   4.267  70.850  1.00  0.00    -0.185 N  
HETATM   31  O   UNL     1      -9.355   3.467  68.768  1.00  0.00    -0.152 OA 
HETATM   32  H1  UNL     1      -9.440   3.351  71.219  1.00  0.00     0.000 HD 
HETATM   33  H2  UNL     1      -9.913   5.052  71.463  1.00  0.00     0.000 HD 
ENDBRANCH  28  29
ENDBRANCH  22  24
ENDBRANCH  20  22
ENDBRANCH   6  20
TORSDOF 6
ENDMDL
MODEL      120
REMARK 921   NORMALIZED FREE ENERGY PREDICTED BY IDOCK:   -5.87 KCAL/MOL
REMARK 922        TOTAL FREE ENERGY PREDICTED BY IDOCK:   -9.02 KCAL/MOL
REMARK 923 INTER-LIGAND FREE ENERGY PREDICTED BY IDOCK:   -8.22 KCAL/MOL
REMARK 924 INTRA-LIGAND FREE ENERGY PREDICTED BY IDOCK:   -0.81 KCAL/MOL
REMARK 927      BINDING AFFINITY PREDICTED BY RF-SCORE:    0.00 PKD
ROOT
HETATM    1  C   UNL     1     -12.154  12.284  70.015  1.00  0.00    -0.346 C  
HETATM    2  C   UNL     1     -11.677  10.883  70.166  1.00  0.00    -0.347 A  
HETATM    3  C   UNL     1     -11.108  10.029  69.218  1.00  0.00    -0.206 A  
HETATM    4  S   UNL     1     -10.843   8.492  69.974  1.00  0.00    -0.190 SA 
HETATM    5  N   UNL     1     -11.800  10.352  71.445  1.00  0.00    -0.293 NA 
HETATM    6  C   UNL     1     -11.379   9.121  71.461  1.00  0.00    -0.368 A  
ENDROOT
BRANCH   3   7
HETATM    7  C   UNL     1     -10.768  10.212  67.791  1.00  0.00    -0.328 A  
HETATM    8  C   UNL     1     -10.871  11.478  65.705  1.00  0.00    -0.252 A  
HETATM    9  C   UNL     1      -9.740   9.454  65.771  1.00  0.00    -0.284 A  
HETATM   10  C   UNL     1     -11.201  11.336  67.061  1.00  0.00    -0.324 A  
HETATM   11  N   UNL     1     -10.155  10.524  65.065  1.00  0.00    -0.316 NA 
HETATM   12  C   UNL     1     -10.005   9.263  67.114  1.00  0.00    -0.276 A  
BRANCH   8  13
HETATM   13  C   UNL     1     -11.347  12.674  64.869  1.00  0.00    -0.347 C  
HETATM   14  F   UNL     1     -11.896  14.812  65.820  1.00  0.00    -0.352 F  
HETATM   15  C   UNL     1     -10.845  12.566  63.406  1.00  0.00    -0.351 C  
HETATM   16  C   UNL     1     -12.891  12.648  64.802  1.00  0.00    -0.349 C  
HETATM   17  F   UNL     1     -10.121  14.735  64.572  1.00  0.00    -0.329 F  
HETATM   18  F   UNL     1     -10.089  13.875  66.563  1.00  0.00    -0.259 F  
HETATM   19  C   UNL     1     -10.855  14.018  65.457  1.00  0.00    -0.309 C  
ENDBRANCH   8  13
ENDBRANCH   3   7
BRANCH   6  20
HETATM   20  N   UNL     1     -11.292   8.231  72.495  1.00  0.00    -0.391 N  
HETATM   21  H   UNL     1     -10.992   8.578  73.407  1.00  0.00     0.000 HD 
BRANCH  20  22
HETATM   22  C   UNL     1     -11.587   6.897  72.373  1.00  0.00    -0.239 C  
HETATM   23  O   UNL     1     -12.649   6.432  71.968  1.00  0.00    -0.310 OA 
BRANCH  22  24
HETATM   24  N   UNL     1     -10.556   6.051  72.759  1.00  0.00    -0.213 N  
HETATM   25  C   UNL     1     -10.415   5.595  74.131  1.00  0.00    -0.258 C  
HETATM   26  C   UNL     1      -8.914   5.471  74.315  1.00  0.00    -0.121 C  
HETATM   27  C   UNL     1      -8.398   5.055  72.941  1.00  0.00    -0.108 C  
HETATM   28  C   UNL     1      -9.427   5.592  71.942  1.00  0.00    -0.151 C  
BRANCH  28  29
HETATM   29  C   UNL     1      -9.866   4.483  70.970  1.00  0.00    -0.196 C  
HETATM   30  N   UNL     1      -9.713   3.196  71.405  1.00  0.00    -0.157 N  
HETATM   31  O   UNL     1     -10.216   4.719  69.817  1.00  0.00    -0.246 OA 
HETATM   32  H1  UNL     1     -10.004   2.461  70.760  1.00  0.00     0.000 HD 
HETATM   33  H2  UNL     1      -9.329   2.982  72.325  1.00  0.00     0.000 HD 
ENDBRANCH  28  29
ENDBRANCH  22  24
ENDBRANCH  20  22
ENDBRANCH   6  20
TORSDOF 6
ENDMDL
MODEL      121
REMARK 921   NORMALIZED FREE ENERGY PREDICTED BY IDOCK:   -5.84 KCAL/MOL
REMARK 922        TOTAL FREE ENERGY PREDICTED BY IDOCK:   -8.99 KCAL/MOL
REMARK 923 INTER-LIGAND FREE ENERGY PREDICTED BY IDOCK:   -7.68 KCAL/MOL
REMARK 924 INTRA-LIGAND FREE ENERGY PREDICTED BY IDOCK:   -1.31 KCAL/MOL
REMARK 927      BINDING AFFINITY PREDICTED BY RF-SCORE:    0.00 PKD
ROOT
HETATM    1  C   UNL     1     -11.889  12.699  68.404  1.00  0.00    -0.347 C  
HETATM    2  C   UNL     1     -11.256  12.192  67.158  1.00  0.00    -0.314 A  
HETATM    3  C   UNL     1     -10.809  12.894  66.036  1.00  0.00    -0.279 A  
HETATM    4  S   UNL     1     -10.246  11.740  64.872  1.00  0.00    -0.283 SA 
HETATM    5  N   UNL     1     -11.065  10.816  67.111  1.00  0.00    -0.287 NA 
HETATM    6  C   UNL     1     -10.530  10.476  65.975  1.00  0.00    -0.156 A  
ENDROOT
BRANCH   3   7
HETATM    7  C   UNL     1     -10.784  14.336  65.710  1.00  0.00    -0.308 A  
HETATM    8  C   UNL     1     -10.067  16.627  66.161  1.00  0.00    -0.345 A  
HETATM    9  C   UNL     1     -11.467  16.189  64.364  1.00  0.00    -0.193 A  
HETATM   10  C   UNL     1     -10.064  15.263  66.489  1.00  0.00    -0.280 A  
HETATM   11  N   UNL     1     -10.784  17.082  65.107  1.00  0.00    -0.664 NA 
HETATM   12  C   UNL     1     -11.486  14.830  64.613  1.00  0.00    -0.381 A  
BRANCH   8  13
HETATM   13  C   UNL     1      -9.317  17.670  67.000  1.00  0.00    -0.258 C  
HETATM   14  F   UNL     1     -10.423  19.272  68.409  1.00  0.00    -0.436 F  
HETATM   15  C   UNL     1      -7.877  17.193  67.326  1.00  0.00    -0.200 C  
HETATM   16  C   UNL     1      -9.168  18.962  66.165  1.00  0.00    -0.188 C  
HETATM   17  F   UNL     1      -9.267  17.734  69.415  1.00  0.00    -0.064 F  
HETATM   18  F   UNL     1     -11.173  17.242  68.505  1.00  0.00    -0.274 F  
HETATM   19  C   UNL     1     -10.046  17.970  68.331  1.00  0.00    -0.387 C  
ENDBRANCH   8  13
ENDBRANCH   3   7
BRANCH   6  20
HETATM   20  N   UNL     1     -10.149   9.248  65.510  1.00  0.00    -0.329 N  
HETATM   21  H   UNL     1     -10.747   8.782  64.829  1.00  0.00     0.000 HD 
BRANCH  20  22
HETATM   22  C   UNL     1      -9.004   8.609  65.913  1.00  0.00    -0.200 C  
HETATM   23  O   UNL     1      -7.857   9.002  65.718  1.00  0.00    -0.096 OA 
BRANCH  22  24
HETATM   24  N   UNL     1      -9.228   7.419  66.593  1.00  0.00    -0.152 N  
HETATM   25  C   UNL     1      -8.574   6.182  66.203  1.00  0.00    -0.141 C  
HETATM   26  C   UNL     1      -9.600   5.114  66.531  1.00  0.00    -0.166 C  
HETATM   27  C   UNL     1     -10.328   5.655  67.759  1.00  0.00    -0.260 C  
HETATM   28  C   UNL     1     -10.190   7.177  67.673  1.00  0.00    -0.198 C  
BRANCH  28  29
HETATM   29  C   UNL     1      -9.675   7.749  69.007  1.00  0.00    -0.157 C  
HETATM   30  N   UNL     1      -8.727   7.012  69.660  1.00  0.00    -0.141 N  
HETATM   31  O   UNL     1     -10.169   8.743  69.531  1.00  0.00    -0.197 OA 
HETATM   32  H1  UNL     1      -8.386   7.391  70.543  1.00  0.00     0.000 HD 
HETATM   33  H2  UNL     1      -8.379   6.130  69.283  1.00  0.00     0.000 HD 
ENDBRANCH  28  29
ENDBRANCH  22  24
ENDBRANCH  20  22
ENDBRANCH   6  20
TORSDOF 6
ENDMDL
MODEL      122
REMARK 921   NORMALIZED FREE ENERGY PREDICTED BY IDOCK:   -5.83 KCAL/MOL
REMARK 922        TOTAL FREE ENERGY PREDICTED BY IDOCK:   -8.97 KCAL/MOL
REMARK 923 INTER-LIGAND FREE ENERGY PREDICTED BY IDOCK:   -8.34 KCAL/MOL
REMARK 924 INTRA-LIGAND FREE ENERGY PREDICTED BY IDOCK:   -0.63 KCAL/MOL
REMARK 927      BINDING AFFINITY PREDICTED BY RF-SCORE:    0.00 PKD
ROOT
HETATM    1  C   UNL     1     -11.945  12.738  68.139  1.00  0.00    -0.295 C  
HETATM    2  C   UNL     1     -10.460  12.814  68.171  1.00  0.00    -0.236 A  
HETATM    3  C   UNL     1      -9.525  11.831  68.503  1.00  0.00    -0.163 A  
HETATM    4  S   UNL     1      -7.949  12.548  68.441  1.00  0.00    -0.112 SA 
HETATM    5  N   UNL     1      -9.923  14.042  67.800  1.00  0.00    -0.232 NA 
HETATM    6  C   UNL     1      -8.625  14.008  67.887  1.00  0.00    -0.181 A  
ENDROOT
BRANCH   3   7
HETATM    7  C   UNL     1      -9.669  10.414  68.899  1.00  0.00    -0.203 A  
HETATM    8  C   UNL     1     -10.614   8.668  70.322  1.00  0.00    -0.223 A  
HETATM    9  C   UNL     1      -9.103   8.104  68.654  1.00  0.00    -0.143 A  
HETATM   10  C   UNL     1     -10.504  10.019  69.962  1.00  0.00    -0.337 A  
HETATM   11  N   UNL     1      -9.897   7.720  69.673  1.00  0.00    -0.180 NA 
HETATM   12  C   UNL     1      -8.969   9.413  68.229  1.00  0.00    -0.128 A  
BRANCH   8  13
HETATM   13  C   UNL     1     -11.493   8.202  71.491  1.00  0.00    -0.310 C  
HETATM   14  F   UNL     1     -13.615   7.116  71.195  1.00  0.00    -0.438 F  
HETATM   15  C   UNL     1     -10.638   7.935  72.758  1.00  0.00    -0.418 C  
HETATM   16  C   UNL     1     -12.469   9.342  71.859  1.00  0.00    -0.457 C  
HETATM   17  F   UNL     1     -12.012   5.900  72.007  1.00  0.00    -0.348 F  
HETATM   18  F   UNL     1     -12.011   6.438  69.906  1.00  0.00    -0.486 F  
HETATM   19  C   UNL     1     -12.274   6.913  71.146  1.00  0.00    -0.379 C  
ENDBRANCH   8  13
ENDBRANCH   3   7
BRANCH   6  20
HETATM   20  N   UNL     1      -7.696  14.968  67.599  1.00  0.00    -0.151 N  
HETATM   21  H   UNL     1      -7.029  14.786  66.850  1.00  0.00     0.000 HD 
BRANCH  20  22
HETATM   22  C   UNL     1      -7.613  16.165  68.265  1.00  0.00    -0.146 C  
HETATM   23  O   UNL     1      -7.357  16.305  69.458  1.00  0.00    -0.216 OA 
BRANCH  22  24
HETATM   24  N   UNL     1      -7.852  17.276  67.467  1.00  0.00    -0.179 N  
HETATM   25  C   UNL     1      -7.321  17.376  66.119  1.00  0.00    -0.296 C  
HETATM   26  C   UNL     1      -7.057  18.860  65.946  1.00  0.00    -0.294 C  
HETATM   27  C   UNL     1      -8.149  19.536  66.771  1.00  0.00    -0.313 C  
HETATM   28  C   UNL     1      -8.529  18.520  67.851  1.00  0.00    -0.275 C  
BRANCH  28  29
HETATM   29  C   UNL     1     -10.055  18.324  67.896  1.00  0.00    -0.361 C  
HETATM   30  N   UNL     1     -10.502  17.144  68.421  1.00  0.00    -0.356 N  
HETATM   31  O   UNL     1     -10.836  19.118  67.379  1.00  0.00    -0.483 OA 
HETATM   32  H1  UNL     1     -11.514  17.014  68.451  1.00  0.00     0.000 HD 
HETATM   33  H2  UNL     1      -9.859  16.431  68.764  1.00  0.00     0.000 HD 
ENDBRANCH  28  29
ENDBRANCH  22  24
ENDBRANCH  20  22
ENDBRANCH   6  20
TORSDOF 6
ENDMDL
MODEL      123
REMARK 921   NORMALIZED FREE ENERGY PREDICTED BY IDOCK:   -5.81 KCAL/MOL
REMARK 922        TOTAL FREE ENERGY PREDICTED BY IDOCK:   -8.94 KCAL/MOL
REMARK 923 INTER-LIGAND FREE ENERGY PREDICTED BY IDOCK:   -8.08 KCAL/MOL
REMARK 924 INTRA-LIGAND FREE ENERGY PREDICTED BY IDOCK:   -0.87 KCAL/MOL
REMARK 927      BINDING AFFINITY PREDICTED BY RF-SCORE:    0.00 PKD
ROOT
HETATM    1  C   UNL     1     -10.636  11.864  63.782  1.00  0.00    -0.475 C  
HETATM    2  C   UNL     1     -10.399  12.078  65.235  1.00  0.00    -0.275 A  
HETATM    3  C   UNL     1     -10.384  13.267  65.968  1.00  0.00    -0.289 A  
HETATM    4  S   UNL     1      -9.962  12.880  67.604  1.00  0.00    -0.223 SA 
HETATM    5  N   UNL     1     -10.176  10.922  65.973  1.00  0.00    -0.247 NA 
HETATM    6  C   UNL     1      -9.956  11.223  67.220  1.00  0.00    -0.183 A  
ENDROOT
BRANCH   3   7
HETATM    7  C   UNL     1     -10.614  14.676  65.585  1.00  0.00    -0.344 A  
HETATM    8  C   UNL     1     -10.267  17.072  65.905  1.00  0.00    -0.296 A  
HETATM    9  C   UNL     1     -11.659  16.326  64.206  1.00  0.00     0.034 A  
HETATM   10  C   UNL     1     -10.022  15.745  66.286  1.00  0.00    -0.315 A  
HETATM   11  N   UNL     1     -11.099  17.353  64.875  1.00  0.00    -0.810 NA 
HETATM   12  C   UNL     1     -11.441  14.995  64.509  1.00  0.00    -0.320 A  
BRANCH   8  13
HETATM   13  C   UNL     1      -9.661  18.264  66.660  1.00  0.00    -0.339 C  
HETATM   14  F   UNL     1      -7.489  18.209  67.685  1.00  0.00    -0.207 F  
HETATM   15  C   UNL     1     -10.268  19.603  66.165  1.00  0.00    -0.604 C  
HETATM   16  C   UNL     1     -10.035  18.143  68.154  1.00  0.00    -0.368 C  
HETATM   17  F   UNL     1      -7.711  19.506  65.958  1.00  0.00    -0.271 F  
HETATM   18  F   UNL     1      -7.626  17.355  65.699  1.00  0.00    -0.283 F  
HETATM   19  C   UNL     1      -8.125  18.331  66.491  1.00  0.00    -0.269 C  
ENDBRANCH   8  13
ENDBRANCH   3   7
BRANCH   6  20
HETATM   20  N   UNL     1      -9.719  10.412  68.295  1.00  0.00    -0.148 N  
HETATM   21  H   UNL     1      -9.368  10.838  69.153  1.00  0.00     0.000 HD 
BRANCH  20  22
HETATM   22  C   UNL     1      -9.927   9.057  68.281  1.00  0.00    -0.173 C  
HETATM   23  O   UNL     1     -10.844   8.466  68.846  1.00  0.00    -0.115 OA 
BRANCH  22  24
HETATM   24  N   UNL     1      -8.983   8.345  67.551  1.00  0.00    -0.134 N  
HETATM   25  C   UNL     1      -7.575   8.357  67.907  1.00  0.00    -0.099 C  
HETATM   26  C   UNL     1      -6.866   8.246  66.571  1.00  0.00    -0.067 C  
HETATM   27  C   UNL     1      -7.797   7.386  65.720  1.00  0.00    -0.108 C  
HETATM   28  C   UNL     1      -9.196   7.606  66.302  1.00  0.00    -0.154 C  
BRANCH  28  29
HETATM   29  C   UNL     1      -9.886   6.256  66.572  1.00  0.00    -0.126 C  
HETATM   30  N   UNL     1     -11.228   6.299  66.829  1.00  0.00    -0.746 N  
HETATM   31  O   UNL     1      -9.259   5.206  66.681  1.00  0.00    -0.123 OA 
HETATM   32  H1  UNL     1     -11.685   5.405  67.008  1.00  0.00     0.000 HD 
HETATM   33  H2  UNL     1     -11.744   7.179  66.841  1.00  0.00     0.000 HD 
ENDBRANCH  28  29
ENDBRANCH  22  24
ENDBRANCH  20  22
ENDBRANCH   6  20
TORSDOF 6
ENDMDL
MODEL      124
REMARK 921   NORMALIZED FREE ENERGY PREDICTED BY IDOCK:   -5.80 KCAL/MOL
REMARK 922        TOTAL FREE ENERGY PREDICTED BY IDOCK:   -8.93 KCAL/MOL
REMARK 923 INTER-LIGAND FREE ENERGY PREDICTED BY IDOCK:   -7.97 KCAL/MOL
REMARK 924 INTRA-LIGAND FREE ENERGY PREDICTED BY IDOCK:   -0.96 KCAL/MOL
REMARK 927      BINDING AFFINITY PREDICTED BY RF-SCORE:    0.00 PKD
ROOT
HETATM    1  C   UNL     1      -8.236  12.148  67.090  1.00  0.00    -0.182 C  
HETATM    2  C   UNL     1      -9.395  11.491  67.751  1.00  0.00    -0.168 A  
HETATM    3  C   UNL     1     -10.474  12.063  68.431  1.00  0.00    -0.219 A  
HETATM    4  S   UNL     1     -11.453  10.777  69.056  1.00  0.00    -0.300 SA 
HETATM    5  N   UNL     1      -9.415  10.104  67.665  1.00  0.00    -0.147 NA 
HETATM    6  C   UNL     1     -10.452   9.632  68.294  1.00  0.00    -0.219 A  
ENDROOT
BRANCH   3   7
HETATM    7  C   UNL     1     -10.848  13.467  68.702  1.00  0.00    -0.287 A  
HETATM    8  C   UNL     1     -10.517  15.870  68.419  1.00  0.00    -0.254 A  
HETATM    9  C   UNL     1     -12.209  15.095  69.803  1.00  0.00    -0.289 A  
HETATM   10  C   UNL     1     -10.145  14.548  68.135  1.00  0.00    -0.227 A  
HETATM   11  N   UNL     1     -11.538  16.134  69.266  1.00  0.00    -0.309 NA 
HETATM   12  C   UNL     1     -11.915  13.769  69.546  1.00  0.00    -0.399 A  
BRANCH   8  13
HETATM   13  C   UNL     1      -9.759  17.073  67.840  1.00  0.00    -0.263 C  
HETATM   14  F   UNL     1      -8.890  17.132  65.601  1.00  0.00    -0.144 F  
HETATM   15  C   UNL     1     -10.158  18.384  68.568  1.00  0.00    -0.413 C  
HETATM   16  C   UNL     1      -8.248  16.876  68.097  1.00  0.00    -0.207 C  
HETATM   17  F   UNL     1     -10.545  18.469  66.031  1.00  0.00    -0.414 F  
HETATM   18  F   UNL     1     -10.893  16.339  65.824  1.00  0.00    -0.315 F  
HETATM   19  C   UNL     1     -10.031  17.251  66.328  1.00  0.00    -0.300 C  
ENDBRANCH   8  13
ENDBRANCH   3   7
BRANCH   6  20
HETATM   20  N   UNL     1     -10.880   8.343  68.445  1.00  0.00    -0.439 N  
HETATM   21  H   UNL     1     -11.553   7.975  67.772  1.00  0.00     0.000 HD 
BRANCH  20  22
HETATM   22  C   UNL     1     -10.454   7.517  69.455  1.00  0.00    -0.222 C  
HETATM   23  O   UNL     1      -9.451   6.809  69.427  1.00  0.00    -0.148 OA 
BRANCH  22  24
HETATM   24  N   UNL     1     -11.272   7.524  70.577  1.00  0.00    -0.270 N  
HETATM   25  C   UNL     1     -12.488   6.732  70.641  1.00  0.00    -0.081 C  
HETATM   26  C   UNL     1     -13.421   7.573  71.491  1.00  0.00    -0.426 C  
HETATM   27  C   UNL     1     -12.496   8.283  72.477  1.00  0.00    -0.300 C  
HETATM   28  C   UNL     1     -11.140   8.366  71.771  1.00  0.00    -0.290 C  
BRANCH  28  29
HETATM   29  C   UNL     1     -10.020   7.846  72.690  1.00  0.00    -0.266 C  
HETATM   30  N   UNL     1      -8.746   7.920  72.199  1.00  0.00    -0.129 N  
HETATM   31  O   UNL     1     -10.252   7.277  73.753  1.00  0.00    -0.343 OA 
HETATM   32  H1  UNL     1      -8.004   7.575  72.808  1.00  0.00     0.000 HD 
HETATM   33  H2  UNL     1      -8.549   8.300  71.274  1.00  0.00     0.000 HD 
ENDBRANCH  28  29
ENDBRANCH  22  24
ENDBRANCH  20  22
ENDBRANCH   6  20
TORSDOF 6
ENDMDL
MODEL      125
REMARK 921   NORMALIZED FREE ENERGY PREDICTED BY IDOCK:   -5.79 KCAL/MOL
REMARK 922        TOTAL FREE ENERGY PREDICTED BY IDOCK:   -8.92 KCAL/MOL
REMARK 923 INTER-LIGAND FREE ENERGY PREDICTED BY IDOCK:   -7.90 KCAL/MOL
REMARK 924 INTRA-LIGAND FREE ENERGY PREDICTED BY IDOCK:   -1.02 KCAL/MOL
REMARK 927      BINDING AFFINITY PREDICTED BY RF-SCORE:    0.00 PKD
ROOT
HETATM    1  C   UNL     1      -7.567   9.514  69.475  1.00  0.00    -0.096 C  
HETATM    2  C   UNL     1      -8.935  10.087  69.367  1.00  0.00    -0.194 A  
HETATM    3  C   UNL     1     -10.123   9.679  69.980  1.00  0.00    -0.252 A  
HETATM    4  S   UNL     1     -11.402  10.688  69.390  1.00  0.00    -0.302 SA 
HETATM    5  N   UNL     1      -9.044  11.204  68.547  1.00  0.00    -0.171 NA 
HETATM    6  C   UNL     1     -10.280  11.608  68.503  1.00  0.00    -0.210 A  
ENDROOT
BRANCH   3   7
HETATM    7  C   UNL     1     -10.427   8.594  70.936  1.00  0.00    -0.265 A  
HETATM    8  C   UNL     1      -9.991   6.388  71.890  1.00  0.00    -0.175 A  
HETATM    9  C   UNL     1     -11.764   7.657  72.683  1.00  0.00    -0.270 A  
HETATM   10  C   UNL     1      -9.672   7.406  70.979  1.00  0.00    -0.164 A  
HETATM   11  N   UNL     1     -11.048   6.516  72.726  1.00  0.00    -0.253 NA 
HETATM   12  C   UNL     1     -11.490   8.710  71.830  1.00  0.00    -0.419 A  
BRANCH   8  13
HETATM   13  C   UNL     1      -9.207   5.069  71.949  1.00  0.00    -0.164 C  
HETATM   14  F   UNL     1     -10.128   2.957  71.267  1.00  0.00    -0.231 F  
HETATM   15  C   UNL     1      -7.680   5.326  71.877  1.00  0.00    -0.110 C  
HETATM   16  C   UNL     1      -9.472   4.399  73.316  1.00  0.00    -0.135 C  
HETATM   17  F   UNL     1      -8.538   3.765  70.029  1.00  0.00    -0.075 F  
HETATM   18  F   UNL     1     -10.523   4.637  69.956  1.00  0.00    -0.314 F  
HETATM   19  C   UNL     1      -9.599   4.116  70.796  1.00  0.00    -0.190 C  
ENDBRANCH   8  13
ENDBRANCH   3   7
BRANCH   6  20
HETATM   20  N   UNL     1     -10.838  12.672  67.850  1.00  0.00    -0.213 N  
HETATM   21  H   UNL     1     -11.806  12.914  68.060  1.00  0.00     0.000 HD 
BRANCH  20  22
HETATM   22  C   UNL     1     -10.164  13.432  66.927  1.00  0.00    -0.252 C  
HETATM   23  O   UNL     1      -9.119  14.045  67.129  1.00  0.00    -0.212 OA 
BRANCH  22  24
HETATM   24  N   UNL     1     -10.768  13.473  65.677  1.00  0.00    -0.277 N  
HETATM   25  C   UNL     1     -10.741  14.671  64.855  1.00  0.00    -0.427 C  
HETATM   26  C   UNL     1     -12.064  14.627  64.114  1.00  0.00    -0.346 C  
HETATM   27  C   UNL     1     -12.334  13.138  63.912  1.00  0.00    -0.439 C  
HETATM   28  C   UNL     1     -11.593  12.434  65.051  1.00  0.00    -0.345 C  
BRANCH  28  29
HETATM   29  C   UNL     1     -10.717  11.293  64.502  1.00  0.00    -0.323 C  
HETATM   30  N   UNL     1     -10.656  11.174  63.141  1.00  0.00    -0.779 N  
HETATM   31  O   UNL     1     -10.198  10.452  65.230  1.00  0.00    -0.299 OA 
HETATM   32  H1  UNL     1     -10.076  10.418  62.777  1.00  0.00     0.000 HD 
HETATM   33  H2  UNL     1     -11.163  11.807  62.524  1.00  0.00     0.000 HD 
ENDBRANCH  28  29
ENDBRANCH  22  24
ENDBRANCH  20  22
ENDBRANCH   6  20
TORSDOF 6
ENDMDL
MODEL      126
REMARK 921   NORMALIZED FREE ENERGY PREDICTED BY IDOCK:   -5.77 KCAL/MOL
REMARK 922        TOTAL FREE ENERGY PREDICTED BY IDOCK:   -8.88 KCAL/MOL
REMARK 923 INTER-LIGAND FREE ENERGY PREDICTED BY IDOCK:   -7.42 KCAL/MOL
REMARK 924 INTRA-LIGAND FREE ENERGY PREDICTED BY IDOCK:   -1.47 KCAL/MOL
REMARK 927      BINDING AFFINITY PREDICTED BY RF-SCORE:    0.00 PKD
ROOT
HETATM    1  C   UNL     1      -8.405   8.652  66.159  1.00  0.00    -0.127 C  
HETATM    2  C   UNL     1      -8.410   9.946  66.892  1.00  0.00    -0.124 A  
HETATM    3  C   UNL     1      -8.444  10.190  68.267  1.00  0.00    -0.115 A  
HETATM    4  S   UNL     1      -8.523  11.905  68.503  1.00  0.00    -0.064 SA 
HETATM    5  N   UNL     1      -8.357  11.079  66.088  1.00  0.00    -0.169 NA 
HETATM    6  C   UNL     1      -8.392  12.151  66.825  1.00  0.00    -0.111 A  
ENDROOT
BRANCH   3   7
HETATM    7  C   UNL     1      -8.459   9.288  69.438  1.00  0.00    -0.137 A  
HETATM    8  C   UNL     1      -9.459   7.483  70.744  1.00  0.00    -0.163 A  
HETATM    9  C   UNL     1      -7.541   8.537  71.514  1.00  0.00    -0.108 A  
HETATM   10  C   UNL     1      -9.465   8.319  69.618  1.00  0.00    -0.163 A  
HETATM   11  N   UNL     1      -8.503   7.611  71.694  1.00  0.00    -0.106 NA 
HETATM   12  C   UNL     1      -7.470   9.375  70.416  1.00  0.00    -0.141 A  
BRANCH   8  13
HETATM   13  C   UNL     1     -10.552   6.433  70.988  1.00  0.00    -0.282 C  
HETATM   14  F   UNL     1     -12.482   6.834  72.362  1.00  0.00    -0.247 F  
HETATM   15  C   UNL     1     -10.609   5.408  69.826  1.00  0.00    -0.347 C  
HETATM   16  C   UNL     1     -10.191   5.631  72.259  1.00  0.00    -0.241 C  
HETATM   17  F   UNL     1     -12.840   6.610  70.233  1.00  0.00    -0.226 F  
HETATM   18  F   UNL     1     -11.937   8.427  70.998  1.00  0.00    -0.287 F  
HETATM   19  C   UNL     1     -11.949   7.081  71.138  1.00  0.00    -0.356 C  
ENDBRANCH   8  13
ENDBRANCH   3   7
BRANCH   6  20
HETATM   20  N   UNL     1      -8.338  13.470  66.467  1.00  0.00    -0.302 N  
HETATM   21  H   UNL     1      -7.494  13.810  66.005  1.00  0.00     0.000 HD 
BRANCH  20  22
HETATM   22  C   UNL     1      -9.357  14.359  66.697  1.00  0.00    -0.278 C  
HETATM   23  O   UNL     1      -9.273  15.390  67.358  1.00  0.00    -0.192 OA 
BRANCH  22  24
HETATM   24  N   UNL     1     -10.563  14.004  66.106  1.00  0.00    -0.286 N  
HETATM   25  C   UNL     1     -10.670  13.753  64.680  1.00  0.00    -0.414 C  
HETATM   26  C   UNL     1     -12.069  14.225  64.336  1.00  0.00    -0.490 C  
HETATM   27  C   UNL     1     -12.888  13.924  65.589  1.00  0.00    -0.467 C  
HETATM   28  C   UNL     1     -11.883  13.944  66.743  1.00  0.00    -0.424 C  
BRANCH  28  29
HETATM   29  C   UNL     1     -12.022  12.674  67.602  1.00  0.00    -0.247 C  
HETATM   30  N   UNL     1     -12.101  12.858  68.954  1.00  0.00    -0.222 N  
HETATM   31  O   UNL     1     -11.939  11.545  67.126  1.00  0.00    -0.581 OA 
HETATM   32  H1  UNL     1     -12.192  12.016  69.523  1.00  0.00     0.000 HD 
HETATM   33  H2  UNL     1     -12.069  13.788  69.371  1.00  0.00     0.000 HD 
ENDBRANCH  28  29
ENDBRANCH  22  24
ENDBRANCH  20  22
ENDBRANCH   6  20
TORSDOF 6
ENDMDL
MODEL      127
REMARK 921   NORMALIZED FREE ENERGY PREDICTED BY IDOCK:   -5.73 KCAL/MOL
REMARK 922        TOTAL FREE ENERGY PREDICTED BY IDOCK:   -8.83 KCAL/MOL
REMARK 923 INTER-LIGAND FREE ENERGY PREDICTED BY IDOCK:   -7.50 KCAL/MOL
REMARK 924 INTRA-LIGAND FREE ENERGY PREDICTED BY IDOCK:   -1.33 KCAL/MOL
REMARK 927      BINDING AFFINITY PREDICTED BY RF-SCORE:    0.00 PKD
ROOT
HETATM    1  C   UNL     1     -11.565  13.861  67.975  1.00  0.00    -0.368 C  
HETATM    2  C   UNL     1     -10.226  13.222  68.078  1.00  0.00    -0.240 A  
HETATM    3  C   UNL     1      -8.970  13.810  68.244  1.00  0.00    -0.186 A  
HETATM    4  S   UNL     1      -7.780  12.551  68.202  1.00  0.00    -0.151 SA 
HETATM    5  N   UNL     1     -10.228  11.834  68.016  1.00  0.00    -0.187 NA 
HETATM    6  C   UNL     1      -9.010  11.381  68.090  1.00  0.00    -0.169 A  
ENDROOT
BRANCH   3   7
HETATM    7  C   UNL     1      -8.542  15.217  68.396  1.00  0.00    -0.160 A  
HETATM    8  C   UNL     1      -8.688  17.582  67.803  1.00  0.00    -0.230 A  
HETATM    9  C   UNL     1      -7.137  16.882  69.379  1.00  0.00    -0.126 A  
HETATM   10  C   UNL     1      -9.122  16.257  67.644  1.00  0.00    -0.194 A  
HETATM   11  N   UNL     1      -7.684  17.882  68.660  1.00  0.00    -0.292 NA 
HETATM   12  C   UNL     1      -7.533  15.561  69.294  1.00  0.00    -0.212 A  
BRANCH   8  13
HETATM   13  C   UNL     1      -9.277  18.738  66.983  1.00  0.00    -0.305 C  
HETATM   14  F   UNL     1     -11.428  19.712  67.432  1.00  0.00    -0.437 F  
HETATM   15  C   UNL     1      -8.155  19.574  66.314  1.00  0.00    -0.344 C  
HETATM   16  C   UNL     1     -10.123  18.147  65.833  1.00  0.00    -0.173 C  
HETATM   17  F   UNL     1      -9.698  20.964  67.824  1.00  0.00    -0.508 F  
HETATM   18  F   UNL     1     -10.179  19.323  69.159  1.00  0.00    -0.450 F  
HETATM   19  C   UNL     1     -10.138  19.682  67.856  1.00  0.00    -0.422 C  
ENDBRANCH   8  13
ENDBRANCH   3   7
BRANCH   6  20
HETATM   20  N   UNL     1      -8.546  10.095  68.095  1.00  0.00    -0.117 N  
HETATM   21  H   UNL     1      -8.484   9.600  67.205  1.00  0.00     0.000 HD 
BRANCH  20  22
HETATM   22  C   UNL     1      -8.158   9.435  69.233  1.00  0.00    -0.105 C  
HETATM   23  O   UNL     1      -7.105   9.610  69.840  1.00  0.00    -0.069 OA 
BRANCH  22  24
HETATM   24  N   UNL     1      -9.077   8.497  69.685  1.00  0.00    -0.148 N  
HETATM   25  C   UNL     1      -8.668   7.165  70.099  1.00  0.00    -0.141 C  
HETATM   26  C   UNL     1      -9.845   6.291  69.708  1.00  0.00    -0.195 C  
HETATM   27  C   UNL     1     -11.062   7.194  69.889  1.00  0.00    -0.264 C  
HETATM   28  C   UNL     1     -10.538   8.621  69.711  1.00  0.00    -0.224 C  
BRANCH  28  29
HETATM   29  C   UNL     1     -10.994   9.514  70.879  1.00  0.00    -0.337 C  
HETATM   30  N   UNL     1     -11.462  10.755  70.551  1.00  0.00    -0.394 N  
HETATM   31  O   UNL     1     -10.834   9.193  72.054  1.00  0.00    -0.352 OA 
HETATM   32  H1  UNL     1     -11.764  11.346  71.325  1.00  0.00     0.000 HD 
HETATM   33  H2  UNL     1     -11.507  11.073  69.583  1.00  0.00     0.000 HD 
ENDBRANCH  28  29
ENDBRANCH  22  24
ENDBRANCH  20  22
ENDBRANCH   6  20
TORSDOF 6
ENDMDL
MODEL      128
REMARK 921   NORMALIZED FREE ENERGY PREDICTED BY IDOCK:   -5.71 KCAL/MOL
REMARK 922        TOTAL FREE ENERGY PREDICTED BY IDOCK:   -8.81 KCAL/MOL
REMARK 923 INTER-LIGAND FREE ENERGY PREDICTED BY IDOCK:   -8.07 KCAL/MOL
REMARK 924 INTRA-LIGAND FREE ENERGY PREDICTED BY IDOCK:   -0.74 KCAL/MOL
REMARK 927      BINDING AFFINITY PREDICTED BY RF-SCORE:    0.00 PKD
ROOT
HETATM    1  C   UNL     1     -11.776  12.114  68.194  1.00  0.00    -0.402 C  
HETATM    2  C   UNL     1     -11.255  13.201  67.324  1.00  0.00    -0.287 A  
HETATM    3  C   UNL     1     -10.560  13.118  66.115  1.00  0.00    -0.279 A  
HETATM    4  S   UNL     1     -10.144  14.728  65.626  1.00  0.00    -0.381 SA 
HETATM    5  N   UNL     1     -11.513  14.491  67.773  1.00  0.00    -0.324 NA 
HETATM    6  C   UNL     1     -10.995  15.362  66.955  1.00  0.00    -0.306 A  
ENDROOT
BRANCH   3   7
HETATM    7  C   UNL     1     -10.134  11.969  65.289  1.00  0.00    -0.289 A  
HETATM    8  C   UNL     1      -9.133   9.754  65.045  1.00  0.00    -0.231 A  
HETATM    9  C   UNL     1      -9.860  10.904  63.166  1.00  0.00    -0.351 A  
HETATM   10  C   UNL     1      -9.536  10.826  65.855  1.00  0.00    -0.252 A  
HETATM   11  N   UNL     1      -9.284   9.810  63.701  1.00  0.00    -0.240 NA 
HETATM   12  C   UNL     1     -10.306  11.984  63.906  1.00  0.00    -0.433 A  
BRANCH   8  13
HETATM   13  C   UNL     1      -8.455   8.504  65.622  1.00  0.00    -0.170 C  
HETATM   14  F   UNL     1      -9.037   7.551  67.749  1.00  0.00    -0.129 F  
HETATM   15  C   UNL     1      -7.869   7.617  64.492  1.00  0.00    -0.134 C  
HETATM   16  C   UNL     1      -7.256   8.949  66.491  1.00  0.00    -0.085 C  
HETATM   17  F   UNL     1      -9.544   6.380  65.993  1.00  0.00    -0.174 F  
HETATM   18  F   UNL     1     -10.694   8.150  66.489  1.00  0.00    -0.359 F  
HETATM   19  C   UNL     1      -9.438   7.649  66.456  1.00  0.00    -0.190 C  
ENDBRANCH   8  13
ENDBRANCH   3   7
BRANCH   6  20
HETATM   20  N   UNL     1     -11.025  16.728  66.987  1.00  0.00    -0.054 N  
HETATM   21  H   UNL     1     -11.441  17.184  67.799  1.00  0.00     0.000 HD 
BRANCH  20  22
HETATM   22  C   UNL     1     -10.524  17.519  65.984  1.00  0.00    -0.274 C  
HETATM   23  O   UNL     1     -10.980  17.609  64.847  1.00  0.00    -0.886 OA 
BRANCH  22  24
HETATM   24  N   UNL     1      -9.404  18.254  66.348  1.00  0.00    -0.297 N  
HETATM   25  C   UNL     1      -9.286  19.669  66.040  1.00  0.00    -0.251 C  
HETATM   26  C   UNL     1      -7.800  19.863  65.807  1.00  0.00    -0.234 C  
HETATM   27  C   UNL     1      -7.136  18.866  66.753  1.00  0.00    -0.222 C  
HETATM   28  C   UNL     1      -8.166  17.752  66.955  1.00  0.00    -0.232 C  
BRANCH  28  29
HETATM   29  C   UNL     1      -8.366  17.465  68.454  1.00  0.00    -0.263 C  
HETATM   30  N   UNL     1      -7.582  16.484  68.996  1.00  0.00    -0.232 N  
HETATM   31  O   UNL     1      -9.261  17.989  69.111  1.00  0.00    -0.105 OA 
HETATM   32  H1  UNL     1      -7.715  16.295  69.989  1.00  0.00     0.000 HD 
HETATM   33  H2  UNL     1      -6.902  15.971  68.436  1.00  0.00     0.000 HD 
ENDBRANCH  28  29
ENDBRANCH  22  24
ENDBRANCH  20  22
ENDBRANCH   6  20
TORSDOF 6
ENDMDL
MODEL      129
REMARK 921   NORMALIZED FREE ENERGY PREDICTED BY IDOCK:   -5.65 KCAL/MOL
REMARK 922        TOTAL FREE ENERGY PREDICTED BY IDOCK:   -8.73 KCAL/MOL
REMARK 923 INTER-LIGAND FREE ENERGY PREDICTED BY IDOCK:   -8.07 KCAL/MOL
REMARK 924 INTRA-LIGAND FREE ENERGY PREDICTED BY IDOCK:   -0.67 KCAL/MOL
REMARK 927      BINDING AFFINITY PREDICTED BY RF-SCORE:    0.00 PKD
ROOT
HETATM    1  C   UNL     1      -6.106  11.910  67.666  1.00  0.00    -0.084 C  
HETATM    2  C   UNL     1      -7.049  10.808  67.993  1.00  0.00    -0.081 A  
HETATM    3  C   UNL     1      -8.218  10.412  67.337  1.00  0.00    -0.117 A  
HETATM    4  S   UNL     1      -8.929   9.120  68.247  1.00  0.00    -0.128 SA 
HETATM    5  N   UNL     1      -6.706  10.049  69.106  1.00  0.00    -0.052 NA 
HETATM    6  C   UNL     1      -7.606   9.133  69.317  1.00  0.00    -0.079 A  
ENDROOT
BRANCH   3   7
HETATM    7  C   UNL     1      -8.893  10.910  66.121  1.00  0.00    -0.195 A  
HETATM    8  C   UNL     1     -10.317  12.522  64.963  1.00  0.00    -0.299 A  
HETATM    9  C   UNL     1      -9.457  10.705  63.807  1.00  0.00    -0.290 A  
HETATM   10  C   UNL     1      -9.679  12.079  66.131  1.00  0.00    -0.254 A  
HETATM   11  N   UNL     1     -10.214  11.820  63.811  1.00  0.00    -0.359 NA 
HETATM   12  C   UNL     1      -8.779  10.226  64.913  1.00  0.00    -0.198 A  
BRANCH   8  13
HETATM   13  C   UNL     1     -11.202  13.776  64.941  1.00  0.00    -0.352 C  
HETATM   14  F   UNL     1     -13.488  13.790  65.683  1.00  0.00    -0.382 F  
HETATM   15  C   UNL     1     -10.343  15.066  65.006  1.00  0.00    -0.390 C  
HETATM   16  C   UNL     1     -11.957  13.824  63.594  1.00  0.00    -0.298 C  
HETATM   17  F   UNL     1     -12.070  14.897  66.897  1.00  0.00    -0.343 F  
HETATM   18  F   UNL     1     -12.083  12.729  66.946  1.00  0.00    -0.429 F  
HETATM   19  C   UNL     1     -12.202  13.794  66.121  1.00  0.00    -0.459 C  
ENDBRANCH   8  13
ENDBRANCH   3   7
BRANCH   6  20
HETATM   20  N   UNL     1      -7.665   8.157  70.273  1.00  0.00    -0.083 N  
HETATM   21  H   UNL     1      -7.047   7.351  70.179  1.00  0.00     0.000 HD 
BRANCH  20  22
HETATM   22  C   UNL     1      -8.511   8.205  71.351  1.00  0.00    -0.126 C  
HETATM   23  O   UNL     1      -8.308   8.819  72.396  1.00  0.00    -0.387 OA 
BRANCH  22  24
HETATM   24  N   UNL     1      -9.681   7.474  71.188  1.00  0.00    -0.163 N  
HETATM   25  C   UNL     1      -9.718   6.037  71.398  1.00  0.00    -0.164 C  
HETATM   26  C   UNL     1     -10.751   5.554  70.397  1.00  0.00    -0.321 C  
HETATM   27  C   UNL     1     -11.757   6.698  70.312  1.00  0.00    -0.432 C  
HETATM   28  C   UNL     1     -10.972   7.958  70.687  1.00  0.00    -0.245 C  
BRANCH  28  29
HETATM   29  C   UNL     1     -11.718   8.756  71.772  1.00  0.00    -0.346 C  
HETATM   30  N   UNL     1     -12.211   8.039  72.826  1.00  0.00    -0.614 N  
HETATM   31  O   UNL     1     -11.975   9.951  71.650  1.00  0.00    -0.393 OA 
HETATM   32  H1  UNL     1     -12.705   8.568  73.544  1.00  0.00     0.000 HD 
HETATM   33  H2  UNL     1     -12.091   7.028  72.890  1.00  0.00     0.000 HD 
ENDBRANCH  28  29
ENDBRANCH  22  24
ENDBRANCH  20  22
ENDBRANCH   6  20
TORSDOF 6
ENDMDL
MODEL      130
REMARK 921   NORMALIZED FREE ENERGY PREDICTED BY IDOCK:   -5.65 KCAL/MOL
REMARK 922        TOTAL FREE ENERGY PREDICTED BY IDOCK:   -8.73 KCAL/MOL
REMARK 923 INTER-LIGAND FREE ENERGY PREDICTED BY IDOCK:   -7.55 KCAL/MOL
REMARK 924 INTRA-LIGAND FREE ENERGY PREDICTED BY IDOCK:   -1.18 KCAL/MOL
REMARK 927      BINDING AFFINITY PREDICTED BY RF-SCORE:    0.00 PKD
ROOT
HETATM    1  C   UNL     1     -12.412  13.093  65.590  1.00  0.00    -0.485 C  
HETATM    2  C   UNL     1     -11.529  13.764  66.581  1.00  0.00    -0.345 A  
HETATM    3  C   UNL     1     -10.893  13.236  67.708  1.00  0.00    -0.252 A  
HETATM    4  S   UNL     1     -10.073  14.532  68.515  1.00  0.00    -0.245 SA 
HETATM    5  N   UNL     1     -11.287  15.111  66.340  1.00  0.00    -0.281 NA 
HETATM    6  C   UNL     1     -10.527  15.604  67.274  1.00  0.00    -0.292 A  
ENDROOT
BRANCH   3   7
HETATM    7  C   UNL     1     -10.852  11.874  68.281  1.00  0.00    -0.261 A  
HETATM    8  C   UNL     1      -9.973   9.596  68.342  1.00  0.00    -0.158 A  
HETATM    9  C   UNL     1     -11.646  10.226  69.820  1.00  0.00    -0.227 A  
HETATM   10  C   UNL     1      -9.983  10.883  67.785  1.00  0.00    -0.198 A  
HETATM   11  N   UNL     1     -10.820   9.272  69.347  1.00  0.00    -0.205 NA 
HETATM   12  C   UNL     1     -11.690  11.521  69.337  1.00  0.00    -0.413 A  
BRANCH   8  13
HETATM   13  C   UNL     1      -9.059   8.483  67.811  1.00  0.00    -0.143 C  
HETATM   14  F   UNL     1      -9.866   6.324  67.133  1.00  0.00    -0.128 F  
HETATM   15  C   UNL     1      -7.766   9.073  67.191  1.00  0.00    -0.099 C  
HETATM   16  C   UNL     1      -8.608   7.605  69.000  1.00  0.00    -0.136 C  
HETATM   17  F   UNL     1      -9.100   7.607  65.560  1.00  0.00    -0.143 F  
HETATM   18  F   UNL     1     -11.026   8.027  66.464  1.00  0.00    -0.246 F  
HETATM   19  C   UNL     1      -9.766   7.620  66.740  1.00  0.00    -0.222 C  
ENDBRANCH   8  13
ENDBRANCH   3   7
BRANCH   6  20
HETATM   20  N   UNL     1     -10.020  16.864  67.427  1.00  0.00    -0.262 N  
HETATM   21  H   UNL     1     -10.473  17.490  68.093  1.00  0.00     0.000 HD 
BRANCH  20  22
HETATM   22  C   UNL     1      -8.935  17.333  66.731  1.00  0.00    -0.250 C  
HETATM   23  O   UNL     1      -8.638  17.032  65.578  1.00  0.00    -0.280 OA 
BRANCH  22  24
HETATM   24  N   UNL     1      -8.140  18.218  67.448  1.00  0.00    -0.230 N  
HETATM   25  C   UNL     1      -6.782  18.531  67.037  1.00  0.00    -0.192 C  
HETATM   26  C   UNL     1      -6.056  18.763  68.348  1.00  0.00    -0.224 C  
HETATM   27  C   UNL     1      -7.114  19.372  69.264  1.00  0.00    -0.358 C  
HETATM   28  C   UNL     1      -8.455  18.860  68.729  1.00  0.00    -0.305 C  
BRANCH  28  29
HETATM   29  C   UNL     1      -9.439  20.028  68.532  1.00  0.00    -0.155 C  
HETATM   30  N   UNL     1     -10.518  20.062  69.370  1.00  0.00    -0.519 N  
HETATM   31  O   UNL     1      -9.342  20.820  67.599  1.00  0.00    -0.298 OA 
HETATM   32  H1  UNL     1     -11.170  20.835  69.239  1.00  0.00     0.000 HD 
HETATM   33  H2  UNL     1     -10.664  19.351  70.087  1.00  0.00     0.000 HD 
ENDBRANCH  28  29
ENDBRANCH  22  24
ENDBRANCH  20  22
ENDBRANCH   6  20
TORSDOF 6
ENDMDL
MODEL      131
REMARK 921   NORMALIZED FREE ENERGY PREDICTED BY IDOCK:   -5.64 KCAL/MOL
REMARK 922        TOTAL FREE ENERGY PREDICTED BY IDOCK:   -8.71 KCAL/MOL
REMARK 923 INTER-LIGAND FREE ENERGY PREDICTED BY IDOCK:   -7.93 KCAL/MOL
REMARK 924 INTRA-LIGAND FREE ENERGY PREDICTED BY IDOCK:   -0.78 KCAL/MOL
REMARK 927      BINDING AFFINITY PREDICTED BY RF-SCORE:    0.00 PKD
ROOT
HETATM    1  C   UNL     1     -12.130  12.459  65.548  1.00  0.00    -0.417 C  
HETATM    2  C   UNL     1     -10.878  12.766  66.289  1.00  0.00    -0.275 A  
HETATM    3  C   UNL     1      -9.966  11.899  66.895  1.00  0.00    -0.200 A  
HETATM    4  S   UNL     1      -8.755  12.859  67.678  1.00  0.00    -0.198 SA 
HETATM    5  N   UNL     1     -10.561  14.117  66.376  1.00  0.00    -0.277 NA 
HETATM    6  C   UNL     1      -9.466  14.276  67.062  1.00  0.00    -0.254 A  
ENDROOT
BRANCH   3   7
HETATM    7  C   UNL     1      -9.907  10.425  66.990  1.00  0.00    -0.234 A  
HETATM    8  C   UNL     1     -10.068   8.348  68.266  1.00  0.00    -0.199 A  
HETATM    9  C   UNL     1      -9.527   8.277  66.011  1.00  0.00    -0.119 A  
HETATM   10  C   UNL     1     -10.140   9.747  68.203  1.00  0.00    -0.193 A  
HETATM   11  N   UNL     1      -9.745   7.623  67.169  1.00  0.00    -0.168 NA 
HETATM   12  C   UNL     1      -9.608   9.650  65.871  1.00  0.00    -0.321 A  
BRANCH   8  13
HETATM   13  C   UNL     1     -10.290   7.576  69.574  1.00  0.00    -0.216 C  
HETATM   14  F   UNL     1     -12.410   6.643  70.212  1.00  0.00    -0.430 F  
HETATM   15  C   UNL     1      -8.966   6.948  70.081  1.00  0.00    -0.149 C  
HETATM   16  C   UNL     1     -10.743   8.573  70.665  1.00  0.00    -0.251 C  
HETATM   17  F   UNL     1     -10.838   5.228  69.725  1.00  0.00    -0.381 F  
HETATM   18  F   UNL     1     -11.822   6.346  68.148  1.00  0.00    -0.099 F  
HETATM   19  C   UNL     1     -11.335   6.448  69.406  1.00  0.00    -0.377 C  
ENDBRANCH   8  13
ENDBRANCH   3   7
BRANCH   6  20
HETATM   20  N   UNL     1      -8.778  15.415  67.374  1.00  0.00    -0.170 N  
HETATM   21  H   UNL     1      -7.939  15.635  66.837  1.00  0.00     0.000 HD 
BRANCH  20  22
HETATM   22  C   UNL     1      -9.155  16.278  68.371  1.00  0.00    -0.203 C  
HETATM   23  O   UNL     1      -9.413  15.966  69.530  1.00  0.00    -0.260 OA 
BRANCH  22  24
HETATM   24  N   UNL     1      -9.237  17.606  67.971  1.00  0.00    -0.264 N  
HETATM   25  C   UNL     1     -10.449  18.386  68.156  1.00  0.00    -0.327 C  
HETATM   26  C   UNL     1     -10.456  19.325  66.965  1.00  0.00    -0.556 C  
HETATM   27  C   UNL     1      -8.980  19.600  66.692  1.00  0.00    -0.419 C  
HETATM   28  C   UNL     1      -8.234  18.376  67.228  1.00  0.00    -0.245 C  
BRANCH  28  29
HETATM   29  C   UNL     1      -7.079  18.809  68.150  1.00  0.00    -0.250 C  
HETATM   30  N   UNL     1      -7.430  19.452  69.304  1.00  0.00    -0.304 N  
HETATM   31  O   UNL     1      -5.901  18.703  67.822  1.00  0.00    -0.178 OA 
HETATM   32  H1  UNL     1      -6.664  19.738  69.914  1.00  0.00     0.000 HD 
HETATM   33  H2  UNL     1      -8.404  19.635  69.542  1.00  0.00     0.000 HD 
ENDBRANCH  28  29
ENDBRANCH  22  24
ENDBRANCH  20  22
ENDBRANCH   6  20
TORSDOF 6
ENDMDL
MODEL      132
REMARK 921   NORMALIZED FREE ENERGY PREDICTED BY IDOCK:   -5.63 KCAL/MOL
REMARK 922        TOTAL FREE ENERGY PREDICTED BY IDOCK:   -8.70 KCAL/MOL
REMARK 923 INTER-LIGAND FREE ENERGY PREDICTED BY IDOCK:   -7.66 KCAL/MOL
REMARK 924 INTRA-LIGAND FREE ENERGY PREDICTED BY IDOCK:   -1.04 KCAL/MOL
REMARK 927      BINDING AFFINITY PREDICTED BY RF-SCORE:    0.00 PKD
ROOT
HETATM    1  C   UNL     1     -13.928   8.925  71.758  1.00  0.00    -0.448 C  
HETATM    2  C   UNL     1     -12.597   8.690  71.137  1.00  0.00    -0.149 A  
HETATM    3  C   UNL     1     -11.783   9.569  70.417  1.00  0.00    -0.170 A  
HETATM    4  S   UNL     1     -10.394   8.686  69.874  1.00  0.00    -0.214 SA 
HETATM    5  N   UNL     1     -12.081   7.412  71.315  1.00  0.00    -0.315 NA 
HETATM    6  C   UNL     1     -10.931   7.307  70.714  1.00  0.00    -0.251 A  
ENDROOT
BRANCH   3   7
HETATM    7  C   UNL     1     -11.935  10.993  70.052  1.00  0.00    -0.430 A  
HETATM    8  C   UNL     1     -12.493  13.304  70.609  1.00  0.00    -0.298 A  
HETATM    9  C   UNL     1     -11.868  12.759  68.443  1.00  0.00    -0.310 A  
HETATM   10  C   UNL     1     -12.348  11.962  70.987  1.00  0.00    -0.362 A  
HETATM   11  N   UNL     1     -12.267  13.691  69.332  1.00  0.00    -0.302 NA 
HETATM   12  C   UNL     1     -11.679  11.425  68.752  1.00  0.00    -0.404 A  
BRANCH   8  13
HETATM   13  C   UNL     1     -12.966  14.384  71.593  1.00  0.00    -0.412 C  
HETATM   14  F   UNL     1     -11.666  15.110  73.479  1.00  0.00    -0.506 F  
HETATM   15  C   UNL     1     -13.988  15.339  70.923  1.00  0.00    -0.250 C  
HETATM   16  C   UNL     1     -13.713  13.697  72.758  1.00  0.00    -0.354 C  
HETATM   17  F   UNL     1     -11.936  16.551  71.878  1.00  0.00    -0.502 F  
HETATM   18  F   UNL     1     -10.588  14.872  71.615  1.00  0.00    -0.103 F  
HETATM   19  C   UNL     1     -11.787  15.228  72.131  1.00  0.00    -0.439 C  
ENDBRANCH   8  13
ENDBRANCH   3   7
BRANCH   6  20
HETATM   20  N   UNL     1     -10.063   6.253  70.647  1.00  0.00    -0.186 N  
HETATM   21  H   UNL     1     -10.344   5.368  71.071  1.00  0.00     0.000 HD 
BRANCH  20  22
HETATM   22  C   UNL     1      -8.835   6.320  70.040  1.00  0.00    -0.142 C  
HETATM   23  O   UNL     1      -7.869   6.961  70.445  1.00  0.00    -0.104 OA 
BRANCH  22  24
HETATM   24  N   UNL     1      -8.740   5.581  68.868  1.00  0.00    -0.102 N  
HETATM   25  C   UNL     1      -9.069   4.167  68.828  1.00  0.00    -0.133 C  
HETATM   26  C   UNL     1      -8.117   3.606  67.788  1.00  0.00    -0.084 C  
HETATM   27  C   UNL     1      -7.945   4.742  66.783  1.00  0.00    -0.103 C  
HETATM   28  C   UNL     1      -8.210   6.026  67.574  1.00  0.00    -0.106 C  
BRANCH  28  29
HETATM   29  C   UNL     1      -9.230   6.913  66.838  1.00  0.00    -0.145 C  
HETATM   30  N   UNL     1      -8.798   8.154  66.460  1.00  0.00    -0.141 N  
HETATM   31  O   UNL     1     -10.407   6.589  66.701  1.00  0.00    -0.195 OA 
HETATM   32  H1  UNL     1      -9.474   8.741  65.972  1.00  0.00     0.000 HD 
HETATM   33  H2  UNL     1      -7.850   8.474  66.656  1.00  0.00     0.000 HD 
ENDBRANCH  28  29
ENDBRANCH  22  24
ENDBRANCH  20  22
ENDBRANCH   6  20
TORSDOF 6
ENDMDL
MODEL      133
REMARK 921   NORMALIZED FREE ENERGY PREDICTED BY IDOCK:   -5.63 KCAL/MOL
REMARK 922        TOTAL FREE ENERGY PREDICTED BY IDOCK:   -8.70 KCAL/MOL
REMARK 923 INTER-LIGAND FREE ENERGY PREDICTED BY IDOCK:   -7.40 KCAL/MOL
REMARK 924 INTRA-LIGAND FREE ENERGY PREDICTED BY IDOCK:   -1.29 KCAL/MOL
REMARK 927      BINDING AFFINITY PREDICTED BY RF-SCORE:    0.00 PKD
ROOT
HETATM    1  C   UNL     1      -6.744  10.643  69.356  1.00  0.00    -0.083 C  
HETATM    2  C   UNL     1      -7.917  11.391  68.829  1.00  0.00    -0.122 A  
HETATM    3  C   UNL     1      -9.230  10.958  68.625  1.00  0.00    -0.187 A  
HETATM    4  S   UNL     1     -10.116  12.262  67.905  1.00  0.00    -0.205 SA 
HETATM    5  N   UNL     1      -7.674  12.721  68.509  1.00  0.00    -0.131 NA 
HETATM    6  C   UNL     1      -8.754  13.273  68.037  1.00  0.00    -0.186 A  
ENDROOT
BRANCH   3   7
HETATM    7  C   UNL     1      -9.901   9.665  68.873  1.00  0.00    -0.179 A  
HETATM    8  C   UNL     1     -11.085   8.105  70.333  1.00  0.00    -0.239 A  
HETATM    9  C   UNL     1     -10.597   7.496  68.148  1.00  0.00    -0.145 A  
HETATM   10  C   UNL     1     -10.463   9.345  70.124  1.00  0.00    -0.280 A  
HETATM   11  N   UNL     1     -11.132   7.181  69.345  1.00  0.00    -0.161 NA 
HETATM   12  C   UNL     1      -9.993   8.707  67.865  1.00  0.00    -0.232 A  
BRANCH   8  13
HETATM   13  C   UNL     1     -11.685   7.710  71.689  1.00  0.00    -0.313 C  
HETATM   14  F   UNL     1     -13.020   9.197  73.024  1.00  0.00    -0.407 F  
HETATM   15  C   UNL     1     -11.874   6.174  71.788  1.00  0.00    -0.279 C  
HETATM   16  C   UNL     1     -10.686   8.097  72.803  1.00  0.00    -0.391 C  
HETATM   17  F   UNL     1     -14.046   7.493  72.153  1.00  0.00    -0.356 F  
HETATM   18  F   UNL     1     -13.461   9.166  70.903  1.00  0.00    -0.260 F  
HETATM   19  C   UNL     1     -13.053   8.389  71.933  1.00  0.00    -0.358 C  
ENDBRANCH   8  13
ENDBRANCH   3   7
BRANCH   6  20
HETATM   20  N   UNL     1      -8.982  14.556  67.623  1.00  0.00    -0.185 N  
HETATM   21  H   UNL     1      -8.859  14.773  66.634  1.00  0.00     0.000 HD 
BRANCH  20  22
HETATM   22  C   UNL     1      -9.366  15.566  68.468  1.00  0.00    -0.197 C  
HETATM   23  O   UNL     1      -9.556  15.458  69.676  1.00  0.00    -0.262 OA 
BRANCH  22  24
HETATM   24  N   UNL     1      -9.542  16.793  67.840  1.00  0.00    -0.233 N  
HETATM   25  C   UNL     1     -10.200  17.904  68.507  1.00  0.00    -0.390 C  
HETATM   26  C   UNL     1     -10.907  18.631  67.379  1.00  0.00    -0.381 C  
HETATM   27  C   UNL     1      -9.995  18.433  66.171  1.00  0.00    -0.330 C  
HETATM   28  C   UNL     1      -9.233  17.134  66.448  1.00  0.00    -0.258 C  
BRANCH  28  29
HETATM   29  C   UNL     1      -7.721  17.343  66.255  1.00  0.00    -0.305 C  
HETATM   30  N   UNL     1      -7.322  18.596  65.881  1.00  0.00    -0.245 N  
HETATM   31  O   UNL     1      -6.916  16.417  66.305  1.00  0.00    -0.101 OA 
HETATM   32  H1  UNL     1      -6.319  18.734  65.754  1.00  0.00     0.000 HD 
HETATM   33  H2  UNL     1      -7.991  19.352  65.738  1.00  0.00     0.000 HD 
ENDBRANCH  28  29
ENDBRANCH  22  24
ENDBRANCH  20  22
ENDBRANCH   6  20
TORSDOF 6
ENDMDL
MODEL      134
REMARK 921   NORMALIZED FREE ENERGY PREDICTED BY IDOCK:   -5.61 KCAL/MOL
REMARK 922        TOTAL FREE ENERGY PREDICTED BY IDOCK:   -8.67 KCAL/MOL
REMARK 923 INTER-LIGAND FREE ENERGY PREDICTED BY IDOCK:   -7.61 KCAL/MOL
REMARK 924 INTRA-LIGAND FREE ENERGY PREDICTED BY IDOCK:   -1.07 KCAL/MOL
REMARK 927      BINDING AFFINITY PREDICTED BY RF-SCORE:    0.00 PKD
ROOT
HETATM    1  C   UNL     1      -6.300  12.911  69.296  1.00  0.00    -0.108 C  
HETATM    2  C   UNL     1      -7.588  12.972  68.554  1.00  0.00    -0.121 A  
HETATM    3  C   UNL     1      -8.312  14.083  68.116  1.00  0.00    -0.164 A  
HETATM    4  S   UNL     1      -9.778  13.514  67.389  1.00  0.00    -0.235 SA 
HETATM    5  N   UNL     1      -8.143  11.738  68.235  1.00  0.00    -0.147 NA 
HETATM    6  C   UNL     1      -9.274  11.904  67.612  1.00  0.00    -0.183 A  
ENDROOT
BRANCH   3   7
HETATM    7  C   UNL     1      -8.056  15.537  68.207  1.00  0.00    -0.133 A  
HETATM    8  C   UNL     1      -8.589  17.850  67.634  1.00  0.00    -0.242 A  
HETATM    9  C   UNL     1      -6.764  17.389  68.990  1.00  0.00    -0.243 A  
HETATM   10  C   UNL     1      -8.862  16.478  67.538  1.00  0.00    -0.198 A  
HETATM   11  N   UNL     1      -7.528  18.295  68.349  1.00  0.00    -0.272 NA 
HETATM   12  C   UNL     1      -6.991  16.026  68.961  1.00  0.00    -0.165 A  
BRANCH   8  13
HETATM   13  C   UNL     1      -9.428  18.904  66.898  1.00  0.00    -0.345 C  
HETATM   14  F   UNL     1     -11.625  19.571  67.607  1.00  0.00    -0.262 F  
HETATM   15  C   UNL     1      -8.522  19.883  66.106  1.00  0.00    -0.350 C  
HETATM   16  C   UNL     1     -10.313  18.189  65.853  1.00  0.00    -0.284 C  
HETATM   17  F   UNL     1     -10.054  21.057  67.799  1.00  0.00    -0.494 F  
HETATM   18  F   UNL     1     -10.137  19.379  69.171  1.00  0.00    -0.459 F  
HETATM   19  C   UNL     1     -10.302  19.726  67.874  1.00  0.00    -0.433 C  
ENDBRANCH   8  13
ENDBRANCH   3   7
BRANCH   6  20
HETATM   20  N   UNL     1     -10.141  10.982  67.095  1.00  0.00    -0.188 N  
HETATM   21  H   UNL     1     -10.120  10.810  66.090  1.00  0.00     0.000 HD 
BRANCH  20  22
HETATM   22  C   UNL     1     -11.036  10.275  67.857  1.00  0.00    -0.276 C  
HETATM   23  O   UNL     1     -12.067  10.723  68.352  1.00  0.00    -0.501 OA 
BRANCH  22  24
HETATM   24  N   UNL     1     -10.689   8.944  68.051  1.00  0.00    -0.162 N  
HETATM   25  C   UNL     1     -10.460   8.044  66.934  1.00  0.00    -0.317 C  
HETATM   26  C   UNL     1     -10.936   6.700  67.453  1.00  0.00    -0.434 C  
HETATM   27  C   UNL     1     -10.614   6.735  68.944  1.00  0.00    -0.257 C  
HETATM   28  C   UNL     1     -10.617   8.219  69.324  1.00  0.00    -0.181 C  
BRANCH  28  29
HETATM   29  C   UNL     1      -9.333   8.582  70.092  1.00  0.00    -0.161 C  
HETATM   30  N   UNL     1      -8.183   8.652  69.357  1.00  0.00    -0.111 N  
HETATM   31  O   UNL     1      -9.305   8.682  71.316  1.00  0.00    -0.181 OA 
HETATM   32  H1  UNL     1      -7.333   8.892  69.867  1.00  0.00     0.000 HD 
HETATM   33  H2  UNL     1      -8.176   8.472  68.354  1.00  0.00     0.000 HD 
ENDBRANCH  28  29
ENDBRANCH  22  24
ENDBRANCH  20  22
ENDBRANCH   6  20
TORSDOF 6
ENDMDL
MODEL      135
REMARK 921   NORMALIZED FREE ENERGY PREDICTED BY IDOCK:   -5.60 KCAL/MOL
REMARK 922        TOTAL FREE ENERGY PREDICTED BY IDOCK:   -8.66 KCAL/MOL
REMARK 923 INTER-LIGAND FREE ENERGY PREDICTED BY IDOCK:   -7.76 KCAL/MOL
REMARK 924 INTRA-LIGAND FREE ENERGY PREDICTED BY IDOCK:   -0.90 KCAL/MOL
REMARK 927      BINDING AFFINITY PREDICTED BY RF-SCORE:    0.00 PKD
ROOT
HETATM    1  C   UNL     1      -8.934   8.650  65.605  1.00  0.00    -0.231 C  
HETATM    2  C   UNL     1      -8.611   9.706  66.601  1.00  0.00    -0.130 A  
HETATM    3  C   UNL     1      -8.389   9.595  67.976  1.00  0.00    -0.117 A  
HETATM    4  S   UNL     1      -8.146  11.190  68.608  1.00  0.00    -0.146 SA 
HETATM    5  N   UNL     1      -8.497  10.990  66.082  1.00  0.00    -0.168 NA 
HETATM    6  C   UNL     1      -8.238  11.837  67.037  1.00  0.00    -0.172 A  
ENDROOT
BRANCH   3   7
HETATM    7  C   UNL     1      -8.371   8.434  68.890  1.00  0.00    -0.119 A  
HETATM    8  C   UNL     1      -9.413   7.023  70.590  1.00  0.00    -0.165 A  
HETATM    9  C   UNL     1      -7.264   6.548  69.857  1.00  0.00    -0.077 A  
HETATM   10  C   UNL     1      -9.463   8.126  69.725  1.00  0.00    -0.159 A  
HETATM   11  N   UNL     1      -8.304   6.251  70.661  1.00  0.00    -0.131 NA 
HETATM   12  C   UNL     1      -7.255   7.602  68.962  1.00  0.00    -0.080 A  
BRANCH   8  13
HETATM   13  C   UNL     1     -10.573   6.672  71.533  1.00  0.00    -0.251 C  
HETATM   14  F   UNL     1     -10.582   7.218  73.872  1.00  0.00    -0.402 F  
HETATM   15  C   UNL     1     -11.904   6.529  70.749  1.00  0.00    -0.394 C  
HETATM   16  C   UNL     1     -10.292   5.291  72.167  1.00  0.00    -0.268 C  
HETATM   17  F   UNL     1     -12.009   8.278  72.626  1.00  0.00    -0.416 F  
HETATM   18  F   UNL     1      -9.901   8.779  72.533  1.00  0.00    -0.353 F  
HETATM   19  C   UNL     1     -10.764   7.742  72.633  1.00  0.00    -0.343 C  
ENDBRANCH   8  13
ENDBRANCH   3   7
BRANCH   6  20
HETATM   20  N   UNL     1      -8.023  13.186  66.986  1.00  0.00    -0.391 N  
HETATM   21  H   UNL     1      -7.199  13.525  66.488  1.00  0.00     0.000 HD 
BRANCH  20  22
HETATM   22  C   UNL     1      -8.855  14.108  67.569  1.00  0.00    -0.201 C  
HETATM   23  O   UNL     1      -8.717  14.590  68.690  1.00  0.00    -0.173 OA 
BRANCH  22  24
HETATM   24  N   UNL     1      -9.928  14.486  66.772  1.00  0.00    -0.257 N  
HETATM   25  C   UNL     1     -11.210  13.808  66.846  1.00  0.00    -0.313 C  
HETATM   26  C   UNL     1     -11.737  13.881  65.426  1.00  0.00    -0.347 C  
HETATM   27  C   UNL     1     -11.203  15.207  64.892  1.00  0.00    -0.424 C  
HETATM   28  C   UNL     1      -9.931  15.485  65.698  1.00  0.00    -0.360 C  
BRANCH  28  29
HETATM   29  C   UNL     1      -9.959  16.913  66.274  1.00  0.00    -0.309 C  
HETATM   30  N   UNL     1      -9.732  17.032  67.617  1.00  0.00    -0.253 N  
HETATM   31  O   UNL     1     -10.288  17.887  65.604  1.00  0.00    -0.605 OA 
HETATM   32  H1  UNL     1      -9.751  17.978  67.999  1.00  0.00     0.000 HD 
HETATM   33  H2  UNL     1      -9.555  16.218  68.206  1.00  0.00     0.000 HD 
ENDBRANCH  28  29
ENDBRANCH  22  24
ENDBRANCH  20  22
ENDBRANCH   6  20
TORSDOF 6
ENDMDL
MODEL      136
REMARK 921   NORMALIZED FREE ENERGY PREDICTED BY IDOCK:   -5.60 KCAL/MOL
REMARK 922        TOTAL FREE ENERGY PREDICTED BY IDOCK:   -8.65 KCAL/MOL
REMARK 923 INTER-LIGAND FREE ENERGY PREDICTED BY IDOCK:   -7.43 KCAL/MOL
REMARK 924 INTRA-LIGAND FREE ENERGY PREDICTED BY IDOCK:   -1.22 KCAL/MOL
REMARK 927      BINDING AFFINITY PREDICTED BY RF-SCORE:    0.00 PKD
ROOT
HETATM    1  C   UNL     1     -12.671  10.559  71.368  1.00  0.00    -0.547 C  
HETATM    2  C   UNL     1     -11.843  10.535  70.132  1.00  0.00    -0.320 A  
HETATM    3  C   UNL     1     -10.724   9.757  69.825  1.00  0.00    -0.256 A  
HETATM    4  S   UNL     1     -10.143  10.248  68.268  1.00  0.00    -0.161 SA 
HETATM    5  N   UNL     1     -12.255  11.405  69.129  1.00  0.00    -0.378 NA 
HETATM    6  C   UNL     1     -11.452  11.322  68.108  1.00  0.00    -0.306 A  
ENDROOT
BRANCH   3   7
HETATM    7  C   UNL     1     -10.008   8.704  70.576  1.00  0.00    -0.220 A  
HETATM    8  C   UNL     1      -8.894   6.534  70.697  1.00  0.00    -0.144 A  
HETATM    9  C   UNL     1      -9.114   7.825  72.611  1.00  0.00    -0.173 A  
HETATM   10  C   UNL     1      -9.563   7.520  69.957  1.00  0.00    -0.164 A  
HETATM   11  N   UNL     1      -8.689   6.688  72.026  1.00  0.00    -0.128 NA 
HETATM   12  C   UNL     1      -9.754   8.849  71.938  1.00  0.00    -0.349 A  
BRANCH   8  13
HETATM   13  C   UNL     1      -8.418   5.219  70.064  1.00  0.00    -0.101 C  
HETATM   14  F   UNL     1      -9.048   3.052  70.891  1.00  0.00    -0.127 F  
HETATM   15  C   UNL     1      -8.058   5.420  68.569  1.00  0.00    -0.095 C  
HETATM   16  C   UNL     1      -7.117   4.774  70.768  1.00  0.00    -0.044 C  
HETATM   17  F   UNL     1      -9.844   3.616  68.952  1.00  0.00    -0.234 F  
HETATM   18  F   UNL     1     -10.637   4.519  70.758  1.00  0.00    -0.203 F  
HETATM   19  C   UNL     1      -9.492   4.110  70.164  1.00  0.00    -0.184 C  
ENDBRANCH   8  13
ENDBRANCH   3   7
BRANCH   6  20
HETATM   20  N   UNL     1     -11.487  11.968  66.903  1.00  0.00    -0.341 N  
HETATM   21  H   UNL     1     -11.384  11.412  66.054  1.00  0.00     0.000 HD 
BRANCH  20  22
HETATM   22  C   UNL     1     -11.653  13.323  66.776  1.00  0.00    -0.365 C  
HETATM   23  O   UNL     1     -12.657  13.885  66.346  1.00  0.00    -0.413 OA 
BRANCH  22  24
HETATM   24  N   UNL     1     -10.554  14.070  67.181  1.00  0.00    -0.273 N  
HETATM   25  C   UNL     1      -9.460  14.372  66.274  1.00  0.00    -0.271 C  
HETATM   26  C   UNL     1      -8.242  14.397  67.179  1.00  0.00    -0.202 C  
HETATM   27  C   UNL     1      -8.771  14.928  68.509  1.00  0.00    -0.172 C  
HETATM   28  C   UNL     1     -10.255  14.553  68.533  1.00  0.00    -0.240 C  
BRANCH  28  29
HETATM   29  C   UNL     1     -11.116  15.779  68.883  1.00  0.00    -0.298 C  
HETATM   30  N   UNL     1     -10.598  17.002  68.556  1.00  0.00    -0.359 N  
HETATM   31  O   UNL     1     -12.154  15.691  69.533  1.00  0.00    -0.360 OA 
HETATM   32  H1  UNL     1     -11.169  17.814  68.789  1.00  0.00     0.000 HD 
HETATM   33  H2  UNL     1      -9.689  17.095  68.105  1.00  0.00     0.000 HD 
ENDBRANCH  28  29
ENDBRANCH  22  24
ENDBRANCH  20  22
ENDBRANCH   6  20
TORSDOF 6
ENDMDL
MODEL      137
REMARK 921   NORMALIZED FREE ENERGY PREDICTED BY IDOCK:   -5.59 KCAL/MOL
REMARK 922        TOTAL FREE ENERGY PREDICTED BY IDOCK:   -8.65 KCAL/MOL
REMARK 923 INTER-LIGAND FREE ENERGY PREDICTED BY IDOCK:   -7.56 KCAL/MOL
REMARK 924 INTRA-LIGAND FREE ENERGY PREDICTED BY IDOCK:   -1.10 KCAL/MOL
REMARK 927      BINDING AFFINITY PREDICTED BY RF-SCORE:    0.00 PKD
ROOT
HETATM    1  C   UNL     1     -12.113   8.262  72.274  1.00  0.00    -0.439 C  
HETATM    2  C   UNL     1     -11.068   8.337  71.218  1.00  0.00    -0.251 A  
HETATM    3  C   UNL     1     -10.759   9.382  70.344  1.00  0.00    -0.263 A  
HETATM    4  S   UNL     1      -9.502   8.836  69.283  1.00  0.00    -0.162 SA 
HETATM    5  N   UNL     1     -10.272   7.204  71.095  1.00  0.00    -0.192 NA 
HETATM    6  C   UNL     1      -9.412   7.365  70.131  1.00  0.00    -0.165 A  
ENDROOT
BRANCH   3   7
HETATM    7  C   UNL     1     -11.319  10.740  70.179  1.00  0.00    -0.390 A  
HETATM    8  C   UNL     1     -11.431  12.890  69.027  1.00  0.00    -0.308 A  
HETATM    9  C   UNL     1     -12.767  12.506  70.884  1.00  0.00    -0.182 A  
HETATM   10  C   UNL     1     -10.889  11.603  69.152  1.00  0.00    -0.231 A  
HETATM   11  N   UNL     1     -12.357  13.339  69.906  1.00  0.00    -0.219 NA 
HETATM   12  C   UNL     1     -12.296  11.217  71.050  1.00  0.00    -0.472 A  
BRANCH   8  13
HETATM   13  C   UNL     1     -10.969  13.869  67.938  1.00  0.00    -0.265 C  
HETATM   14  F   UNL     1     -10.528  13.206  65.671  1.00  0.00    -0.263 F  
HETATM   15  C   UNL     1     -11.416  15.317  68.265  1.00  0.00    -0.359 C  
HETATM   16  C   UNL     1      -9.424  13.886  67.913  1.00  0.00    -0.212 C  
HETATM   17  F   UNL     1     -12.255  14.483  65.986  1.00  0.00    -0.380 F  
HETATM   18  F   UNL     1     -12.325  12.394  66.567  1.00  0.00    -0.378 F  
HETATM   19  C   UNL     1     -11.527  13.486  66.547  1.00  0.00    -0.339 C  
ENDBRANCH   8  13
ENDBRANCH   3   7
BRANCH   6  20
HETATM   20  N   UNL     1      -8.428   6.531  69.680  1.00  0.00    -0.130 N  
HETATM   21  H   UNL     1      -7.466   6.871  69.685  1.00  0.00     0.000 HD 
BRANCH  20  22
HETATM   22  C   UNL     1      -8.664   5.260  69.219  1.00  0.00    -0.100 C  
HETATM   23  O   UNL     1      -9.014   4.303  69.904  1.00  0.00    -0.083 OA 
BRANCH  22  24
HETATM   24  N   UNL     1      -8.472   5.107  67.852  1.00  0.00    -0.104 N  
HETATM   25  C   UNL     1      -7.570   4.102  67.316  1.00  0.00    -0.077 C  
HETATM   26  C   UNL     1      -7.017   4.750  66.060  1.00  0.00    -0.066 C  
HETATM   27  C   UNL     1      -8.166   5.612  65.543  1.00  0.00    -0.129 C  
HETATM   28  C   UNL     1      -9.005   5.951  66.777  1.00  0.00    -0.120 C  
BRANCH  28  29
HETATM   29  C   UNL     1     -10.491   5.641  66.521  1.00  0.00    -0.249 C  
HETATM   30  N   UNL     1     -11.398   6.355  67.255  1.00  0.00    -0.731 N  
HETATM   31  O   UNL     1     -10.856   4.719  65.797  1.00  0.00    -0.295 OA 
HETATM   32  H1  UNL     1     -12.382   6.149  67.085  1.00  0.00     0.000 HD 
HETATM   33  H2  UNL     1     -11.104   7.056  67.935  1.00  0.00     0.000 HD 
ENDBRANCH  28  29
ENDBRANCH  22  24
ENDBRANCH  20  22
ENDBRANCH   6  20
TORSDOF 6
ENDMDL
MODEL      138
REMARK 921   NORMALIZED FREE ENERGY PREDICTED BY IDOCK:   -5.58 KCAL/MOL
REMARK 922        TOTAL FREE ENERGY PREDICTED BY IDOCK:   -8.63 KCAL/MOL
REMARK 923 INTER-LIGAND FREE ENERGY PREDICTED BY IDOCK:   -7.44 KCAL/MOL
REMARK 924 INTRA-LIGAND FREE ENERGY PREDICTED BY IDOCK:   -1.19 KCAL/MOL
REMARK 927      BINDING AFFINITY PREDICTED BY RF-SCORE:    0.00 PKD
ROOT
HETATM    1  C   UNL     1     -11.263  10.890  68.207  1.00  0.00    -0.347 C  
HETATM    2  C   UNL     1     -10.546  12.114  67.762  1.00  0.00    -0.204 A  
HETATM    3  C   UNL     1      -9.896  12.375  66.553  1.00  0.00    -0.235 A  
HETATM    4  S   UNL     1      -9.173  13.946  66.663  1.00  0.00    -0.195 SA 
HETATM    5  N   UNL     1     -10.536  13.159  68.679  1.00  0.00    -0.252 NA 
HETATM    6  C   UNL     1      -9.865  14.167  68.201  1.00  0.00    -0.229 A  
ENDROOT
BRANCH   3   7
HETATM    7  C   UNL     1      -9.718  11.572  65.325  1.00  0.00    -0.268 A  
HETATM    8  C   UNL     1      -8.521   9.897  64.010  1.00  0.00    -0.180 A  
HETATM    9  C   UNL     1     -10.363  10.975  63.102  1.00  0.00    -0.189 A  
HETATM   10  C   UNL     1      -8.671  10.639  65.191  1.00  0.00    -0.196 A  
HETATM   11  N   UNL     1      -9.361  10.084  62.965  1.00  0.00    -0.294 NA 
HETATM   12  C   UNL     1     -10.586  11.720  64.245  1.00  0.00    -0.386 A  
BRANCH   8  13
HETATM   13  C   UNL     1      -7.378   8.891  63.817  1.00  0.00    -0.101 C  
HETATM   14  F   UNL     1      -6.557   7.474  65.576  1.00  0.00    -0.043 F  
HETATM   15  C   UNL     1      -7.266   8.454  62.333  1.00  0.00    -0.098 C  
HETATM   16  C   UNL     1      -6.044   9.586  64.167  1.00  0.00    -0.095 C  
HETATM   17  F   UNL     1      -7.606   6.489  63.950  1.00  0.00    -0.074 F  
HETATM   18  F   UNL     1      -8.712   7.643  65.416  1.00  0.00    -0.152 F  
HETATM   19  C   UNL     1      -7.573   7.626  64.687  1.00  0.00    -0.111 C  
ENDBRANCH   8  13
ENDBRANCH   3   7
BRANCH   6  20
HETATM   20  N   UNL     1      -9.621  15.399  68.741  1.00  0.00    -0.199 N  
HETATM   21  H   UNL     1      -8.663  15.628  69.008  1.00  0.00     0.000 HD 
BRANCH  20  22
HETATM   22  C   UNL     1     -10.595  16.344  68.942  1.00  0.00    -0.307 C  
HETATM   23  O   UNL     1     -11.609  16.195  69.618  1.00  0.00    -0.312 OA 
BRANCH  22  24
HETATM   24  N   UNL     1     -10.357  17.550  68.296  1.00  0.00    -0.359 N  
HETATM   25  C   UNL     1      -9.607  18.621  68.931  1.00  0.00    -0.293 C  
HETATM   26  C   UNL     1     -10.247  19.881  68.381  1.00  0.00    -0.557 C  
HETATM   27  C   UNL     1     -10.673  19.502  66.965  1.00  0.00    -0.592 C  
HETATM   28  C   UNL     1     -10.884  17.986  66.999  1.00  0.00    -0.118 C  
BRANCH  28  29
HETATM   29  C   UNL     1     -10.128  17.309  65.842  1.00  0.00    -0.211 C  
HETATM   30  N   UNL     1     -10.872  16.531  64.999  1.00  0.00    -0.324 N  
HETATM   31  O   UNL     1      -8.905  17.352  65.741  1.00  0.00    -0.522 OA 
HETATM   32  H1  UNL     1     -10.370  16.083  64.233  1.00  0.00     0.000 HD 
HETATM   33  H2  UNL     1     -11.876  16.406  65.131  1.00  0.00     0.000 HD 
ENDBRANCH  28  29
ENDBRANCH  22  24
ENDBRANCH  20  22
ENDBRANCH   6  20
TORSDOF 6
ENDMDL
MODEL      139
REMARK 921   NORMALIZED FREE ENERGY PREDICTED BY IDOCK:   -5.58 KCAL/MOL
REMARK 922        TOTAL FREE ENERGY PREDICTED BY IDOCK:   -8.63 KCAL/MOL
REMARK 923 INTER-LIGAND FREE ENERGY PREDICTED BY IDOCK:   -7.67 KCAL/MOL
REMARK 924 INTRA-LIGAND FREE ENERGY PREDICTED BY IDOCK:   -0.96 KCAL/MOL
REMARK 927      BINDING AFFINITY PREDICTED BY RF-SCORE:    0.00 PKD
ROOT
HETATM    1  C   UNL     1     -12.377  13.830  65.453  1.00  0.00    -0.504 C  
HETATM    2  C   UNL     1     -11.846  13.071  66.617  1.00  0.00    -0.393 A  
HETATM    3  C   UNL     1     -11.273  13.542  67.801  1.00  0.00    -0.282 A  
HETATM    4  S   UNL     1     -10.766  12.172  68.732  1.00  0.00    -0.190 SA 
HETATM    5  N   UNL     1     -11.950  11.689  66.517  1.00  0.00    -0.376 NA 
HETATM    6  C   UNL     1     -11.436  11.124  67.571  1.00  0.00    -0.216 A  
ENDROOT
BRANCH   3   7
HETATM    7  C   UNL     1     -11.024  14.907  68.311  1.00  0.00    -0.268 A  
HETATM    8  C   UNL     1     -10.468  17.260  67.965  1.00  0.00    -0.375 A  
HETATM    9  C   UNL     1     -10.812  16.461  70.116  1.00  0.00    -0.261 A  
HETATM   10  C   UNL     1     -10.709  15.978  67.452  1.00  0.00    -0.306 A  
HETATM   11  N   UNL     1     -10.505  17.488  69.299  1.00  0.00    -0.237 NA 
HETATM   12  C   UNL     1     -11.087  15.179  69.676  1.00  0.00    -0.283 A  
BRANCH   8  13
HETATM   13  C   UNL     1     -10.096  18.445  67.063  1.00  0.00    -0.382 C  
HETATM   14  F   UNL     1      -8.214  19.880  67.480  1.00  0.00    -0.317 F  
HETATM   15  C   UNL     1     -10.623  18.234  65.620  1.00  0.00    -0.107 C  
HETATM   16  C   UNL     1     -10.796  19.714  67.600  1.00  0.00    -0.413 C  
HETATM   17  F   UNL     1      -8.085  18.599  65.733  1.00  0.00    -0.223 F  
HETATM   18  F   UNL     1      -7.862  17.756  67.718  1.00  0.00    -0.202 F  
HETATM   19  C   UNL     1      -8.565  18.660  66.999  1.00  0.00    -0.276 C  
ENDBRANCH   8  13
ENDBRANCH   3   7
BRANCH   6  20
HETATM   20  N   UNL     1     -11.345   9.802  67.908  1.00  0.00    -0.467 N  
HETATM   21  H   UNL     1     -12.147   9.200  67.722  1.00  0.00     0.000 HD 
BRANCH  20  22
HETATM   22  C   UNL     1     -10.232   9.243  68.484  1.00  0.00    -0.201 C  
HETATM   23  O   UNL     1      -9.862   9.413  69.642  1.00  0.00    -0.174 OA 
BRANCH  22  24
HETATM   24  N   UNL     1      -9.502   8.427  67.630  1.00  0.00    -0.146 N  
HETATM   25  C   UNL     1      -9.840   7.028  67.435  1.00  0.00    -0.154 C  
HETATM   26  C   UNL     1      -8.497   6.362  67.202  1.00  0.00    -0.112 C  
HETATM   27  C   UNL     1      -7.671   7.423  66.480  1.00  0.00    -0.093 C  
HETATM   28  C   UNL     1      -8.267   8.765  66.913  1.00  0.00    -0.108 C  
BRANCH  28  29
HETATM   29  C   UNL     1      -8.566   9.645  65.686  1.00  0.00    -0.136 C  
HETATM   30  N   UNL     1      -8.205  10.960  65.777  1.00  0.00    -0.261 N  
HETATM   31  O   UNL     1      -9.207   9.234  64.723  1.00  0.00    -0.209 OA 
HETATM   32  H1  UNL     1      -8.404  11.543  64.964  1.00  0.00     0.000 HD 
HETATM   33  H2  UNL     1      -7.760  11.338  66.613  1.00  0.00     0.000 HD 
ENDBRANCH  28  29
ENDBRANCH  22  24
ENDBRANCH  20  22
ENDBRANCH   6  20
TORSDOF 6
ENDMDL
MODEL      140
REMARK 921   NORMALIZED FREE ENERGY PREDICTED BY IDOCK:   -5.58 KCAL/MOL
REMARK 922        TOTAL FREE ENERGY PREDICTED BY IDOCK:   -8.63 KCAL/MOL
REMARK 923 INTER-LIGAND FREE ENERGY PREDICTED BY IDOCK:   -7.26 KCAL/MOL
REMARK 924 INTRA-LIGAND FREE ENERGY PREDICTED BY IDOCK:   -1.37 KCAL/MOL
REMARK 927      BINDING AFFINITY PREDICTED BY RF-SCORE:    0.00 PKD
ROOT
HETATM    1  C   UNL     1      -9.540   8.612  70.063  1.00  0.00    -0.175 C  
HETATM    2  C   UNL     1      -9.851   9.278  68.771  1.00  0.00    -0.165 A  
HETATM    3  C   UNL     1      -9.308   9.059  67.502  1.00  0.00    -0.135 A  
HETATM    4  S   UNL     1     -10.012  10.209  66.413  1.00  0.00    -0.243 SA 
HETATM    5  N   UNL     1     -10.841  10.252  68.832  1.00  0.00    -0.217 NA 
HETATM    6  C   UNL     1     -11.017  10.787  67.658  1.00  0.00    -0.306 A  
ENDROOT
BRANCH   3   7
HETATM    7  C   UNL     1      -8.291   8.108  67.006  1.00  0.00    -0.116 A  
HETATM    8  C   UNL     1      -7.645   5.932  66.106  1.00  0.00    -0.090 A  
HETATM    9  C   UNL     1      -6.020   7.531  66.534  1.00  0.00    -0.040 A  
HETATM   10  C   UNL     1      -8.633   6.816  66.562  1.00  0.00    -0.128 A  
HETATM   11  N   UNL     1      -6.340   6.291  66.112  1.00  0.00    -0.037 NA 
HETATM   12  C   UNL     1      -6.944   8.462  66.970  1.00  0.00    -0.074 A  
BRANCH   8  13
HETATM   13  C   UNL     1      -7.975   4.507  65.639  1.00  0.00    -0.095 C  
HETATM   14  F   UNL     1      -9.801   3.994  64.164  1.00  0.00    -0.152 F  
HETATM   15  C   UNL     1      -6.718   3.600  65.686  1.00  0.00    -0.048 C  
HETATM   16  C   UNL     1      -8.994   3.889  66.623  1.00  0.00    -0.141 C  
HETATM   17  F   UNL     1      -7.803   3.717  63.362  1.00  0.00    -0.072 F  
HETATM   18  F   UNL     1      -8.601   5.716  63.629  1.00  0.00    -0.119 F  
HETATM   19  C   UNL     1      -8.538   4.491  64.198  1.00  0.00    -0.132 C  
ENDBRANCH   8  13
ENDBRANCH   3   7
BRANCH   6  20
HETATM   20  N   UNL     1     -11.894  11.753  67.251  1.00  0.00    -0.202 N  
HETATM   21  H   UNL     1     -12.713  11.467  66.715  1.00  0.00     0.000 HD 
BRANCH  20  22
HETATM   22  C   UNL     1     -11.730  13.087  67.525  1.00  0.00    -0.370 C  
HETATM   23  O   UNL     1     -11.961  13.632  68.601  1.00  0.00    -0.350 OA 
BRANCH  22  24
HETATM   24  N   UNL     1     -11.264  13.834  66.451  1.00  0.00    -0.311 N  
HETATM   25  C   UNL     1      -9.869  14.223  66.339  1.00  0.00    -0.296 C  
HETATM   26  C   UNL     1      -9.927  15.572  65.647  1.00  0.00    -0.394 C  
HETATM   27  C   UNL     1     -11.136  15.469  64.721  1.00  0.00    -0.421 C  
HETATM   28  C   UNL     1     -12.056  14.432  65.371  1.00  0.00    -0.364 C  
BRANCH  28  29
HETATM   29  C   UNL     1     -12.480  13.367  64.344  1.00  0.00    -0.277 C  
HETATM   30  N   UNL     1     -12.200  13.639  63.033  1.00  0.00    -0.963 N  
HETATM   31  O   UNL     1     -13.144  12.382  64.653  1.00  0.00    -0.825 OA 
HETATM   32  H1  UNL     1     -12.481  12.933  62.353  1.00  0.00     0.000 HD 
HETATM   33  H2  UNL     1     -11.736  14.503  62.752  1.00  0.00     0.000 HD 
ENDBRANCH  28  29
ENDBRANCH  22  24
ENDBRANCH  20  22
ENDBRANCH   6  20
TORSDOF 6
ENDMDL
MODEL      141
REMARK 921   NORMALIZED FREE ENERGY PREDICTED BY IDOCK:   -5.57 KCAL/MOL
REMARK 922        TOTAL FREE ENERGY PREDICTED BY IDOCK:   -8.62 KCAL/MOL
REMARK 923 INTER-LIGAND FREE ENERGY PREDICTED BY IDOCK:   -7.60 KCAL/MOL
REMARK 924 INTRA-LIGAND FREE ENERGY PREDICTED BY IDOCK:   -1.03 KCAL/MOL
REMARK 927      BINDING AFFINITY PREDICTED BY RF-SCORE:    0.00 PKD
ROOT
HETATM    1  C   UNL     1     -11.825  12.733  68.425  1.00  0.00    -0.353 C  
HETATM    2  C   UNL     1     -11.203  12.165  67.200  1.00  0.00    -0.314 A  
HETATM    3  C   UNL     1     -10.893  12.786  65.988  1.00  0.00    -0.276 A  
HETATM    4  S   UNL     1     -10.265  11.580  64.913  1.00  0.00    -0.290 SA 
HETATM    5  N   UNL     1     -10.864  10.819  67.280  1.00  0.00    -0.278 NA 
HETATM    6  C   UNL     1     -10.352  10.418  66.153  1.00  0.00    -0.200 A  
ENDROOT
BRANCH   3   7
HETATM    7  C   UNL     1     -11.044  14.180  65.517  1.00  0.00    -0.310 A  
HETATM    8  C   UNL     1     -10.639  16.578  65.743  1.00  0.00    -0.296 A  
HETATM    9  C   UNL     1     -11.922  15.786  63.980  1.00  0.00     0.156 A  
HETATM   10  C   UNL     1     -10.471  15.265  66.208  1.00  0.00    -0.313 A  
HETATM   11  N   UNL     1     -11.380  16.830  64.639  1.00  0.00    -0.837 NA 
HETATM   12  C   UNL     1     -11.774  14.467  64.366  1.00  0.00    -0.390 A  
BRANCH   8  13
HETATM   13  C   UNL     1     -10.052  17.788  66.483  1.00  0.00    -0.358 C  
HETATM   14  F   UNL     1      -8.085  17.666  67.858  1.00  0.00    -0.213 F  
HETATM   15  C   UNL     1     -10.443  19.114  65.780  1.00  0.00    -0.404 C  
HETATM   16  C   UNL     1     -10.668  17.848  67.899  1.00  0.00    -0.328 C  
HETATM   17  F   UNL     1      -7.907  18.796  66.013  1.00  0.00    -0.280 F  
HETATM   18  F   UNL     1      -7.984  16.629  65.959  1.00  0.00    -0.326 F  
HETATM   19  C   UNL     1      -8.509  17.716  66.569  1.00  0.00    -0.264 C  
ENDBRANCH   8  13
ENDBRANCH   3   7
BRANCH   6  20
HETATM   20  N   UNL     1      -9.861   9.195  65.792  1.00  0.00    -0.444 N  
HETATM   21  H   UNL     1     -10.357   8.362  66.109  1.00  0.00     0.000 HD 
BRANCH  20  22
HETATM   22  C   UNL     1      -8.735   9.027  65.025  1.00  0.00    -0.183 C  
HETATM   23  O   UNL     1      -8.699   9.020  63.798  1.00  0.00    -0.175 OA 
BRANCH  22  24
HETATM   24  N   UNL     1      -7.570   8.852  65.760  1.00  0.00    -0.089 N  
HETATM   25  C   UNL     1      -6.642   7.771  65.474  1.00  0.00    -0.045 C  
HETATM   26  C   UNL     1      -6.074   7.417  66.835  1.00  0.00    -0.046 C  
HETATM   27  C   UNL     1      -6.047   8.743  67.590  1.00  0.00    -0.048 C  
HETATM   28  C   UNL     1      -7.148   9.594  66.953  1.00  0.00    -0.086 C  
BRANCH  28  29
HETATM   29  C   UNL     1      -6.606  10.984  66.574  1.00  0.00    -0.132 C  
HETATM   30  N   UNL     1      -7.376  12.056  66.929  1.00  0.00    -0.332 N  
HETATM   31  O   UNL     1      -5.604  11.132  65.881  1.00  0.00    -0.144 OA 
HETATM   32  H1  UNL     1      -7.017  12.977  66.677  1.00  0.00     0.000 HD 
HETATM   33  H2  UNL     1      -8.263  11.941  67.418  1.00  0.00     0.000 HD 
ENDBRANCH  28  29
ENDBRANCH  22  24
ENDBRANCH  20  22
ENDBRANCH   6  20
TORSDOF 6
ENDMDL
MODEL      142
REMARK 921   NORMALIZED FREE ENERGY PREDICTED BY IDOCK:   -5.56 KCAL/MOL
REMARK 922        TOTAL FREE ENERGY PREDICTED BY IDOCK:   -8.61 KCAL/MOL
REMARK 923 INTER-LIGAND FREE ENERGY PREDICTED BY IDOCK:   -7.43 KCAL/MOL
REMARK 924 INTRA-LIGAND FREE ENERGY PREDICTED BY IDOCK:   -1.18 KCAL/MOL
REMARK 927      BINDING AFFINITY PREDICTED BY RF-SCORE:    0.00 PKD
ROOT
HETATM    1  C   UNL     1     -12.124  13.394  69.030  1.00  0.00    -0.299 C  
HETATM    2  C   UNL     1     -10.940  12.854  68.311  1.00  0.00    -0.256 A  
HETATM    3  C   UNL     1     -10.128  13.461  67.350  1.00  0.00    -0.237 A  
HETATM    4  S   UNL     1      -8.963  12.293  66.819  1.00  0.00    -0.192 SA 
HETATM    5  N   UNL     1     -10.579  11.557  68.659  1.00  0.00    -0.201 NA 
HETATM    6  C   UNL     1      -9.552  11.175  67.957  1.00  0.00    -0.176 A  
ENDROOT
BRANCH   3   7
HETATM    7  C   UNL     1     -10.139  14.811  66.747  1.00  0.00    -0.258 A  
HETATM    8  C   UNL     1      -9.558  17.183  66.785  1.00  0.00    -0.270 A  
HETATM    9  C   UNL     1     -10.792  16.326  65.018  1.00  0.00    -0.320 A  
HETATM   10  C   UNL     1      -9.523  15.911  67.375  1.00  0.00    -0.220 A  
HETATM   11  N   UNL     1     -10.209  17.384  65.615  1.00  0.00    -0.616 NA 
HETATM   12  C   UNL     1     -10.773  15.042  65.529  1.00  0.00    -0.372 A  
BRANCH   8  13
HETATM   13  C   UNL     1      -8.922  18.411  67.451  1.00  0.00    -0.265 C  
HETATM   14  F   UNL     1      -9.847  20.623  67.298  1.00  0.00    -0.563 F  
HETATM   15  C   UNL     1      -8.062  17.998  68.674  1.00  0.00    -0.293 C  
HETATM   16  C   UNL     1      -7.955  19.074  66.444  1.00  0.00    -0.300 C  
HETATM   17  F   UNL     1      -9.911  19.682  69.253  1.00  0.00    -0.460 F  
HETATM   18  F   UNL     1     -11.258  19.026  67.685  1.00  0.00    -0.452 F  
HETATM   19  C   UNL     1      -9.989  19.427  67.924  1.00  0.00    -0.380 C  
ENDBRANCH   8  13
ENDBRANCH   3   7
BRANCH   6  20
HETATM   20  N   UNL     1      -8.853  10.000  67.984  1.00  0.00    -0.125 N  
HETATM   21  H   UNL     1      -8.124   9.889  68.688  1.00  0.00     0.000 HD 
BRANCH  20  22
HETATM   22  C   UNL     1      -9.080   8.964  67.114  1.00  0.00    -0.138 C  
HETATM   23  O   UNL     1     -10.074   8.244  67.101  1.00  0.00    -0.209 OA 
BRANCH  22  24
HETATM   24  N   UNL     1      -8.058   8.761  66.196  1.00  0.00    -0.105 N  
HETATM   25  C   UNL     1      -8.333   8.421  64.810  1.00  0.00    -0.141 C  
HETATM   26  C   UNL     1      -7.172   7.525  64.424  1.00  0.00    -0.081 C  
HETATM   27  C   UNL     1      -5.993   8.064  65.230  1.00  0.00    -0.045 C  
HETATM   28  C   UNL     1      -6.615   8.730  66.460  1.00  0.00    -0.063 C  
BRANCH  28  29
HETATM   29  C   UNL     1      -6.059  10.153  66.644  1.00  0.00    -0.065 C  
HETATM   30  N   UNL     1      -5.764  10.844  65.501  1.00  0.00    -0.289 N  
HETATM   31  O   UNL     1      -5.770  10.610  67.746  1.00  0.00    -0.043 OA 
HETATM   32  H1  UNL     1      -5.395  11.787  65.623  1.00  0.00     0.000 HD 
HETATM   33  H2  UNL     1      -5.906  10.438  64.577  1.00  0.00     0.000 HD 
ENDBRANCH  28  29
ENDBRANCH  22  24
ENDBRANCH  20  22
ENDBRANCH   6  20
TORSDOF 6
ENDMDL
MODEL      143
REMARK 921   NORMALIZED FREE ENERGY PREDICTED BY IDOCK:   -5.56 KCAL/MOL
REMARK 922        TOTAL FREE ENERGY PREDICTED BY IDOCK:   -8.60 KCAL/MOL
REMARK 923 INTER-LIGAND FREE ENERGY PREDICTED BY IDOCK:   -7.22 KCAL/MOL
REMARK 924 INTRA-LIGAND FREE ENERGY PREDICTED BY IDOCK:   -1.38 KCAL/MOL
REMARK 927      BINDING AFFINITY PREDICTED BY RF-SCORE:    0.00 PKD
ROOT
HETATM    1  C   UNL     1      -7.832   9.345  70.339  1.00  0.00    -0.179 C  
HETATM    2  C   UNL     1      -9.309   9.522  70.336  1.00  0.00    -0.257 A  
HETATM    3  C   UNL     1     -10.300   8.755  70.955  1.00  0.00    -0.223 A  
HETATM    4  S   UNL     1     -11.840   9.412  70.510  1.00  0.00    -0.084 SA 
HETATM    5  N   UNL     1      -9.769  10.625  69.627  1.00  0.00    -0.067 NA 
HETATM    6  C   UNL     1     -11.069  10.673  69.668  1.00  0.00    -0.284 A  
ENDROOT
BRANCH   3   7
HETATM    7  C   UNL     1     -10.236   7.557  71.818  1.00  0.00    -0.216 A  
HETATM    8  C   UNL     1      -9.765   5.186  72.169  1.00  0.00    -0.162 A  
HETATM    9  C   UNL     1     -10.572   6.473  73.922  1.00  0.00    -0.230 A  
HETATM   10  C   UNL     1      -9.806   6.308  71.328  1.00  0.00    -0.197 A  
HETATM   11  N   UNL     1     -10.166   5.274  73.459  1.00  0.00    -0.186 NA 
HETATM   12  C   UNL     1     -10.611   7.624  73.158  1.00  0.00    -0.438 A  
BRANCH   8  13
HETATM   13  C   UNL     1      -9.328   3.803  71.665  1.00  0.00    -0.198 C  
HETATM   14  F   UNL     1      -7.152   3.362  70.746  1.00  0.00    -0.032 F  
HETATM   15  C   UNL     1     -10.135   2.676  72.361  1.00  0.00    -0.236 C  
HETATM   16  C   UNL     1      -9.651   3.702  70.157  1.00  0.00    -0.242 C  
HETATM   17  F   UNL     1      -7.596   2.446  72.663  1.00  0.00    -0.045 F  
HETATM   18  F   UNL     1      -7.199   4.574  72.541  1.00  0.00    -0.067 F  
HETATM   19  C   UNL     1      -7.822   3.551  71.912  1.00  0.00    -0.062 C  
ENDBRANCH   8  13
ENDBRANCH   3   7
BRANCH   6  20
HETATM   20  N   UNL     1     -11.936  11.588  69.137  1.00  0.00    -0.330 N  
HETATM   21  H   UNL     1     -12.918  11.327  69.048  1.00  0.00     0.000 HD 
BRANCH  20  22
HETATM   22  C   UNL     1     -11.555  12.838  68.719  1.00  0.00    -0.312 C  
HETATM   23  O   UNL     1     -11.142  13.740  69.442  1.00  0.00    -0.231 OA 
BRANCH  22  24
HETATM   24  N   UNL     1     -11.672  13.038  67.350  1.00  0.00    -0.361 N  
HETATM   25  C   UNL     1     -11.934  14.352  66.790  1.00  0.00    -0.399 C  
HETATM   26  C   UNL     1     -12.771  14.058  65.560  1.00  0.00    -0.517 C  
HETATM   27  C   UNL     1     -12.249  12.714  65.060  1.00  0.00    -0.535 C  
HETATM   28  C   UNL     1     -11.679  12.016  66.297  1.00  0.00    -0.246 C  
BRANCH  28  29
HETATM   29  C   UNL     1     -10.254  11.503  66.019  1.00  0.00    -0.242 C  
HETATM   30  N   UNL     1      -9.442  12.326  65.289  1.00  0.00    -0.442 N  
HETATM   31  O   UNL     1      -9.892  10.369  66.320  1.00  0.00    -0.199 OA 
HETATM   32  H1  UNL     1      -8.499  11.986  65.104  1.00  0.00     0.000 HD 
HETATM   33  H2  UNL     1      -9.764  13.231  64.946  1.00  0.00     0.000 HD 
ENDBRANCH  28  29
ENDBRANCH  22  24
ENDBRANCH  20  22
ENDBRANCH   6  20
TORSDOF 6
ENDMDL
MODEL      144
REMARK 921   NORMALIZED FREE ENERGY PREDICTED BY IDOCK:   -5.55 KCAL/MOL
REMARK 922        TOTAL FREE ENERGY PREDICTED BY IDOCK:   -8.60 KCAL/MOL
REMARK 923 INTER-LIGAND FREE ENERGY PREDICTED BY IDOCK:   -7.20 KCAL/MOL
REMARK 924 INTRA-LIGAND FREE ENERGY PREDICTED BY IDOCK:   -1.40 KCAL/MOL
REMARK 927      BINDING AFFINITY PREDICTED BY RF-SCORE:    0.00 PKD
ROOT
HETATM    1  C   UNL     1     -11.336   9.519  71.498  1.00  0.00    -0.456 C  
HETATM    2  C   UNL     1     -11.112  10.340  70.278  1.00  0.00    -0.319 A  
HETATM    3  C   UNL     1     -10.201  10.155  69.235  1.00  0.00    -0.223 A  
HETATM    4  S   UNL     1     -10.357  11.493  68.146  1.00  0.00    -0.202 SA 
HETATM    5  N   UNL     1     -11.944  11.446  70.150  1.00  0.00    -0.352 NA 
HETATM    6  C   UNL     1     -11.649  12.105  69.067  1.00  0.00    -0.319 A  
ENDROOT
BRANCH   3   7
HETATM    7  C   UNL     1      -9.193   9.106  68.968  1.00  0.00    -0.143 A  
HETATM    8  C   UNL     1      -8.581   6.800  68.446  1.00  0.00    -0.125 A  
HETATM    9  C   UNL     1      -6.922   8.387  68.778  1.00  0.00    -0.063 A  
HETATM   10  C   UNL     1      -9.560   7.776  68.685  1.00  0.00    -0.154 A  
HETATM   11  N   UNL     1      -7.265   7.111  68.511  1.00  0.00    -0.091 NA 
HETATM   12  C   UNL     1      -7.833   9.404  68.997  1.00  0.00    -0.079 A  
BRANCH   8  13
HETATM   13  C   UNL     1      -8.941   5.336  68.160  1.00  0.00    -0.115 C  
HETATM   14  F   UNL     1     -10.592   4.674  66.544  1.00  0.00    -0.283 F  
HETATM   15  C   UNL     1      -7.761   4.393  68.515  1.00  0.00    -0.074 C  
HETATM   16  C   UNL     1     -10.115   4.927  69.077  1.00  0.00    -0.210 C  
HETATM   17  F   UNL     1      -8.529   4.187  66.074  1.00  0.00    -0.107 F  
HETATM   18  F   UNL     1      -9.224   6.236  65.923  1.00  0.00    -0.169 F  
HETATM   19  C   UNL     1      -9.314   5.115  66.675  1.00  0.00    -0.137 C  
ENDBRANCH   8  13
ENDBRANCH   3   7
BRANCH   6  20
HETATM   20  N   UNL     1     -12.218  13.228  68.535  1.00  0.00    -0.187 N  
HETATM   21  H   UNL     1     -13.069  13.123  67.982  1.00  0.00     0.000 HD 
BRANCH  20  22
HETATM   22  C   UNL     1     -11.706  14.489  68.706  1.00  0.00    -0.327 C  
HETATM   23  O   UNL     1     -11.732  15.138  69.748  1.00  0.00    -0.278 OA 
BRANCH  22  24
HETATM   24  N   UNL     1     -11.125  15.025  67.564  1.00  0.00    -0.308 N  
HETATM   25  C   UNL     1     -11.531  14.608  66.233  1.00  0.00    -0.351 C  
HETATM   26  C   UNL     1     -10.254  14.707  65.421  1.00  0.00    -0.415 C  
HETATM   27  C   UNL     1      -9.501  15.879  66.043  1.00  0.00    -0.389 C  
HETATM   28  C   UNL     1      -9.990  15.951  67.492  1.00  0.00    -0.238 C  
BRANCH  28  29
HETATM   29  C   UNL     1     -10.426  17.384  67.845  1.00  0.00    -0.383 C  
HETATM   30  N   UNL     1     -10.399  17.720  69.170  1.00  0.00    -0.397 N  
HETATM   31  O   UNL     1     -10.894  18.154  67.011  1.00  0.00    -0.303 OA 
HETATM   32  H1  UNL     1     -10.689  18.670  69.404  1.00  0.00     0.000 HD 
HETATM   33  H2  UNL     1     -10.107  17.056  69.886  1.00  0.00     0.000 HD 
ENDBRANCH  28  29
ENDBRANCH  22  24
ENDBRANCH  20  22
ENDBRANCH   6  20
TORSDOF 6
ENDMDL
MODEL      145
REMARK 921   NORMALIZED FREE ENERGY PREDICTED BY IDOCK:   -5.55 KCAL/MOL
REMARK 922        TOTAL FREE ENERGY PREDICTED BY IDOCK:   -8.59 KCAL/MOL
REMARK 923 INTER-LIGAND FREE ENERGY PREDICTED BY IDOCK:   -7.38 KCAL/MOL
REMARK 924 INTRA-LIGAND FREE ENERGY PREDICTED BY IDOCK:   -1.21 KCAL/MOL
REMARK 927      BINDING AFFINITY PREDICTED BY RF-SCORE:    0.00 PKD
ROOT
HETATM    1  C   UNL     1     -11.938  14.736  68.590  1.00  0.00    -0.292 C  
HETATM    2  C   UNL     1     -11.354  14.219  67.323  1.00  0.00    -0.334 A  
HETATM    3  C   UNL     1     -10.611  14.888  66.347  1.00  0.00    -0.307 A  
HETATM    4  S   UNL     1     -10.289  13.772  65.061  1.00  0.00    -0.363 SA 
HETATM    5  N   UNL     1     -11.566  12.867  67.084  1.00  0.00    -0.343 NA 
HETATM    6  C   UNL     1     -11.038  12.526  65.944  1.00  0.00    -0.299 A  
ENDROOT
BRANCH   3   7
HETATM    7  C   UNL     1     -10.137  16.285  66.241  1.00  0.00    -0.340 A  
HETATM    8  C   UNL     1      -8.399  17.985  66.475  1.00  0.00    -0.268 A  
HETATM    9  C   UNL     1     -10.520  18.594  65.759  1.00  0.00    -0.256 A  
HETATM   10  C   UNL     1      -8.818  16.651  66.576  1.00  0.00    -0.314 A  
HETATM   11  N   UNL     1      -9.261  18.952  66.081  1.00  0.00    -0.472 NA 
HETATM   12  C   UNL     1     -10.992  17.296  65.809  1.00  0.00     0.133 A  
BRANCH   8  13
HETATM   13  C   UNL     1      -6.979  18.427  66.855  1.00  0.00    -0.214 C  
HETATM   14  F   UNL     1      -6.522  20.172  68.442  1.00  0.00    -0.286 F  
HETATM   15  C   UNL     1      -5.960  17.281  66.625  1.00  0.00    -0.242 C  
HETATM   16  C   UNL     1      -6.554  19.582  65.921  1.00  0.00    -0.248 C  
HETATM   17  F   UNL     1      -5.979  18.157  69.038  1.00  0.00    -0.191 F  
HETATM   18  F   UNL     1      -8.063  18.756  69.002  1.00  0.00    -0.333 F  
HETATM   19  C   UNL     1      -6.892  18.870  68.335  1.00  0.00    -0.252 C  
ENDBRANCH   8  13
ENDBRANCH   3   7
BRANCH   6  20
HETATM   20  N   UNL     1     -10.982  11.307  65.327  1.00  0.00    -0.191 N  
HETATM   21  H   UNL     1     -11.828  10.953  64.879  1.00  0.00     0.000 HD 
BRANCH  20  22
HETATM   22  C   UNL     1      -9.850  10.535  65.278  1.00  0.00    -0.284 C  
HETATM   23  O   UNL     1      -8.912  10.686  64.499  1.00  0.00    -0.191 OA 
BRANCH  22  24
HETATM   24  N   UNL     1      -9.822   9.508  66.213  1.00  0.00    -0.246 N  
HETATM   25  C   UNL     1      -9.344   8.179  65.874  1.00  0.00    -0.056 C  
HETATM   26  C   UNL     1     -10.191   7.262  66.735  1.00  0.00    -0.305 C  
HETATM   27  C   UNL     1     -10.446   8.068  68.006  1.00  0.00    -0.243 C  
HETATM   28  C   UNL     1     -10.349   9.535  67.582  1.00  0.00    -0.244 C  
BRANCH  28  29
HETATM   29  C   UNL     1      -9.403  10.307  68.520  1.00  0.00    -0.155 C  
HETATM   30  N   UNL     1      -8.239   9.677  68.864  1.00  0.00    -0.107 N  
HETATM   31  O   UNL     1      -9.718  11.374  69.039  1.00  0.00    -0.138 OA 
HETATM   32  H1  UNL     1      -7.613  10.189  69.486  1.00  0.00     0.000 HD 
HETATM   33  H2  UNL     1      -8.011   8.746  68.518  1.00  0.00     0.000 HD 
ENDBRANCH  28  29
ENDBRANCH  22  24
ENDBRANCH  20  22
ENDBRANCH   6  20
TORSDOF 6
ENDMDL
MODEL      146
REMARK 921   NORMALIZED FREE ENERGY PREDICTED BY IDOCK:   -5.53 KCAL/MOL
REMARK 922        TOTAL FREE ENERGY PREDICTED BY IDOCK:   -8.56 KCAL/MOL
REMARK 923 INTER-LIGAND FREE ENERGY PREDICTED BY IDOCK:   -7.15 KCAL/MOL
REMARK 924 INTRA-LIGAND FREE ENERGY PREDICTED BY IDOCK:   -1.42 KCAL/MOL
REMARK 927      BINDING AFFINITY PREDICTED BY RF-SCORE:    0.00 PKD
ROOT
HETATM    1  C   UNL     1     -10.885   5.835  66.729  1.00  0.00    -0.327 C  
HETATM    2  C   UNL     1     -10.786   6.805  67.851  1.00  0.00    -0.247 A  
HETATM    3  C   UNL     1     -10.423   8.154  67.833  1.00  0.00    -0.197 A  
HETATM    4  S   UNL     1     -10.408   8.727  69.468  1.00  0.00    -0.215 SA 
HETATM    5  N   UNL     1     -11.121   6.298  69.102  1.00  0.00    -0.372 NA 
HETATM    6  C   UNL     1     -10.977   7.218  70.011  1.00  0.00    -0.253 A  
ENDROOT
BRANCH   3   7
HETATM    7  C   UNL     1     -10.048   9.069  66.733  1.00  0.00    -0.344 A  
HETATM    8  C   UNL     1     -10.321  11.150  65.484  1.00  0.00    -0.268 A  
HETATM    9  C   UNL     1      -8.744   9.592  64.799  1.00  0.00    -0.197 A  
HETATM   10  C   UNL     1     -10.691  10.307  66.542  1.00  0.00    -0.148 A  
HETATM   11  N   UNL     1      -9.358  10.776  64.608  1.00  0.00    -0.219 NA 
HETATM   12  C   UNL     1      -9.039   8.726  65.835  1.00  0.00    -0.271 A  
BRANCH   8  13
HETATM   13  C   UNL     1     -11.016  12.494  65.228  1.00  0.00    -0.329 C  
HETATM   14  F   UNL     1     -10.782  14.396  66.677  1.00  0.00    -0.280 F  
HETATM   15  C   UNL     1     -11.325  12.683  63.720  1.00  0.00    -0.529 C  
HETATM   16  C   UNL     1     -12.380  12.491  65.954  1.00  0.00    -0.155 C  
HETATM   17  F   UNL     1      -9.885  14.565  64.708  1.00  0.00    -0.357 F  
HETATM   18  F   UNL     1      -8.960  13.317  66.221  1.00  0.00    -0.180 F  
HETATM   19  C   UNL     1     -10.154  13.687  65.705  1.00  0.00    -0.284 C  
ENDBRANCH   8  13
ENDBRANCH   3   7
BRANCH   6  20
HETATM   20  N   UNL     1     -11.214   7.173  71.356  1.00  0.00    -0.246 N  
HETATM   21  H   UNL     1     -11.611   7.999  71.805  1.00  0.00     0.000 HD 
BRANCH  20  22
HETATM   22  C   UNL     1     -10.945   6.077  72.136  1.00  0.00    -0.267 C  
HETATM   23  O   UNL     1     -11.779   5.395  72.726  1.00  0.00    -0.295 OA 
BRANCH  22  24
HETATM   24  N   UNL     1      -9.595   5.764  72.229  1.00  0.00    -0.148 N  
HETATM   25  C   UNL     1      -9.033   4.602  71.563  1.00  0.00    -0.133 C  
HETATM   26  C   UNL     1      -7.924   4.155  72.497  1.00  0.00    -0.087 C  
HETATM   27  C   UNL     1      -7.404   5.450  73.113  1.00  0.00    -0.092 C  
HETATM   28  C   UNL     1      -8.582   6.427  73.058  1.00  0.00    -0.119 C  
BRANCH  28  29
HETATM   29  C   UNL     1      -8.147   7.763  72.431  1.00  0.00    -0.120 C  
HETATM   30  N   UNL     1      -7.011   7.738  71.670  1.00  0.00    -0.060 N  
HETATM   31  O   UNL     1      -8.705   8.825  72.692  1.00  0.00    -0.408 OA 
HETATM   32  H1  UNL     1      -6.723   8.624  71.254  1.00  0.00     0.000 HD 
HETATM   33  H2  UNL     1      -6.481   6.879  71.526  1.00  0.00     0.000 HD 
ENDBRANCH  28  29
ENDBRANCH  22  24
ENDBRANCH  20  22
ENDBRANCH   6  20
TORSDOF 6
ENDMDL
MODEL      147
REMARK 921   NORMALIZED FREE ENERGY PREDICTED BY IDOCK:   -5.53 KCAL/MOL
REMARK 922        TOTAL FREE ENERGY PREDICTED BY IDOCK:   -8.56 KCAL/MOL
REMARK 923 INTER-LIGAND FREE ENERGY PREDICTED BY IDOCK:   -7.65 KCAL/MOL
REMARK 924 INTRA-LIGAND FREE ENERGY PREDICTED BY IDOCK:   -0.91 KCAL/MOL
REMARK 927      BINDING AFFINITY PREDICTED BY RF-SCORE:    0.00 PKD
ROOT
HETATM    1  C   UNL     1     -14.403   8.925  71.667  1.00  0.00    -0.318 C  
HETATM    2  C   UNL     1     -12.928   8.772  71.547  1.00  0.00    -0.319 A  
HETATM    3  C   UNL     1     -11.980   9.658  71.031  1.00  0.00    -0.343 A  
HETATM    4  S   UNL     1     -10.434   8.877  71.082  1.00  0.00    -0.294 SA 
HETATM    5  N   UNL     1     -12.417   7.576  72.038  1.00  0.00    -0.285 NA 
HETATM    6  C   UNL     1     -11.128   7.535  71.863  1.00  0.00    -0.239 A  
ENDROOT
BRANCH   3   7
HETATM    7  C   UNL     1     -12.095  11.019  70.465  1.00  0.00    -0.470 A  
HETATM    8  C   UNL     1     -11.806  12.617  68.640  1.00  0.00    -0.302 A  
HETATM    9  C   UNL     1     -12.658  13.333  70.676  1.00  0.00    -0.231 A  
HETATM   10  C   UNL     1     -11.695  11.314  69.147  1.00  0.00    -0.410 A  
HETATM   11  N   UNL     1     -12.273  13.623  69.417  1.00  0.00    -0.302 NA 
HETATM   12  C   UNL     1     -12.601  12.068  71.230  1.00  0.00    -0.357 A  
BRANCH   8  13
HETATM   13  C   UNL     1     -11.356  12.982  67.218  1.00  0.00    -0.348 C  
HETATM   14  F   UNL     1      -9.993  14.896  66.717  1.00  0.00    -0.231 F  
HETATM   15  C   UNL     1     -11.325  11.729  66.305  1.00  0.00    -0.350 C  
HETATM   16  C   UNL     1     -12.398  13.943  66.602  1.00  0.00    -0.411 C  
HETATM   17  F   UNL     1      -9.071  12.951  66.434  1.00  0.00    -0.226 F  
HETATM   18  F   UNL     1      -9.391  13.721  68.436  1.00  0.00    -0.191 F  
HETATM   19  C   UNL     1      -9.952  13.630  67.208  1.00  0.00    -0.240 C  
ENDBRANCH   8  13
ENDBRANCH   3   7
BRANCH   6  20
HETATM   20  N   UNL     1     -10.220   6.574  72.212  1.00  0.00    -0.184 N  
HETATM   21  H   UNL     1      -9.228   6.808  72.169  1.00  0.00     0.000 HD 
BRANCH  20  22
HETATM   22  C   UNL     1     -10.573   5.311  72.616  1.00  0.00    -0.228 C  
HETATM   23  O   UNL     1     -11.468   5.036  73.411  1.00  0.00    -0.323 OA 
BRANCH  22  24
HETATM   24  N   UNL     1      -9.812   4.300  72.044  1.00  0.00    -0.167 N  
HETATM   25  C   UNL     1      -9.918   2.921  72.488  1.00  0.00    -0.159 C  
HETATM   26  C   UNL     1      -8.514   2.376  72.304  1.00  0.00    -0.071 C  
HETATM   27  C   UNL     1      -7.977   3.119  71.084  1.00  0.00    -0.055 C  
HETATM   28  C   UNL     1      -8.748   4.442  71.044  1.00  0.00    -0.104 C  
BRANCH  28  29
HETATM   29  C   UNL     1      -9.338   4.681  69.643  1.00  0.00    -0.143 C  
HETATM   30  N   UNL     1      -8.579   4.268  68.583  1.00  0.00    -0.091 N  
HETATM   31  O   UNL     1     -10.371   5.320  69.464  1.00  0.00    -0.253 OA 
HETATM   32  H1  UNL     1      -8.970   4.427  67.655  1.00  0.00     0.000 HD 
HETATM   33  H2  UNL     1      -7.670   3.825  68.715  1.00  0.00     0.000 HD 
ENDBRANCH  28  29
ENDBRANCH  22  24
ENDBRANCH  20  22
ENDBRANCH   6  20
TORSDOF 6
ENDMDL
MODEL      148
REMARK 921   NORMALIZED FREE ENERGY PREDICTED BY IDOCK:   -5.53 KCAL/MOL
REMARK 922        TOTAL FREE ENERGY PREDICTED BY IDOCK:   -8.56 KCAL/MOL
REMARK 923 INTER-LIGAND FREE ENERGY PREDICTED BY IDOCK:   -7.57 KCAL/MOL
REMARK 924 INTRA-LIGAND FREE ENERGY PREDICTED BY IDOCK:   -0.99 KCAL/MOL
REMARK 927      BINDING AFFINITY PREDICTED BY RF-SCORE:    0.00 PKD
ROOT
HETATM    1  C   UNL     1      -9.797  10.389  64.979  1.00  0.00    -0.384 C  
HETATM    2  C   UNL     1     -10.091  10.454  66.435  1.00  0.00    -0.228 A  
HETATM    3  C   UNL     1     -10.235   9.419  67.362  1.00  0.00    -0.239 A  
HETATM    4  S   UNL     1     -10.663  10.122  68.887  1.00  0.00    -0.234 SA 
HETATM    5  N   UNL     1     -10.228  11.737  66.953  1.00  0.00    -0.206 NA 
HETATM    6  C   UNL     1     -10.507  11.680  68.223  1.00  0.00    -0.204 A  
ENDROOT
BRANCH   3   7
HETATM    7  C   UNL     1     -10.124   7.950  67.238  1.00  0.00    -0.307 A  
HETATM    8  C   UNL     1      -9.183   5.948  66.203  1.00  0.00    -0.150 A  
HETATM    9  C   UNL     1     -10.781   5.741  67.872  1.00  0.00    -0.213 A  
HETATM   10  C   UNL     1      -9.260   7.344  66.305  1.00  0.00    -0.182 A  
HETATM   11  N   UNL     1      -9.959   5.155  66.978  1.00  0.00    -0.176 NA 
HETATM   12  C   UNL     1     -10.887   7.108  68.045  1.00  0.00    -0.193 A  
BRANCH   8  13
HETATM   13  C   UNL     1      -8.274   5.252  65.181  1.00  0.00    -0.135 C  
HETATM   14  F   UNL     1      -5.876   5.239  65.342  1.00  0.00    -0.018 F  
HETATM   15  C   UNL     1      -9.023   4.100  64.462  1.00  0.00    -0.142 C  
HETATM   16  C   UNL     1      -7.891   6.272  64.085  1.00  0.00    -0.117 C  
HETATM   17  F   UNL     1      -6.876   3.336  65.644  1.00  0.00    -0.044 F  
HETATM   18  F   UNL     1      -6.956   4.863  67.182  1.00  0.00    -0.058 F  
HETATM   19  C   UNL     1      -7.003   4.671  65.844  1.00  0.00    -0.063 C  
ENDBRANCH   8  13
ENDBRANCH   3   7
BRANCH   6  20
HETATM   20  N   UNL     1     -10.698  12.684  69.130  1.00  0.00    -0.436 N  
HETATM   21  H   UNL     1      -9.986  12.831  69.846  1.00  0.00     0.000 HD 
BRANCH  20  22
HETATM   22  C   UNL     1     -11.797  13.506  69.129  1.00  0.00    -0.340 C  
HETATM   23  O   UNL     1     -12.294  14.037  68.140  1.00  0.00    -0.248 OA 
BRANCH  22  24
HETATM   24  N   UNL     1     -12.346  13.720  70.387  1.00  0.00    -0.351 N  
HETATM   25  C   UNL     1     -12.471  12.647  71.358  1.00  0.00    -0.104 C  
HETATM   26  C   UNL     1     -13.738  12.995  72.116  1.00  0.00    -0.547 C  
HETATM   27  C   UNL     1     -13.764  14.521  72.127  1.00  0.00    -0.547 C  
HETATM   28  C   UNL     1     -12.971  14.949  70.889  1.00  0.00    -0.380 C  
BRANCH  28  29
HETATM   29  C   UNL     1     -11.906  15.995  71.264  1.00  0.00    -0.449 C  
HETATM   30  N   UNL     1     -11.924  16.447  72.554  1.00  0.00    -0.541 N  
HETATM   31  O   UNL     1     -11.157  16.499  70.432  1.00  0.00    -0.333 OA 
HETATM   32  H1  UNL     1     -11.218  17.140  72.802  1.00  0.00     0.000 HD 
HETATM   33  H2  UNL     1     -12.607  16.109  73.231  1.00  0.00     0.000 HD 
ENDBRANCH  28  29
ENDBRANCH  22  24
ENDBRANCH  20  22
ENDBRANCH   6  20
TORSDOF 6
ENDMDL
MODEL      149
REMARK 921   NORMALIZED FREE ENERGY PREDICTED BY IDOCK:   -5.53 KCAL/MOL
REMARK 922        TOTAL FREE ENERGY PREDICTED BY IDOCK:   -8.56 KCAL/MOL
REMARK 923 INTER-LIGAND FREE ENERGY PREDICTED BY IDOCK:   -7.97 KCAL/MOL
REMARK 924 INTRA-LIGAND FREE ENERGY PREDICTED BY IDOCK:   -0.58 KCAL/MOL
REMARK 927      BINDING AFFINITY PREDICTED BY RF-SCORE:    0.00 PKD
ROOT
HETATM    1  C   UNL     1     -12.618  11.435  70.629  1.00  0.00    -0.360 C  
HETATM    2  C   UNL     1     -11.767  11.588  69.420  1.00  0.00    -0.346 A  
HETATM    3  C   UNL     1     -11.179  12.737  68.883  1.00  0.00    -0.283 A  
HETATM    4  S   UNL     1     -10.379  12.291  67.412  1.00  0.00    -0.207 SA 
HETATM    5  N   UNL     1     -11.503  10.410  68.731  1.00  0.00    -0.215 NA 
HETATM    6  C   UNL     1     -10.775  10.658  67.681  1.00  0.00    -0.267 A  
ENDROOT
BRANCH   3   7
HETATM    7  C   UNL     1     -11.173  14.148  69.322  1.00  0.00    -0.308 A  
HETATM    8  C   UNL     1     -10.463  16.472  69.070  1.00  0.00    -0.303 A  
HETATM    9  C   UNL     1     -11.815  15.866  70.855  1.00  0.00    -0.417 A  
HETATM   10  C   UNL     1     -10.459  15.142  68.624  1.00  0.00    -0.234 A  
HETATM   11  N   UNL     1     -11.129  16.821  70.195  1.00  0.00    -0.091 NA 
HETATM   12  C   UNL     1     -11.876  14.544  70.458  1.00  0.00    -0.372 A  
BRANCH   8  13
HETATM   13  C   UNL     1      -9.675  17.576  68.352  1.00  0.00    -0.316 C  
HETATM   14  F   UNL     1      -9.050  17.457  66.035  1.00  0.00    -0.262 F  
HETATM   15  C   UNL     1      -9.883  18.948  69.045  1.00  0.00    -0.379 C  
HETATM   16  C   UNL     1      -8.167  17.259  68.461  1.00  0.00    -0.267 C  
HETATM   17  F   UNL     1     -10.533  18.953  66.561  1.00  0.00    -0.381 F  
HETATM   18  F   UNL     1     -11.077  16.854  66.506  1.00  0.00    -0.110 F  
HETATM   19  C   UNL     1     -10.093  17.708  66.868  1.00  0.00    -0.331 C  
ENDBRANCH   8  13
ENDBRANCH   3   7
BRANCH   6  20
HETATM   20  N   UNL     1     -10.262   9.808  66.741  1.00  0.00    -0.232 N  
HETATM   21  H   UNL     1     -10.912   9.330  66.117  1.00  0.00     0.000 HD 
BRANCH  20  22
HETATM   22  C   UNL     1      -8.921   9.564  66.592  1.00  0.00    -0.146 C  
HETATM   23  O   UNL     1      -8.112   9.424  67.506  1.00  0.00    -0.108 OA 
BRANCH  22  24
HETATM   24  N   UNL     1      -8.503   9.481  65.271  1.00  0.00    -0.140 N  
HETATM   25  C   UNL     1      -7.839   8.297  64.752  1.00  0.00    -0.129 C  
HETATM   26  C   UNL     1      -6.876   8.849  63.718  1.00  0.00    -0.088 C  
HETATM   27  C   UNL     1      -7.594  10.069  63.147  1.00  0.00    -0.142 C  
HETATM   28  C   UNL     1      -8.536  10.541  64.257  1.00  0.00    -0.128 C  
BRANCH  28  29
HETATM   29  C   UNL     1      -9.962  10.735  63.710  1.00  0.00    -0.351 C  
HETATM   30  N   UNL     1     -10.156  10.424  62.393  1.00  0.00    -0.717 N  
HETATM   31  O   UNL     1     -10.855  11.258  64.371  1.00  0.00    -0.341 OA 
HETATM   32  H1  UNL     1     -11.101  10.552  62.031  1.00  0.00     0.000 HD 
HETATM   33  H2  UNL     1      -9.397  10.081  61.805  1.00  0.00     0.000 HD 
ENDBRANCH  28  29
ENDBRANCH  22  24
ENDBRANCH  20  22
ENDBRANCH   6  20
TORSDOF 6
ENDMDL
MODEL      150
REMARK 921   NORMALIZED FREE ENERGY PREDICTED BY IDOCK:   -5.52 KCAL/MOL
REMARK 922        TOTAL FREE ENERGY PREDICTED BY IDOCK:   -8.55 KCAL/MOL
REMARK 923 INTER-LIGAND FREE ENERGY PREDICTED BY IDOCK:   -7.13 KCAL/MOL
REMARK 924 INTRA-LIGAND FREE ENERGY PREDICTED BY IDOCK:   -1.42 KCAL/MOL
REMARK 927      BINDING AFFINITY PREDICTED BY RF-SCORE:    0.00 PKD
ROOT
HETATM    1  C   UNL     1      -6.454  10.553  70.232  1.00  0.00    -0.140 C  
HETATM    2  C   UNL     1      -7.424  10.110  69.197  1.00  0.00    -0.098 A  
HETATM    3  C   UNL     1      -8.099  10.859  68.230  1.00  0.00    -0.124 A  
HETATM    4  S   UNL     1      -9.163   9.792  67.373  1.00  0.00    -0.134 SA 
HETATM    5  N   UNL     1      -7.685   8.744  69.178  1.00  0.00    -0.091 NA 
HETATM    6  C   UNL     1      -8.561   8.468  68.256  1.00  0.00    -0.139 A  
ENDROOT
BRANCH   3   7
HETATM    7  C   UNL     1      -8.072  12.297  67.887  1.00  0.00    -0.155 A  
HETATM    8  C   UNL     1      -9.192  14.380  67.277  1.00  0.00    -0.209 A  
HETATM    9  C   UNL     1      -6.880  14.324  67.461  1.00  0.00    -0.135 A  
HETATM   10  C   UNL     1      -9.249  13.018  67.609  1.00  0.00    -0.200 A  
HETATM   11  N   UNL     1      -8.002  15.020  67.189  1.00  0.00    -0.208 NA 
HETATM   12  C   UNL     1      -6.865  12.990  67.820  1.00  0.00    -0.144 A  
BRANCH   8  13
HETATM   13  C   UNL     1     -10.450  15.193  66.943  1.00  0.00    -0.282 C  
HETATM   14  F   UNL     1     -12.007  15.958  68.605  1.00  0.00    -0.379 F  
HETATM   15  C   UNL     1     -10.275  15.966  65.609  1.00  0.00    -0.406 C  
HETATM   16  C   UNL     1     -11.627  14.216  66.727  1.00  0.00    -0.409 C  
HETATM   17  F   UNL     1     -10.837  17.486  67.600  1.00  0.00    -0.361 F  
HETATM   18  F   UNL     1      -9.908  16.204  69.082  1.00  0.00    -0.203 F  
HETATM   19  C   UNL     1     -10.791  16.210  68.057  1.00  0.00    -0.333 C  
ENDBRANCH   8  13
ENDBRANCH   3   7
BRANCH   6  20
HETATM   20  N   UNL     1      -9.087   7.267  67.870  1.00  0.00    -0.133 N  
HETATM   21  H   UNL     1      -8.535   6.675  67.250  1.00  0.00     0.000 HD 
BRANCH  20  22
HETATM   22  C   UNL     1     -10.319   6.816  68.272  1.00  0.00    -0.187 C  
HETATM   23  O   UNL     1     -11.274   6.588  67.535  1.00  0.00    -0.343 OA 
BRANCH  22  24
HETATM   24  N   UNL     1     -10.433   6.624  69.642  1.00  0.00    -0.200 N  
HETATM   25  C   UNL     1      -9.573   5.697  70.358  1.00  0.00    -0.170 C  
HETATM   26  C   UNL     1     -10.461   5.166  71.467  1.00  0.00    -0.256 C  
HETATM   27  C   UNL     1     -11.374   6.339  71.814  1.00  0.00    -0.346 C  
HETATM   28  C   UNL     1     -11.450   7.184  70.539  1.00  0.00    -0.295 C  
BRANCH  28  29
HETATM   29  C   UNL     1     -11.154   8.661  70.852  1.00  0.00    -0.264 C  
HETATM   30  N   UNL     1     -11.662   9.583  69.979  1.00  0.00    -0.456 N  
HETATM   31  O   UNL     1     -10.399   9.004  71.758  1.00  0.00    -0.332 OA 
HETATM   32  H1  UNL     1     -11.466  10.562  70.187  1.00  0.00     0.000 HD 
HETATM   33  H2  UNL     1     -12.208   9.305  69.164  1.00  0.00     0.000 HD 
ENDBRANCH  28  29
ENDBRANCH  22  24
ENDBRANCH  20  22
ENDBRANCH   6  20
TORSDOF 6
ENDMDL
MODEL      151
REMARK 921   NORMALIZED FREE ENERGY PREDICTED BY IDOCK:   -5.52 KCAL/MOL
REMARK 922        TOTAL FREE ENERGY PREDICTED BY IDOCK:   -8.54 KCAL/MOL
REMARK 923 INTER-LIGAND FREE ENERGY PREDICTED BY IDOCK:   -7.43 KCAL/MOL
REMARK 924 INTRA-LIGAND FREE ENERGY PREDICTED BY IDOCK:   -1.11 KCAL/MOL
REMARK 927      BINDING AFFINITY PREDICTED BY RF-SCORE:    0.00 PKD
ROOT
HETATM    1  C   UNL     1      -6.004  14.811  68.135  1.00  0.00    -0.146 C  
HETATM    2  C   UNL     1      -7.016  13.790  67.754  1.00  0.00    -0.171 A  
HETATM    3  C   UNL     1      -8.394  13.928  67.571  1.00  0.00    -0.196 A  
HETATM    4  S   UNL     1      -9.046  12.361  67.220  1.00  0.00    -0.194 SA 
HETATM    5  N   UNL     1      -6.512  12.514  67.530  1.00  0.00    -0.140 NA 
HETATM    6  C   UNL     1      -7.480  11.697  67.229  1.00  0.00    -0.143 A  
ENDROOT
BRANCH   3   7
HETATM    7  C   UNL     1      -9.299  15.094  67.662  1.00  0.00    -0.189 A  
HETATM    8  C   UNL     1      -9.798  17.457  67.300  1.00  0.00    -0.278 A  
HETATM    9  C   UNL     1     -11.365  16.092  68.332  1.00  0.00    -0.345 A  
HETATM   10  C   UNL     1      -8.923  16.366  67.191  1.00  0.00    -0.218 A  
HETATM   11  N   UNL     1     -11.010  17.314  67.886  1.00  0.00    -0.275 NA 
HETATM   12  C   UNL     1     -10.564  14.970  68.233  1.00  0.00    -0.247 A  
BRANCH   8  13
HETATM   13  C   UNL     1      -9.414  18.864  66.821  1.00  0.00    -0.352 C  
HETATM   14  F   UNL     1     -10.071  20.871  67.967  1.00  0.00    -0.448 F  
HETATM   15  C   UNL     1      -8.119  18.828  65.969  1.00  0.00    -0.137 C  
HETATM   16  C   UNL     1     -10.530  19.391  65.892  1.00  0.00    -0.561 C  
HETATM   17  F   UNL     1      -7.956  20.383  68.005  1.00  0.00    -0.314 F  
HETATM   18  F   UNL     1      -9.355  19.252  69.217  1.00  0.00    -0.360 F  
HETATM   19  C   UNL     1      -9.195  19.834  68.006  1.00  0.00    -0.341 C  
ENDBRANCH   8  13
ENDBRANCH   3   7
BRANCH   6  20
HETATM   20  N   UNL     1      -7.445  10.369  66.909  1.00  0.00    -0.104 N  
HETATM   21  H   UNL     1      -6.736   9.784  67.351  1.00  0.00     0.000 HD 
BRANCH  20  22
HETATM   22  C   UNL     1      -8.314   9.780  66.026  1.00  0.00    -0.120 C  
HETATM   23  O   UNL     1      -8.521  10.146  64.872  1.00  0.00    -0.156 OA 
BRANCH  22  24
HETATM   24  N   UNL     1      -8.991   8.682  66.542  1.00  0.00    -0.145 N  
HETATM   25  C   UNL     1      -8.418   7.348  66.509  1.00  0.00    -0.128 C  
HETATM   26  C   UNL     1      -9.624   6.444  66.343  1.00  0.00    -0.156 C  
HETATM   27  C   UNL     1     -10.741   7.162  67.095  1.00  0.00    -0.422 C  
HETATM   28  C   UNL     1     -10.361   8.645  67.064  1.00  0.00    -0.298 C  
BRANCH  28  29
HETATM   29  C   UNL     1     -10.427   9.250  68.478  1.00  0.00    -0.206 C  
HETATM   30  N   UNL     1     -11.603   9.853  68.828  1.00  0.00    -0.487 N  
HETATM   31  O   UNL     1      -9.447   9.307  69.216  1.00  0.00    -0.153 OA 
HETATM   32  H1  UNL     1     -11.646  10.254  69.765  1.00  0.00     0.000 HD 
HETATM   33  H2  UNL     1     -12.394   9.900  68.187  1.00  0.00     0.000 HD 
ENDBRANCH  28  29
ENDBRANCH  22  24
ENDBRANCH  20  22
ENDBRANCH   6  20
TORSDOF 6
ENDMDL
MODEL      152
REMARK 921   NORMALIZED FREE ENERGY PREDICTED BY IDOCK:   -5.51 KCAL/MOL
REMARK 922        TOTAL FREE ENERGY PREDICTED BY IDOCK:   -8.54 KCAL/MOL
REMARK 923 INTER-LIGAND FREE ENERGY PREDICTED BY IDOCK:   -7.91 KCAL/MOL
REMARK 924 INTRA-LIGAND FREE ENERGY PREDICTED BY IDOCK:   -0.64 KCAL/MOL
REMARK 927      BINDING AFFINITY PREDICTED BY RF-SCORE:    0.00 PKD
ROOT
HETATM    1  C   UNL     1      -6.483  13.771  67.972  1.00  0.00    -0.140 C  
HETATM    2  C   UNL     1      -7.808  13.227  67.571  1.00  0.00    -0.171 A  
HETATM    3  C   UNL     1      -9.069  13.826  67.623  1.00  0.00    -0.196 A  
HETATM    4  S   UNL     1     -10.238  12.657  67.101  1.00  0.00    -0.226 SA 
HETATM    5  N   UNL     1      -7.784  11.938  67.053  1.00  0.00    -0.160 NA 
HETATM    6  C   UNL     1      -8.991  11.551  66.759  1.00  0.00    -0.181 A  
ENDROOT
BRANCH   3   7
HETATM    7  C   UNL     1      -9.517  15.168  68.053  1.00  0.00    -0.199 A  
HETATM    8  C   UNL     1      -9.414  17.605  67.934  1.00  0.00    -0.276 A  
HETATM    9  C   UNL     1     -10.857  16.583  69.436  1.00  0.00    -0.311 A  
HETATM   10  C   UNL     1      -8.977  16.345  67.500  1.00  0.00    -0.197 A  
HETATM   11  N   UNL     1     -10.342  17.714  68.914  1.00  0.00    -0.358 NA 
HETATM   12  C   UNL     1     -10.493  15.311  69.036  1.00  0.00    -0.248 A  
BRANCH   8  13
HETATM   13  C   UNL     1      -8.831  18.910  67.374  1.00  0.00    -0.293 C  
HETATM   14  F   UNL     1      -9.804  20.105  65.531  1.00  0.00    -0.448 F  
HETATM   15  C   UNL     1      -8.004  19.658  68.452  1.00  0.00    -0.357 C  
HETATM   16  C   UNL     1      -7.847  18.563  66.235  1.00  0.00    -0.282 C  
HETATM   17  F   UNL     1      -9.913  21.068  67.473  1.00  0.00    -0.588 F  
HETATM   18  F   UNL     1     -11.189  19.373  67.028  1.00  0.00    -0.537 F  
HETATM   19  C   UNL     1      -9.938  19.860  66.860  1.00  0.00    -0.435 C  
ENDBRANCH   8  13
ENDBRANCH   3   7
BRANCH   6  20
HETATM   20  N   UNL     1      -9.433  10.381  66.208  1.00  0.00    -0.166 N  
HETATM   21  H   UNL     1     -10.242  10.414  65.587  1.00  0.00     0.000 HD 
BRANCH  20  22
HETATM   22  C   UNL     1      -8.847   9.163  66.445  1.00  0.00    -0.141 C  
HETATM   23  O   UNL     1      -7.840   8.732  65.891  1.00  0.00    -0.098 OA 
BRANCH  22  24
HETATM   24  N   UNL     1      -9.498   8.397  67.404  1.00  0.00    -0.143 N  
HETATM   25  C   UNL     1     -10.453   8.982  68.329  1.00  0.00    -0.200 C  
HETATM   26  C   UNL     1     -10.276   8.163  69.593  1.00  0.00    -0.205 C  
HETATM   27  C   UNL     1      -9.917   6.767  69.091  1.00  0.00    -0.166 C  
HETATM   28  C   UNL     1      -9.269   6.984  67.721  1.00  0.00    -0.124 C  
BRANCH  28  29
HETATM   29  C   UNL     1      -9.918   6.070  66.666  1.00  0.00    -0.166 C  
HETATM   30  N   UNL     1     -11.279   6.137  66.557  1.00  0.00    -0.744 N  
HETATM   31  O   UNL     1      -9.278   5.232  66.038  1.00  0.00    -0.150 OA 
HETATM   32  H1  UNL     1     -11.709   5.531  65.858  1.00  0.00     0.000 HD 
HETATM   33  H2  UNL     1     -11.834   6.759  67.144  1.00  0.00     0.000 HD 
ENDBRANCH  28  29
ENDBRANCH  22  24
ENDBRANCH  20  22
ENDBRANCH   6  20
TORSDOF 6
ENDMDL
MODEL      153
REMARK 921   NORMALIZED FREE ENERGY PREDICTED BY IDOCK:   -5.50 KCAL/MOL
REMARK 922        TOTAL FREE ENERGY PREDICTED BY IDOCK:   -8.52 KCAL/MOL
REMARK 923 INTER-LIGAND FREE ENERGY PREDICTED BY IDOCK:   -7.37 KCAL/MOL
REMARK 924 INTRA-LIGAND FREE ENERGY PREDICTED BY IDOCK:   -1.15 KCAL/MOL
REMARK 927      BINDING AFFINITY PREDICTED BY RF-SCORE:    0.00 PKD
ROOT
HETATM    1  C   UNL     1     -12.000  13.480  68.498  1.00  0.00    -0.379 C  
HETATM    2  C   UNL     1     -11.542  12.092  68.771  1.00  0.00    -0.311 A  
HETATM    3  C   UNL     1     -10.983  11.151  67.902  1.00  0.00    -0.253 A  
HETATM    4  S   UNL     1     -10.739   9.682  68.788  1.00  0.00    -0.175 SA 
HETATM    5  N   UNL     1     -11.674  11.675  70.090  1.00  0.00    -0.321 NA 
HETATM    6  C   UNL     1     -11.269  10.444  70.214  1.00  0.00    -0.320 A  
ENDROOT
BRANCH   3   7
HETATM    7  C   UNL     1     -10.637  11.206  66.465  1.00  0.00    -0.314 A  
HETATM    8  C   UNL     1      -9.277  10.519  64.557  1.00  0.00    -0.240 A  
HETATM    9  C   UNL     1     -10.965  12.083  64.266  1.00  0.00    -0.346 A  
HETATM   10  C   UNL     1      -9.588  10.439  65.922  1.00  0.00    -0.258 A  
HETATM   11  N   UNL     1      -9.959  11.356  63.740  1.00  0.00    -0.305 NA 
HETATM   12  C   UNL     1     -11.343  12.034  65.595  1.00  0.00    -0.381 A  
BRANCH   8  13
HETATM   13  C   UNL     1      -8.125   9.719  63.933  1.00  0.00    -0.150 C  
HETATM   14  F   UNL     1      -5.973  10.670  63.443  1.00  0.00    -0.146 F  
HETATM   15  C   UNL     1      -8.268   8.205  64.239  1.00  0.00    -0.095 C  
HETATM   16  C   UNL     1      -8.200   9.860  62.396  1.00  0.00    -0.149 C  
HETATM   17  F   UNL     1      -6.039   9.198  65.037  1.00  0.00    -0.061 F  
HETATM   18  F   UNL     1      -6.829  11.192  65.363  1.00  0.00     0.023 F  
HETATM   19  C   UNL     1      -6.747  10.195  64.452  1.00  0.00    -0.110 C  
ENDBRANCH   8  13
ENDBRANCH   3   7
BRANCH   6  20
HETATM   20  N   UNL     1     -11.196   9.647  71.322  1.00  0.00    -0.370 N  
HETATM   21  H   UNL     1     -12.014   9.584  71.927  1.00  0.00     0.000 HD 
BRANCH  20  22
HETATM   22  C   UNL     1     -10.079   8.926  71.663  1.00  0.00    -0.341 C  
HETATM   23  O   UNL     1      -8.924   9.344  71.648  1.00  0.00    -0.251 OA 
BRANCH  22  24
HETATM   24  N   UNL     1     -10.344   7.618  72.045  1.00  0.00    -0.200 N  
HETATM   25  C   UNL     1     -10.698   7.279  73.413  1.00  0.00    -0.369 C  
HETATM   26  C   UNL     1     -10.101   5.897  73.606  1.00  0.00    -0.213 C  
HETATM   27  C   UNL     1     -10.206   5.245  72.230  1.00  0.00    -0.250 C  
HETATM   28  C   UNL     1     -10.204   6.405  71.231  1.00  0.00    -0.200 C  
BRANCH  28  29
HETATM   29  C   UNL     1     -11.376   6.268  70.242  1.00  0.00    -0.388 C  
HETATM   30  N   UNL     1     -11.082   5.730  69.020  1.00  0.00    -0.221 N  
HETATM   31  O   UNL     1     -12.490   6.728  70.475  1.00  0.00    -0.273 OA 
HETATM   32  H1  UNL     1     -11.859   5.640  68.366  1.00  0.00     0.000 HD 
HETATM   33  H2  UNL     1     -10.137   5.435  68.777  1.00  0.00     0.000 HD 
ENDBRANCH  28  29
ENDBRANCH  22  24
ENDBRANCH  20  22
ENDBRANCH   6  20
TORSDOF 6
ENDMDL
MODEL      154
REMARK 921   NORMALIZED FREE ENERGY PREDICTED BY IDOCK:   -5.49 KCAL/MOL
REMARK 922        TOTAL FREE ENERGY PREDICTED BY IDOCK:   -8.51 KCAL/MOL
REMARK 923 INTER-LIGAND FREE ENERGY PREDICTED BY IDOCK:   -7.36 KCAL/MOL
REMARK 924 INTRA-LIGAND FREE ENERGY PREDICTED BY IDOCK:   -1.15 KCAL/MOL
REMARK 927      BINDING AFFINITY PREDICTED BY RF-SCORE:    0.00 PKD
ROOT
HETATM    1  C   UNL     1     -12.915   9.941  71.918  1.00  0.00    -0.545 C  
HETATM    2  C   UNL     1     -12.183  10.725  70.888  1.00  0.00    -0.384 A  
HETATM    3  C   UNL     1     -11.044  10.386  70.153  1.00  0.00    -0.314 A  
HETATM    4  S   UNL     1     -10.615  11.749  69.173  1.00  0.00     0.007 SA 
HETATM    5  N   UNL     1     -12.724  11.974  70.603  1.00  0.00    -0.146 NA 
HETATM    6  C   UNL     1     -11.997  12.583  69.711  1.00  0.00    -0.289 A  
ENDROOT
BRANCH   3   7
HETATM    7  C   UNL     1     -10.209   9.167  70.119  1.00  0.00    -0.237 A  
HETATM    8  C   UNL     1      -9.301   7.218  68.960  1.00  0.00    -0.148 A  
HETATM    9  C   UNL     1      -8.765   7.589  71.186  1.00  0.00    -0.136 A  
HETATM   10  C   UNL     1     -10.094   8.375  68.960  1.00  0.00    -0.209 A  
HETATM   11  N   UNL     1      -8.654   6.824  70.082  1.00  0.00    -0.139 NA 
HETATM   12  C   UNL     1      -9.505   8.755  71.249  1.00  0.00    -0.320 A  
BRANCH   8  13
HETATM   13  C   UNL     1      -9.173   6.315  67.726  1.00  0.00    -0.115 C  
HETATM   14  F   UNL     1      -9.907   4.027  67.682  1.00  0.00    -0.224 F  
HETATM   15  C   UNL     1      -9.131   7.156  66.423  1.00  0.00    -0.189 C  
HETATM   16  C   UNL     1      -7.825   5.563  67.801  1.00  0.00    -0.097 C  
HETATM   17  F   UNL     1     -11.027   5.426  66.457  1.00  0.00    -0.324 F  
HETATM   18  F   UNL     1     -11.257   5.443  68.613  1.00  0.00    -0.134 F  
HETATM   19  C   UNL     1     -10.346   5.311  67.623  1.00  0.00    -0.146 C  
ENDBRANCH   8  13
ENDBRANCH   3   7
BRANCH   6  20
HETATM   20  N   UNL     1     -12.164  13.805  69.122  1.00  0.00    -0.378 N  
HETATM   21  H   UNL     1     -12.581  14.554  69.674  1.00  0.00     0.000 HD 
BRANCH  20  22
HETATM   22  C   UNL     1     -11.801  14.077  67.827  1.00  0.00    -0.384 C  
HETATM   23  O   UNL     1     -12.226  13.504  66.828  1.00  0.00    -0.390 OA 
BRANCH  22  24
HETATM   24  N   UNL     1     -10.866  15.097  67.703  1.00  0.00    -0.287 N  
HETATM   25  C   UNL     1     -11.125  16.435  68.205  1.00  0.00    -0.337 C  
HETATM   26  C   UNL     1     -10.391  17.333  67.228  1.00  0.00    -0.331 C  
HETATM   27  C   UNL     1      -9.175  16.515  66.803  1.00  0.00    -0.256 C  
HETATM   28  C   UNL     1      -9.588  15.052  66.984  1.00  0.00    -0.225 C  
BRANCH  28  29
HETATM   29  C   UNL     1      -8.527  14.287  67.795  1.00  0.00    -0.176 C  
HETATM   30  N   UNL     1      -8.463  14.568  69.132  1.00  0.00    -0.355 N  
HETATM   31  O   UNL     1      -7.694  13.557  67.266  1.00  0.00    -0.154 OA 
HETATM   32  H1  UNL     1      -7.759  14.061  69.669  1.00  0.00     0.000 HD 
HETATM   33  H2  UNL     1      -9.085  15.248  69.567  1.00  0.00     0.000 HD 
ENDBRANCH  28  29
ENDBRANCH  22  24
ENDBRANCH  20  22
ENDBRANCH   6  20
TORSDOF 6
ENDMDL
MODEL      155
REMARK 921   NORMALIZED FREE ENERGY PREDICTED BY IDOCK:   -5.47 KCAL/MOL
REMARK 922        TOTAL FREE ENERGY PREDICTED BY IDOCK:   -8.48 KCAL/MOL
REMARK 923 INTER-LIGAND FREE ENERGY PREDICTED BY IDOCK:   -7.74 KCAL/MOL
REMARK 924 INTRA-LIGAND FREE ENERGY PREDICTED BY IDOCK:   -0.74 KCAL/MOL
REMARK 927      BINDING AFFINITY PREDICTED BY RF-SCORE:    0.00 PKD
ROOT
HETATM    1  C   UNL     1     -10.954  12.510  66.057  1.00  0.00    -0.318 C  
HETATM    2  C   UNL     1     -10.188  11.928  67.192  1.00  0.00    -0.208 A  
HETATM    3  C   UNL     1      -9.121  12.467  67.915  1.00  0.00    -0.199 A  
HETATM    4  S   UNL     1      -8.594  11.276  69.058  1.00  0.00     0.112 SA 
HETATM    5  N   UNL     1     -10.609  10.669  67.604  1.00  0.00    -0.227 NA 
HETATM    6  C   UNL     1      -9.860  10.245  68.580  1.00  0.00    -0.173 A  
ENDROOT
BRANCH   3   7
HETATM    7  C   UNL     1      -8.417  13.765  67.832  1.00  0.00    -0.176 A  
HETATM    8  C   UNL     1      -8.412  16.207  67.811  1.00  0.00    -0.158 A  
HETATM    9  C   UNL     1      -6.419  15.047  67.559  1.00  0.00    -0.092 A  
HETATM   10  C   UNL     1      -9.106  14.991  67.903  1.00  0.00    -0.180 A  
HETATM   11  N   UNL     1      -7.072  16.225  67.622  1.00  0.00    -0.129 NA 
HETATM   12  C   UNL     1      -7.034  13.815  67.670  1.00  0.00    -0.186 A  
BRANCH   8  13
HETATM   13  C   UNL     1      -9.130  17.563  67.858  1.00  0.00    -0.261 C  
HETATM   14  F   UNL     1      -8.915  19.229  66.140  1.00  0.00    -0.331 F  
HETATM   15  C   UNL     1     -10.413  17.483  68.725  1.00  0.00    -0.318 C  
HETATM   16  C   UNL     1      -8.203  18.589  68.546  1.00  0.00    -0.360 C  
HETATM   17  F   UNL     1     -10.856  18.274  66.323  1.00  0.00    -0.339 F  
HETATM   18  F   UNL     1      -9.188  17.190  65.460  1.00  0.00    -0.058 F  
HETATM   19  C   UNL     1      -9.524  18.054  66.445  1.00  0.00    -0.271 C  
ENDBRANCH   8  13
ENDBRANCH   3   7
BRANCH   6  20
HETATM   20  N   UNL     1      -9.924   9.085  69.302  1.00  0.00    -0.183 N  
HETATM   21  H   UNL     1      -9.837   8.200  68.803  1.00  0.00     0.000 HD 
BRANCH  20  22
HETATM   22  C   UNL     1     -10.099   9.049  70.662  1.00  0.00    -0.229 C  
HETATM   23  O   UNL     1      -9.219   8.844  71.493  1.00  0.00    -0.243 OA 
BRANCH  22  24
HETATM   24  N   UNL     1     -11.408   9.268  71.071  1.00  0.00    -0.293 N  
HETATM   25  C   UNL     1     -12.199  10.368  70.545  1.00  0.00    -0.323 C  
HETATM   26  C   UNL     1     -13.085  10.762  71.712  1.00  0.00    -0.573 C  
HETATM   27  C   UNL     1     -13.344   9.452  72.449  1.00  0.00    -0.503 C  
HETATM   28  C   UNL     1     -12.142   8.560  72.126  1.00  0.00    -0.383 C  
BRANCH  28  29
HETATM   29  C   UNL     1     -12.611   7.178  71.636  1.00  0.00    -0.375 C  
HETATM   30  N   UNL     1     -13.724   7.159  70.841  1.00  0.00    -0.444 N  
HETATM   31  O   UNL     1     -12.103   6.133  72.031  1.00  0.00    -0.318 OA 
HETATM   32  H1  UNL     1     -14.034   6.243  70.517  1.00  0.00     0.000 HD 
HETATM   33  H2  UNL     1     -14.216   8.014  70.587  1.00  0.00     0.000 HD 
ENDBRANCH  28  29
ENDBRANCH  22  24
ENDBRANCH  20  22
ENDBRANCH   6  20
TORSDOF 6
ENDMDL
MODEL      156
REMARK 921   NORMALIZED FREE ENERGY PREDICTED BY IDOCK:   -5.46 KCAL/MOL
REMARK 922        TOTAL FREE ENERGY PREDICTED BY IDOCK:   -8.46 KCAL/MOL
REMARK 923 INTER-LIGAND FREE ENERGY PREDICTED BY IDOCK:   -7.43 KCAL/MOL
REMARK 924 INTRA-LIGAND FREE ENERGY PREDICTED BY IDOCK:   -1.03 KCAL/MOL
REMARK 927      BINDING AFFINITY PREDICTED BY RF-SCORE:    0.00 PKD
ROOT
HETATM    1  C   UNL     1     -11.824  13.388  65.623  1.00  0.00    -0.403 C  
HETATM    2  C   UNL     1     -11.099  12.451  66.522  1.00  0.00    -0.301 A  
HETATM    3  C   UNL     1      -9.893  12.625  67.204  1.00  0.00    -0.212 A  
HETATM    4  S   UNL     1      -9.521  11.142  68.021  1.00  0.00    -0.180 SA 
HETATM    5  N   UNL     1     -11.726  11.227  66.727  1.00  0.00    -0.343 NA 
HETATM    6  C   UNL     1     -11.000  10.477  67.505  1.00  0.00    -0.303 A  
ENDROOT
BRANCH   3   7
HETATM    7  C   UNL     1      -8.955  13.765  67.293  1.00  0.00    -0.227 A  
HETATM    8  C   UNL     1      -8.474  16.159  67.229  1.00  0.00    -0.180 A  
HETATM    9  C   UNL     1      -6.748  14.644  67.557  1.00  0.00    -0.122 A  
HETATM   10  C   UNL     1      -9.388  15.097  67.150  1.00  0.00    -0.223 A  
HETATM   11  N   UNL     1      -7.155  15.921  67.416  1.00  0.00    -0.178 NA 
HETATM   12  C   UNL     1      -7.597  13.553  67.517  1.00  0.00    -0.176 A  
BRANCH   8  13
HETATM   13  C   UNL     1      -8.904  17.622  67.051  1.00  0.00    -0.256 C  
HETATM   14  F   UNL     1     -10.156  18.838  68.702  1.00  0.00    -0.367 F  
HETATM   15  C   UNL     1      -7.958  18.364  66.071  1.00  0.00    -0.146 C  
HETATM   16  C   UNL     1     -10.307  17.650  66.406  1.00  0.00    -0.345 C  
HETATM   17  F   UNL     1      -8.106  19.474  68.381  1.00  0.00    -0.338 F  
HETATM   18  F   UNL     1      -8.519  17.631  69.448  1.00  0.00    -0.027 F  
HETATM   19  C   UNL     1      -8.913  18.385  68.396  1.00  0.00    -0.316 C  
ENDBRANCH   8  13
ENDBRANCH   3   7
BRANCH   6  20
HETATM   20  N   UNL     1     -11.233   9.220  67.988  1.00  0.00    -0.459 N  
HETATM   21  H   UNL     1     -12.002   9.091  68.647  1.00  0.00     0.000 HD 
BRANCH  20  22
HETATM   22  C   UNL     1     -10.490   8.123  67.634  1.00  0.00    -0.231 C  
HETATM   23  O   UNL     1     -10.047   7.888  66.514  1.00  0.00    -0.246 OA 
BRANCH  22  24
HETATM   24  N   UNL     1     -10.254   7.237  68.678  1.00  0.00    -0.177 N  
HETATM   25  C   UNL     1      -9.519   6.000  68.479  1.00  0.00    -0.120 C  
HETATM   26  C   UNL     1     -10.163   5.038  69.459  1.00  0.00    -0.286 C  
HETATM   27  C   UNL     1     -10.572   5.917  70.637  1.00  0.00    -0.334 C  
HETATM   28  C   UNL     1     -10.773   7.316  70.048  1.00  0.00    -0.245 C  
BRANCH  28  29
HETATM   29  C   UNL     1     -10.000   8.364  70.869  1.00  0.00    -0.191 C  
HETATM   30  N   UNL     1     -10.752   9.253  71.585  1.00  0.00    -0.364 N  
HETATM   31  O   UNL     1      -8.780   8.488  70.797  1.00  0.00    -0.137 OA 
HETATM   32  H1  UNL     1     -10.239   9.947  72.129  1.00  0.00     0.000 HD 
HETATM   33  H2  UNL     1     -11.771   9.224  71.575  1.00  0.00     0.000 HD 
ENDBRANCH  28  29
ENDBRANCH  22  24
ENDBRANCH  20  22
ENDBRANCH   6  20
TORSDOF 6
ENDMDL
MODEL      157
REMARK 921   NORMALIZED FREE ENERGY PREDICTED BY IDOCK:   -5.44 KCAL/MOL
REMARK 922        TOTAL FREE ENERGY PREDICTED BY IDOCK:   -8.45 KCAL/MOL
REMARK 923 INTER-LIGAND FREE ENERGY PREDICTED BY IDOCK:   -7.87 KCAL/MOL
REMARK 924 INTRA-LIGAND FREE ENERGY PREDICTED BY IDOCK:   -0.57 KCAL/MOL
REMARK 927      BINDING AFFINITY PREDICTED BY RF-SCORE:    0.00 PKD
ROOT
HETATM    1  C   UNL     1     -10.513  10.802  66.731  1.00  0.00    -0.305 C  
HETATM    2  C   UNL     1     -11.029  10.697  68.122  1.00  0.00    -0.269 A  
HETATM    3  C   UNL     1     -11.372  11.708  69.023  1.00  0.00    -0.275 A  
HETATM    4  S   UNL     1     -11.824  10.960  70.520  1.00  0.00    -0.360 SA 
HETATM    5  N   UNL     1     -11.211   9.400  68.588  1.00  0.00     0.073 NA 
HETATM    6  C   UNL     1     -11.640   9.422  69.817  1.00  0.00     0.132 A  
ENDROOT
BRANCH   3   7
HETATM    7  C   UNL     1     -11.371  13.182  68.913  1.00  0.00    -0.335 A  
HETATM    8  C   UNL     1     -10.869  15.244  67.702  1.00  0.00    -0.295 A  
HETATM    9  C   UNL     1     -11.813  15.350  69.819  1.00  0.00    -0.347 A  
HETATM   10  C   UNL     1     -10.867  13.843  67.775  1.00  0.00    -0.261 A  
HETATM   11  N   UNL     1     -11.329  15.988  68.735  1.00  0.00    -0.365 NA 
HETATM   12  C   UNL     1     -11.866  13.974  69.946  1.00  0.00    -0.393 A  
BRANCH   8  13
HETATM   13  C   UNL     1     -10.305  16.000  66.491  1.00  0.00    -0.303 C  
HETATM   14  F   UNL     1     -10.251  15.082  64.272  1.00  0.00    -0.067 F  
HETATM   15  C   UNL     1     -10.375  17.534  66.711  1.00  0.00    -0.314 C  
HETATM   16  C   UNL     1      -8.807  15.650  66.345  1.00  0.00    -0.365 C  
HETATM   17  F   UNL     1     -11.601  16.750  64.595  1.00  0.00    -0.282 F  
HETATM   18  F   UNL     1     -12.090  14.787  65.379  1.00  0.00    -0.349 F  
HETATM   19  C   UNL     1     -11.069  15.655  65.191  1.00  0.00    -0.348 C  
ENDBRANCH   8  13
ENDBRANCH   3   7
BRANCH   6  20
HETATM   20  N   UNL     1     -11.975   8.393  70.653  1.00  0.00    -0.484 N  
HETATM   21  H   UNL     1     -12.647   8.576  71.398  1.00  0.00     0.000 HD 
BRANCH  20  22
HETATM   22  C   UNL     1     -11.455   7.129  70.543  1.00  0.00    -0.295 C  
HETATM   23  O   UNL     1     -11.660   6.347  69.618  1.00  0.00    -0.417 OA 
BRANCH  22  24
HETATM   24  N   UNL     1     -10.636   6.758  71.601  1.00  0.00    -0.213 N  
HETATM   25  C   UNL     1     -10.790   7.337  72.925  1.00  0.00    -0.337 C  
HETATM   26  C   UNL     1      -9.374   7.370  73.469  1.00  0.00    -0.287 C  
HETATM   27  C   UNL     1      -8.706   6.142  72.857  1.00  0.00    -0.122 C  
HETATM   28  C   UNL     1      -9.467   5.873  71.557  1.00  0.00    -0.152 C  
BRANCH  28  29
HETATM   29  C   UNL     1      -9.898   4.397  71.478  1.00  0.00    -0.189 C  
HETATM   30  N   UNL     1     -10.205   3.788  72.663  1.00  0.00    -0.165 N  
HETATM   31  O   UNL     1      -9.852   3.752  70.435  1.00  0.00    -0.185 OA 
HETATM   32  H1  UNL     1     -10.491   2.811  72.611  1.00  0.00     0.000 HD 
HETATM   33  H2  UNL     1     -10.152   4.286  73.552  1.00  0.00     0.000 HD 
ENDBRANCH  28  29
ENDBRANCH  22  24
ENDBRANCH  20  22
ENDBRANCH   6  20
TORSDOF 6
ENDMDL
MODEL      158
REMARK 921   NORMALIZED FREE ENERGY PREDICTED BY IDOCK:   -5.44 KCAL/MOL
REMARK 922        TOTAL FREE ENERGY PREDICTED BY IDOCK:   -8.44 KCAL/MOL
REMARK 923 INTER-LIGAND FREE ENERGY PREDICTED BY IDOCK:   -8.59 KCAL/MOL
REMARK 924 INTRA-LIGAND FREE ENERGY PREDICTED BY IDOCK:    0.15 KCAL/MOL
REMARK 927      BINDING AFFINITY PREDICTED BY RF-SCORE:    0.00 PKD
ROOT
HETATM    1  C   UNL     1     -11.987  14.102  65.179  1.00  0.00    -0.390 C  
HETATM    2  C   UNL     1     -11.242  13.330  66.209  1.00  0.00    -0.299 A  
HETATM    3  C   UNL     1     -10.114  13.692  66.949  1.00  0.00    -0.260 A  
HETATM    4  S   UNL     1      -9.658  12.335  67.927  1.00  0.00    -0.209 SA 
HETATM    5  N   UNL     1     -11.756  12.070  66.489  1.00  0.00    -0.575 NA 
HETATM    6  C   UNL     1     -11.020  11.474  67.381  1.00  0.00    -0.265 A  
ENDROOT
BRANCH   3   7
HETATM    7  C   UNL     1      -9.305  14.929  66.990  1.00  0.00    -0.240 A  
HETATM    8  C   UNL     1      -9.100  17.355  67.177  1.00  0.00    -0.237 A  
HETATM    9  C   UNL     1      -7.202  16.059  66.865  1.00  0.00    -0.177 A  
HETATM   10  C   UNL     1      -9.892  16.198  67.153  1.00  0.00    -0.241 A  
HETATM   11  N   UNL     1      -7.758  17.277  67.016  1.00  0.00    -0.185 NA 
HETATM   12  C   UNL     1      -7.918  14.876  66.858  1.00  0.00    -0.067 A  
BRANCH   8  13
HETATM   13  C   UNL     1      -9.706  18.757  67.327  1.00  0.00    -0.335 C  
HETATM   14  F   UNL     1      -9.790  19.942  69.416  1.00  0.00    -0.440 F  
HETATM   15  C   UNL     1      -9.663  19.529  65.982  1.00  0.00    -0.378 C  
HETATM   16  C   UNL     1     -11.200  18.613  67.697  1.00  0.00     0.210 C  
HETATM   17  F   UNL     1      -8.468  20.752  67.897  1.00  0.00    -0.216 F  
HETATM   18  F   UNL     1      -7.922  18.943  68.962  1.00  0.00    -0.345 F  
HETATM   19  C   UNL     1      -8.964  19.594  68.396  1.00  0.00    -0.319 C  
ENDBRANCH   8  13
ENDBRANCH   3   7
BRANCH   6  20
HETATM   20  N   UNL     1     -11.162  10.246  67.966  1.00  0.00    -0.463 N  
HETATM   21  H   UNL     1     -11.692   9.532  67.467  1.00  0.00     0.000 HD 
BRANCH  20  22
HETATM   22  C   UNL     1     -10.631   9.925  69.189  1.00  0.00    -0.220 C  
HETATM   23  O   UNL     1      -9.435   9.810  69.443  1.00  0.00    -0.176 OA 
BRANCH  22  24
HETATM   24  N   UNL     1     -11.579   9.720  70.183  1.00  0.00    -0.220 N  
HETATM   25  C   UNL     1     -12.832  10.454  70.206  1.00  0.00    -0.105 C  
HETATM   26  C   UNL     1     -13.132  10.607  71.685  1.00  0.00    -0.555 C  
HETATM   27  C   UNL     1     -12.569   9.337  72.318  1.00  0.00    -0.402 C  
HETATM   28  C   UNL     1     -11.450   8.879  71.379  1.00  0.00    -0.311 C  
BRANCH  28  29
HETATM   29  C   UNL     1     -11.617   7.391  71.024  1.00  0.00    -0.288 C  
HETATM   30  N   UNL     1     -11.682   7.085  69.693  1.00  0.00    -0.576 N  
HETATM   31  O   UNL     1     -11.810   6.529  71.877  1.00  0.00    -0.309 OA 
HETATM   32  H1  UNL     1     -11.794   6.098  69.459  1.00  0.00     0.000 HD 
HETATM   33  H2  UNL     1     -11.623   7.805  68.974  1.00  0.00     0.000 HD 
ENDBRANCH  28  29
ENDBRANCH  22  24
ENDBRANCH  20  22
ENDBRANCH   6  20
TORSDOF 6
ENDMDL
MODEL      159
REMARK 921   NORMALIZED FREE ENERGY PREDICTED BY IDOCK:   -5.44 KCAL/MOL
REMARK 922        TOTAL FREE ENERGY PREDICTED BY IDOCK:   -8.44 KCAL/MOL
REMARK 923 INTER-LIGAND FREE ENERGY PREDICTED BY IDOCK:   -6.98 KCAL/MOL
REMARK 924 INTRA-LIGAND FREE ENERGY PREDICTED BY IDOCK:   -1.46 KCAL/MOL
REMARK 927      BINDING AFFINITY PREDICTED BY RF-SCORE:    0.00 PKD
ROOT
HETATM    1  C   UNL     1      -9.159   8.024  66.366  1.00  0.00    -0.226 C  
HETATM    2  C   UNL     1      -9.038   8.579  67.740  1.00  0.00    -0.135 A  
HETATM    3  C   UNL     1      -9.350   9.855  68.216  1.00  0.00    -0.132 A  
HETATM    4  S   UNL     1      -8.905   9.925  69.889  1.00  0.00    -0.148 SA 
HETATM    5  N   UNL     1      -8.558   7.690  68.695  1.00  0.00    -0.129 NA 
HETATM    6  C   UNL     1      -8.468   8.281  69.851  1.00  0.00    -0.127 A  
ENDROOT
BRANCH   3   7
HETATM    7  C   UNL     1      -9.912  11.053  67.557  1.00  0.00    -0.199 A  
HETATM    8  C   UNL     1      -9.999  13.468  67.204  1.00  0.00    -0.246 A  
HETATM    9  C   UNL     1     -11.471  12.083  66.065  1.00  0.00    -0.338 A  
HETATM   10  C   UNL     1      -9.439  12.349  67.837  1.00  0.00    -0.198 A  
HETATM   11  N   UNL     1     -11.025  13.326  66.332  1.00  0.00    -0.287 NA 
HETATM   12  C   UNL     1     -10.948  10.935  66.632  1.00  0.00    -0.212 A  
BRANCH   8  13
HETATM   13  C   UNL     1      -9.527  14.898  67.503  1.00  0.00    -0.200 C  
HETATM   14  F   UNL     1     -11.014  16.783  67.603  1.00  0.00    -0.332 F  
HETATM   15  C   UNL     1      -8.206  14.890  68.315  1.00  0.00    -0.145 C  
HETATM   16  C   UNL     1      -9.211  15.604  66.165  1.00  0.00    -0.378 C  
HETATM   17  F   UNL     1     -10.106  16.166  69.476  1.00  0.00    -0.222 F  
HETATM   18  F   UNL     1     -11.694  14.980  68.594  1.00  0.00    -0.309 F  
HETATM   19  C   UNL     1     -10.586  15.698  68.298  1.00  0.00    -0.262 C  
ENDBRANCH   8  13
ENDBRANCH   3   7
BRANCH   6  20
HETATM   20  N   UNL     1      -8.074   7.791  71.065  1.00  0.00    -0.096 N  
HETATM   21  H   UNL     1      -7.596   8.421  71.709  1.00  0.00     0.000 HD 
BRANCH  20  22
HETATM   22  C   UNL     1      -8.287   6.495  71.463  1.00  0.00    -0.121 C  
HETATM   23  O   UNL     1      -7.534   5.548  71.255  1.00  0.00    -0.091 OA 
BRANCH  22  24
HETATM   24  N   UNL     1      -9.477   6.303  72.154  1.00  0.00    -0.151 N  
HETATM   25  C   UNL     1      -9.574   6.530  73.585  1.00  0.00    -0.175 C  
HETATM   26  C   UNL     1     -10.590   5.501  74.044  1.00  0.00    -0.283 C  
HETATM   27  C   UNL     1     -11.551   5.369  72.865  1.00  0.00    -0.296 C  
HETATM   28  C   UNL     1     -10.733   5.754  71.630  1.00  0.00    -0.256 C  
BRANCH  28  29
HETATM   29  C   UNL     1     -11.483   6.803  70.790  1.00  0.00    -0.342 C  
HETATM   30  N   UNL     1     -11.585   6.552  69.450  1.00  0.00    -0.653 N  
HETATM   31  O   UNL     1     -11.864   7.872  71.260  1.00  0.00    -0.288 OA 
HETATM   32  H1  UNL     1     -12.083   7.247  68.894  1.00  0.00     0.000 HD 
HETATM   33  H2  UNL     1     -11.185   5.713  69.030  1.00  0.00     0.000 HD 
ENDBRANCH  28  29
ENDBRANCH  22  24
ENDBRANCH  20  22
ENDBRANCH   6  20
TORSDOF 6
ENDMDL
MODEL      160
REMARK 921   NORMALIZED FREE ENERGY PREDICTED BY IDOCK:   -5.42 KCAL/MOL
REMARK 922        TOTAL FREE ENERGY PREDICTED BY IDOCK:   -8.41 KCAL/MOL
REMARK 923 INTER-LIGAND FREE ENERGY PREDICTED BY IDOCK:   -6.88 KCAL/MOL
REMARK 924 INTRA-LIGAND FREE ENERGY PREDICTED BY IDOCK:   -1.53 KCAL/MOL
REMARK 927      BINDING AFFINITY PREDICTED BY RF-SCORE:    0.00 PKD
ROOT
HETATM    1  C   UNL     1     -12.017  11.029  70.981  1.00  0.00    -0.334 C  
HETATM    2  C   UNL     1     -11.505   9.741  70.444  1.00  0.00    -0.280 A  
HETATM    3  C   UNL     1     -10.675   9.501  69.346  1.00  0.00    -0.225 A  
HETATM    4  S   UNL     1     -10.504   7.785  69.170  1.00  0.00    -0.185 SA 
HETATM    5  N   UNL     1     -11.897   8.609  71.150  1.00  0.00    -0.287 NA 
HETATM    6  C   UNL     1     -11.417   7.540  70.584  1.00  0.00    -0.269 A  
ENDROOT
BRANCH   3   7
HETATM    7  C   UNL     1     -10.016  10.406  68.380  1.00  0.00    -0.177 A  
HETATM    8  C   UNL     1     -10.065  12.288  66.824  1.00  0.00    -0.209 A  
HETATM    9  C   UNL     1      -8.101  11.090  67.124  1.00  0.00    -0.134 A  
HETATM   10  C   UNL     1     -10.714  11.451  67.744  1.00  0.00    -0.254 A  
HETATM   11  N   UNL     1      -8.763  12.089  66.508  1.00  0.00    -0.175 NA 
HETATM   12  C   UNL     1      -8.670  10.246  68.059  1.00  0.00    -0.122 A  
BRANCH   8  13
HETATM   13  C   UNL     1     -10.798  13.420  66.091  1.00  0.00    -0.287 C  
HETATM   14  F   UNL     1     -11.921  15.215  67.225  1.00  0.00    -0.322 F  
HETATM   15  C   UNL     1     -10.222  13.624  64.665  1.00  0.00    -0.338 C  
HETATM   16  C   UNL     1     -12.277  13.014  65.908  1.00  0.00    -0.493 C  
HETATM   17  F   UNL     1     -10.135  15.743  66.110  1.00  0.00    -0.257 F  
HETATM   18  F   UNL     1      -9.967  14.679  67.993  1.00  0.00    -0.209 F  
HETATM   19  C   UNL     1     -10.696  14.760  66.856  1.00  0.00    -0.308 C  
ENDBRANCH   8  13
ENDBRANCH   3   7
BRANCH   6  20
HETATM   20  N   UNL     1     -11.525   6.226  70.946  1.00  0.00    -0.330 N  
HETATM   21  H   UNL     1     -12.030   5.594  70.325  1.00  0.00     0.000 HD 
BRANCH  20  22
HETATM   22  C   UNL     1     -10.989   5.713  72.100  1.00  0.00    -0.250 C  
HETATM   23  O   UNL     1     -11.625   5.349  73.086  1.00  0.00    -0.270 OA 
BRANCH  22  24
HETATM   24  N   UNL     1      -9.603   5.625  72.092  1.00  0.00    -0.149 N  
HETATM   25  C   UNL     1      -8.887   4.942  71.029  1.00  0.00    -0.126 C  
HETATM   26  C   UNL     1      -7.677   4.355  71.731  1.00  0.00    -0.079 C  
HETATM   27  C   UNL     1      -7.351   5.364  72.829  1.00  0.00    -0.095 C  
HETATM   28  C   UNL     1      -8.677   6.063  73.142  1.00  0.00    -0.121 C  
BRANCH  28  29
HETATM   29  C   UNL     1      -8.500   7.592  73.116  1.00  0.00    -0.146 C  
HETATM   30  N   UNL     1      -8.665   8.245  74.306  1.00  0.00    -0.312 N  
HETATM   31  O   UNL     1      -8.346   8.219  72.072  1.00  0.00    -0.137 OA 
HETATM   32  H1  UNL     1      -8.548   9.258  74.288  1.00  0.00     0.000 HD 
HETATM   33  H2  UNL     1      -8.892   7.745  75.165  1.00  0.00     0.000 HD 
ENDBRANCH  28  29
ENDBRANCH  22  24
ENDBRANCH  20  22
ENDBRANCH   6  20
TORSDOF 6
ENDMDL
MODEL      161
REMARK 921   NORMALIZED FREE ENERGY PREDICTED BY IDOCK:   -5.40 KCAL/MOL
REMARK 922        TOTAL FREE ENERGY PREDICTED BY IDOCK:   -8.39 KCAL/MOL
REMARK 923 INTER-LIGAND FREE ENERGY PREDICTED BY IDOCK:   -7.96 KCAL/MOL
REMARK 924 INTRA-LIGAND FREE ENERGY PREDICTED BY IDOCK:   -0.44 KCAL/MOL
REMARK 927      BINDING AFFINITY PREDICTED BY RF-SCORE:    0.00 PKD
ROOT
HETATM    1  C   UNL     1     -12.060   9.806  71.602  1.00  0.00    -0.475 C  
HETATM    2  C   UNL     1     -11.119  10.184  70.513  1.00  0.00    -0.327 A  
HETATM    3  C   UNL     1      -9.957   9.541  70.078  1.00  0.00    -0.237 A  
HETATM    4  S   UNL     1      -9.245  10.513  68.832  1.00  0.00    -0.184 SA 
HETATM    5  N   UNL     1     -11.456  11.338  69.816  1.00  0.00    -0.297 NA 
HETATM    6  C   UNL     1     -10.559  11.590  68.907  1.00  0.00    -0.204 A  
ENDROOT
BRANCH   3   7
HETATM    7  C   UNL     1      -9.289   8.295  70.507  1.00  0.00    -0.169 A  
HETATM    8  C   UNL     1      -9.091   6.368  71.995  1.00  0.00    -0.141 A  
HETATM    9  C   UNL     1      -7.543   6.676  70.295  1.00  0.00    -0.096 A  
HETATM   10  C   UNL     1      -9.752   7.541  71.603  1.00  0.00    -0.184 A  
HETATM   11  N   UNL     1      -7.978   5.952  71.345  1.00  0.00    -0.112 NA 
HETATM   12  C   UNL     1      -8.160   7.826  69.838  1.00  0.00    -0.120 A  
BRANCH   8  13
HETATM   13  C   UNL     1      -9.550   5.534  73.199  1.00  0.00    -0.158 C  
HETATM   14  F   UNL     1     -11.741   4.562  73.372  1.00  0.00    -0.383 F  
HETATM   15  C   UNL     1      -8.340   4.889  73.923  1.00  0.00    -0.104 C  
HETATM   16  C   UNL     1     -10.219   6.476  74.225  1.00  0.00    -0.373 C  
HETATM   17  F   UNL     1     -10.085   3.179  73.135  1.00  0.00    -0.151 F  
HETATM   18  F   UNL     1     -10.761   4.365  71.450  1.00  0.00    -0.119 F  
HETATM   19  C   UNL     1     -10.527   4.410  72.781  1.00  0.00    -0.186 C  
ENDBRANCH   8  13
ENDBRANCH   3   7
BRANCH   6  20
HETATM   20  N   UNL     1     -10.497  12.596  67.984  1.00  0.00    -0.218 N  
HETATM   21  H   UNL     1      -9.747  13.282  68.066  1.00  0.00     0.000 HD 
BRANCH  20  22
HETATM   22  C   UNL     1     -11.390  12.731  66.951  1.00  0.00    -0.321 C  
HETATM   23  O   UNL     1     -12.159  11.862  66.550  1.00  0.00    -0.568 OA 
BRANCH  22  24
HETATM   24  N   UNL     1     -11.373  13.982  66.347  1.00  0.00    -0.323 N  
HETATM   25  C   UNL     1     -12.196  14.281  65.188  1.00  0.00    -0.421 C  
HETATM   26  C   UNL     1     -11.356  15.265  64.396  1.00  0.00    -0.224 C  
HETATM   27  C   UNL     1     -10.594  16.052  65.459  1.00  0.00    -0.415 C  
HETATM   28  C   UNL     1     -10.494  15.112  66.664  1.00  0.00    -0.287 C  
BRANCH  28  29
HETATM   29  C   UNL     1     -10.956  15.827  67.946  1.00  0.00    -0.324 C  
HETATM   30  N   UNL     1     -12.134  15.398  68.491  1.00  0.00    -0.556 N  
HETATM   31  O   UNL     1     -10.378  16.813  68.395  1.00  0.00    -0.281 OA 
HETATM   32  H1  UNL     1     -12.441  15.872  69.341  1.00  0.00     0.000 HD 
HETATM   33  H2  UNL     1     -12.677  14.645  68.070  1.00  0.00     0.000 HD 
ENDBRANCH  28  29
ENDBRANCH  22  24
ENDBRANCH  20  22
ENDBRANCH   6  20
TORSDOF 6
ENDMDL
MODEL      162
REMARK 921   NORMALIZED FREE ENERGY PREDICTED BY IDOCK:   -5.40 KCAL/MOL
REMARK 922        TOTAL FREE ENERGY PREDICTED BY IDOCK:   -8.39 KCAL/MOL
REMARK 923 INTER-LIGAND FREE ENERGY PREDICTED BY IDOCK:   -7.59 KCAL/MOL
REMARK 924 INTRA-LIGAND FREE ENERGY PREDICTED BY IDOCK:   -0.80 KCAL/MOL
REMARK 927      BINDING AFFINITY PREDICTED BY RF-SCORE:    0.00 PKD
ROOT
HETATM    1  C   UNL     1     -10.501  11.281  63.703  1.00  0.00    -0.464 C  
HETATM    2  C   UNL     1     -10.380  11.375  65.183  1.00  0.00    -0.290 A  
HETATM    3  C   UNL     1     -10.366  12.505  66.005  1.00  0.00    -0.256 A  
HETATM    4  S   UNL     1     -10.109  11.976  67.635  1.00  0.00    -0.200 SA 
HETATM    5  N   UNL     1     -10.283  10.157  65.846  1.00  0.00    -0.241 NA 
HETATM    6  C   UNL     1     -10.157  10.354  67.126  1.00  0.00    -0.208 A  
ENDROOT
BRANCH   3   7
HETATM    7  C   UNL     1     -10.487  13.949  65.713  1.00  0.00    -0.313 A  
HETATM    8  C   UNL     1      -9.886  16.280  66.126  1.00  0.00    -0.334 A  
HETATM    9  C   UNL     1     -11.469  15.766  64.510  1.00  0.00    -0.289 A  
HETATM   10  C   UNL     1      -9.743  14.916  66.417  1.00  0.00    -0.306 A  
HETATM   11  N   UNL     1     -10.763  16.697  65.183  1.00  0.00    -0.646 NA 
HETATM   12  C   UNL     1     -11.358  14.405  64.726  1.00  0.00    -0.388 A  
BRANCH   8  13
HETATM   13  C   UNL     1      -9.112  17.365  66.889  1.00  0.00    -0.258 C  
HETATM   14  F   UNL     1      -9.975  18.477  68.836  1.00  0.00    -0.358 F  
HETATM   15  C   UNL     1      -7.584  17.208  66.681  1.00  0.00    -0.299 C  
HETATM   16  C   UNL     1      -9.491  18.745  66.306  1.00  0.00    -0.288 C  
HETATM   17  F   UNL     1      -8.286  17.150  69.149  1.00  0.00    -0.236 F  
HETATM   18  F   UNL     1     -10.257  16.330  68.763  1.00  0.00    -0.211 F  
HETATM   19  C   UNL     1      -9.407  17.321  68.407  1.00  0.00    -0.275 C  
ENDBRANCH   8  13
ENDBRANCH   3   7
BRANCH   6  20
HETATM   20  N   UNL     1     -10.057   9.455  68.151  1.00  0.00    -0.173 N  
HETATM   21  H   UNL     1     -10.805   9.427  68.844  1.00  0.00     0.000 HD 
BRANCH  20  22
HETATM   22  C   UNL     1      -9.004   8.588  68.297  1.00  0.00    -0.139 C  
HETATM   23  O   UNL     1      -7.841   8.811  67.973  1.00  0.00    -0.100 OA 
BRANCH  22  24
HETATM   24  N   UNL     1      -9.348   7.368  68.864  1.00  0.00    -0.145 N  
HETATM   25  C   UNL     1     -10.707   6.856  68.808  1.00  0.00    -0.219 C  
HETATM   26  C   UNL     1     -10.856   6.090  70.108  1.00  0.00    -0.409 C  
HETATM   27  C   UNL     1      -9.461   5.532  70.380  1.00  0.00    -0.209 C  
HETATM   28  C   UNL     1      -8.498   6.490  69.675  1.00  0.00    -0.131 C  
BRANCH  28  29
HETATM   29  C   UNL     1      -7.511   5.709  68.789  1.00  0.00    -0.084 C  
HETATM   30  N   UNL     1      -6.185   6.005  68.946  1.00  0.00    -0.034 N  
HETATM   31  O   UNL     1      -7.884   4.950  67.898  1.00  0.00    -0.086 OA 
HETATM   32  H1  UNL     1      -5.532   5.488  68.358  1.00  0.00     0.000 HD 
HETATM   33  H2  UNL     1      -5.868   6.707  69.614  1.00  0.00     0.000 HD 
ENDBRANCH  28  29
ENDBRANCH  22  24
ENDBRANCH  20  22
ENDBRANCH   6  20
TORSDOF 6
ENDMDL
MODEL      163
REMARK 921   NORMALIZED FREE ENERGY PREDICTED BY IDOCK:   -5.39 KCAL/MOL
REMARK 922        TOTAL FREE ENERGY PREDICTED BY IDOCK:   -8.37 KCAL/MOL
REMARK 923 INTER-LIGAND FREE ENERGY PREDICTED BY IDOCK:   -7.33 KCAL/MOL
REMARK 924 INTRA-LIGAND FREE ENERGY PREDICTED BY IDOCK:   -1.04 KCAL/MOL
REMARK 927      BINDING AFFINITY PREDICTED BY RF-SCORE:    0.00 PKD
ROOT
HETATM    1  C   UNL     1     -12.244  13.543  70.142  1.00  0.00    -0.400 C  
HETATM    2  C   UNL     1     -11.502  12.347  69.664  1.00  0.00    -0.194 A  
HETATM    3  C   UNL     1     -10.307  12.269  68.944  1.00  0.00    -0.059 A  
HETATM    4  S   UNL     1      -9.995  10.598  68.605  1.00  0.00    -0.189 SA 
HETATM    5  N   UNL     1     -12.074  11.125  69.999  1.00  0.00    -0.338 NA 
HETATM    6  C   UNL     1     -11.361  10.149  69.514  1.00  0.00    -0.206 A  
ENDROOT
BRANCH   3   7
HETATM    7  C   UNL     1      -9.378  13.304  68.442  1.00  0.00    -0.157 A  
HETATM    8  C   UNL     1      -8.827  15.628  67.932  1.00  0.00    -0.171 A  
HETATM    9  C   UNL     1      -7.295  13.950  67.464  1.00  0.00    -0.166 A  
HETATM   10  C   UNL     1      -9.725  14.669  68.424  1.00  0.00    -0.217 A  
HETATM   11  N   UNL     1      -7.622  15.257  67.439  1.00  0.00    -0.185 NA 
HETATM   12  C   UNL     1      -8.119  12.956  67.958  1.00  0.00    -0.159 A  
BRANCH   8  13
HETATM   13  C   UNL     1      -9.178  17.121  67.872  1.00  0.00    -0.241 C  
HETATM   14  F   UNL     1      -8.935  18.453  65.887  1.00  0.00    -0.211 F  
HETATM   15  C   UNL     1     -10.236  17.488  68.945  1.00  0.00    -0.353 C  
HETATM   16  C   UNL     1      -7.913  17.940  68.210  1.00  0.00    -0.292 C  
HETATM   17  F   UNL     1     -10.966  18.074  66.555  1.00  0.00    -0.248 F  
HETATM   18  F   UNL     1      -9.817  16.493  65.615  1.00  0.00    -0.325 F  
HETATM   19  C   UNL     1      -9.728  17.526  66.484  1.00  0.00    -0.295 C  
ENDBRANCH   8  13
ENDBRANCH   3   7
BRANCH   6  20
HETATM   20  N   UNL     1     -11.531   8.797  69.617  1.00  0.00    -0.407 N  
HETATM   21  H   UNL     1     -11.633   8.256  68.758  1.00  0.00     0.000 HD 
BRANCH  20  22
HETATM   22  C   UNL     1     -11.571   8.128  70.814  1.00  0.00    -0.238 C  
HETATM   23  O   UNL     1     -12.183   8.487  71.816  1.00  0.00    -0.297 OA 
BRANCH  22  24
HETATM   24  N   UNL     1     -10.832   6.952  70.831  1.00  0.00    -0.237 N  
HETATM   25  C   UNL     1     -10.047   6.526  69.686  1.00  0.00    -0.181 C  
HETATM   26  C   UNL     1     -10.126   5.012  69.739  1.00  0.00    -0.337 C  
HETATM   27  C   UNL     1     -10.194   4.690  71.229  1.00  0.00    -0.205 C  
HETATM   28  C   UNL     1     -10.808   5.930  71.884  1.00  0.00    -0.254 C  
BRANCH  28  29
HETATM   29  C   UNL     1      -9.951   6.391  73.077  1.00  0.00    -0.174 C  
HETATM   30  N   UNL     1     -10.601   7.079  74.064  1.00  0.00    -0.472 N  
HETATM   31  O   UNL     1      -8.730   6.268  73.098  1.00  0.00    -0.124 OA 
HETATM   32  H1  UNL     1     -10.034   7.384  74.854  1.00  0.00     0.000 HD 
HETATM   33  H2  UNL     1     -11.600   7.276  74.012  1.00  0.00     0.000 HD 
ENDBRANCH  28  29
ENDBRANCH  22  24
ENDBRANCH  20  22
ENDBRANCH   6  20
TORSDOF 6
ENDMDL
MODEL      164
REMARK 921   NORMALIZED FREE ENERGY PREDICTED BY IDOCK:   -5.37 KCAL/MOL
REMARK 922        TOTAL FREE ENERGY PREDICTED BY IDOCK:   -8.35 KCAL/MOL
REMARK 923 INTER-LIGAND FREE ENERGY PREDICTED BY IDOCK:   -7.15 KCAL/MOL
REMARK 924 INTRA-LIGAND FREE ENERGY PREDICTED BY IDOCK:   -1.20 KCAL/MOL
REMARK 927      BINDING AFFINITY PREDICTED BY RF-SCORE:    0.00 PKD
ROOT
HETATM    1  C   UNL     1     -11.908   9.599  71.073  1.00  0.00    -0.428 C  
HETATM    2  C   UNL     1     -11.420  10.204  69.806  1.00  0.00    -0.228 A  
HETATM    3  C   UNL     1     -10.288   9.891  69.048  1.00  0.00    -0.209 A  
HETATM    4  S   UNL     1     -10.207  11.006  67.723  1.00  0.00    -0.190 SA 
HETATM    5  N   UNL     1     -12.217  11.220  69.291  1.00  0.00    -0.361 NA 
HETATM    6  C   UNL     1     -11.688  11.694  68.200  1.00  0.00    -0.295 A  
ENDROOT
BRANCH   3   7
HETATM    7  C   UNL     1      -9.230   8.872  69.213  1.00  0.00    -0.145 A  
HETATM    8  C   UNL     1      -8.496   6.551  69.402  1.00  0.00    -0.127 A  
HETATM    9  C   UNL     1      -6.943   8.267  69.554  1.00  0.00    -0.046 A  
HETATM   10  C   UNL     1      -9.520   7.494  69.234  1.00  0.00    -0.154 A  
HETATM   11  N   UNL     1      -7.214   6.947  69.578  1.00  0.00    -0.079 NA 
HETATM   12  C   UNL     1      -7.897   9.249  69.365  1.00  0.00    -0.083 A  
BRANCH   8  13
HETATM   13  C   UNL     1      -8.776   5.042  69.456  1.00  0.00    -0.109 C  
HETATM   14  F   UNL     1     -10.002   3.867  67.757  1.00  0.00    -0.207 F  
HETATM   15  C   UNL     1      -7.710   4.308  70.311  1.00  0.00    -0.045 C  
HETATM   16  C   UNL     1     -10.131   4.816  70.163  1.00  0.00    -0.310 C  
HETATM   17  F   UNL     1      -7.886   3.409  67.913  1.00  0.00    -0.069 F  
HETATM   18  F   UNL     1      -8.531   5.293  67.054  1.00  0.00    -0.108 F  
HETATM   19  C   UNL     1      -8.791   4.410  68.044  1.00  0.00    -0.109 C  
ENDBRANCH   8  13
ENDBRANCH   3   7
BRANCH   6  20
HETATM   20  N   UNL     1     -12.136  12.671  67.356  1.00  0.00    -0.232 N  
HETATM   21  H   UNL     1     -12.777  12.407  66.608  1.00  0.00     0.000 HD 
BRANCH  20  22
HETATM   22  C   UNL     1     -11.768  13.989  67.460  1.00  0.00    -0.387 C  
HETATM   23  O   UNL     1     -11.718  14.639  68.501  1.00  0.00    -0.298 OA 
BRANCH  22  24
HETATM   24  N   UNL     1     -11.437  14.583  66.249  1.00  0.00    -0.353 N  
HETATM   25  C   UNL     1     -10.355  15.546  66.141  1.00  0.00    -0.315 C  
HETATM   26  C   UNL     1     -10.825  16.494  65.055  1.00  0.00    -0.245 C  
HETATM   27  C   UNL     1     -11.636  15.613  64.109  1.00  0.00    -0.082 C  
HETATM   28  C   UNL     1     -12.146  14.455  64.971  1.00  0.00    -0.415 C  
BRANCH  28  29
HETATM   29  C   UNL     1     -11.835  13.105  64.302  1.00  0.00    -0.406 C  
HETATM   30  N   UNL     1     -12.903  12.411  63.805  1.00  0.00    -0.781 N  
HETATM   31  O   UNL     1     -10.713  12.605  64.318  1.00  0.00    -0.331 OA 
HETATM   32  H1  UNL     1     -12.696  11.516  63.362  1.00  0.00     0.000 HD 
HETATM   33  H2  UNL     1     -13.855  12.769  63.874  1.00  0.00     0.000 HD 
ENDBRANCH  28  29
ENDBRANCH  22  24
ENDBRANCH  20  22
ENDBRANCH   6  20
TORSDOF 6
ENDMDL
MODEL      165
REMARK 921   NORMALIZED FREE ENERGY PREDICTED BY IDOCK:   -5.36 KCAL/MOL
REMARK 922        TOTAL FREE ENERGY PREDICTED BY IDOCK:   -8.34 KCAL/MOL
REMARK 923 INTER-LIGAND FREE ENERGY PREDICTED BY IDOCK:   -8.08 KCAL/MOL
REMARK 924 INTRA-LIGAND FREE ENERGY PREDICTED BY IDOCK:   -0.26 KCAL/MOL
REMARK 927      BINDING AFFINITY PREDICTED BY RF-SCORE:    0.00 PKD
ROOT
HETATM    1  C   UNL     1     -11.890  14.454  65.316  1.00  0.00    -0.373 C  
HETATM    2  C   UNL     1     -11.163  13.614  66.304  1.00  0.00    -0.305 A  
HETATM    3  C   UNL     1      -9.985  13.883  67.007  1.00  0.00    -0.258 A  
HETATM    4  S   UNL     1      -9.588  12.480  67.942  1.00  0.00    -0.211 SA 
HETATM    5  N   UNL     1     -11.751  12.385  66.581  1.00  0.00    -0.489 NA 
HETATM    6  C   UNL     1     -11.024  11.723  67.434  1.00  0.00    -0.262 A  
ENDROOT
BRANCH   3   7
HETATM    7  C   UNL     1      -9.093  15.062  67.038  1.00  0.00    -0.249 A  
HETATM    8  C   UNL     1      -8.716  17.463  67.274  1.00  0.00    -0.224 A  
HETATM    9  C   UNL     1      -6.927  16.052  66.840  1.00  0.00    -0.104 A  
HETATM   10  C   UNL     1      -9.585  16.363  67.259  1.00  0.00    -0.235 A  
HETATM   11  N   UNL     1      -7.391  17.300  67.047  1.00  0.00    -0.171 NA 
HETATM   12  C   UNL     1      -7.721  14.921  66.840  1.00  0.00     0.062 A  
BRANCH   8  13
HETATM   13  C   UNL     1      -9.218  18.899  67.485  1.00  0.00    -0.319 C  
HETATM   14  F   UNL     1      -9.948  20.318  65.689  1.00  0.00    -0.521 F  
HETATM   15  C   UNL     1      -9.779  19.087  68.919  1.00  0.00    -0.442 C  
HETATM   16  C   UNL     1      -8.019  19.865  67.357  1.00  0.00    -0.324 C  
HETATM   17  F   UNL     1     -11.477  19.653  67.079  1.00  0.00    -0.437 F  
HETATM   18  F   UNL     1     -10.650  18.269  65.628  1.00  0.00    -0.419 F  
HETATM   19  C   UNL     1     -10.326  19.275  66.472  1.00  0.00    -0.450 C  
ENDBRANCH   8  13
ENDBRANCH   3   7
BRANCH   6  20
HETATM   20  N   UNL     1     -11.228  10.497  68.002  1.00  0.00    -0.356 N  
HETATM   21  H   UNL     1     -12.188  10.179  68.134  1.00  0.00     0.000 HD 
BRANCH  20  22
HETATM   22  C   UNL     1     -10.210   9.670  68.405  1.00  0.00    -0.188 C  
HETATM   23  O   UNL     1      -9.530   9.812  69.418  1.00  0.00    -0.176 OA 
BRANCH  22  24
HETATM   24  N   UNL     1      -9.974   8.602  67.550  1.00  0.00    -0.184 N  
HETATM   25  C   UNL     1     -10.820   7.421  67.552  1.00  0.00    -0.187 C  
HETATM   26  C   UNL     1      -9.864   6.295  67.207  1.00  0.00    -0.165 C  
HETATM   27  C   UNL     1      -8.845   6.938  66.270  1.00  0.00    -0.161 C  
HETATM   28  C   UNL     1      -8.838   8.424  66.638  1.00  0.00    -0.142 C  
BRANCH  28  29
HETATM   29  C   UNL     1      -9.002   9.293  65.378  1.00  0.00    -0.207 C  
HETATM   30  N   UNL     1      -8.785   8.674  64.179  1.00  0.00    -0.414 N  
HETATM   31  O   UNL     1      -9.193  10.504  65.435  1.00  0.00    -0.172 OA 
HETATM   32  H1  UNL     1      -8.893   9.250  63.344  1.00  0.00     0.000 HD 
HETATM   33  H2  UNL     1      -8.527   7.689  64.122  1.00  0.00     0.000 HD 
ENDBRANCH  28  29
ENDBRANCH  22  24
ENDBRANCH  20  22
ENDBRANCH   6  20
TORSDOF 6
ENDMDL
MODEL      166
REMARK 921   NORMALIZED FREE ENERGY PREDICTED BY IDOCK:   -5.35 KCAL/MOL
REMARK 922        TOTAL FREE ENERGY PREDICTED BY IDOCK:   -8.32 KCAL/MOL
REMARK 923 INTER-LIGAND FREE ENERGY PREDICTED BY IDOCK:   -7.50 KCAL/MOL
REMARK 924 INTRA-LIGAND FREE ENERGY PREDICTED BY IDOCK:   -0.82 KCAL/MOL
REMARK 927      BINDING AFFINITY PREDICTED BY RF-SCORE:    0.00 PKD
ROOT
HETATM    1  C   UNL     1      -6.482  14.049  67.804  1.00  0.00    -0.181 C  
HETATM    2  C   UNL     1      -7.612  13.091  67.930  1.00  0.00    -0.144 A  
HETATM    3  C   UNL     1      -8.966  13.338  68.173  1.00  0.00    -0.195 A  
HETATM    4  S   UNL     1      -9.773  11.810  68.302  1.00  0.00    -0.199 SA 
HETATM    5  N   UNL     1      -7.273  11.753  67.767  1.00  0.00    -0.090 NA 
HETATM    6  C   UNL     1      -8.325  11.002  67.921  1.00  0.00    -0.124 A  
ENDROOT
BRANCH   3   7
HETATM    7  C   UNL     1      -9.732  14.589  68.357  1.00  0.00    -0.224 A  
HETATM    8  C   UNL     1      -9.927  17.021  68.255  1.00  0.00    -0.285 A  
HETATM    9  C   UNL     1     -11.706  15.754  69.036  1.00  0.00    -0.396 A  
HETATM   10  C   UNL     1      -9.180  15.850  68.061  1.00  0.00    -0.192 A  
HETATM   11  N   UNL     1     -11.182  16.964  68.759  1.00  0.00    -0.161 NA 
HETATM   12  C   UNL     1     -11.037  14.559  68.843  1.00  0.00    -0.273 A  
BRANCH   8  13
HETATM   13  C   UNL     1      -9.351  18.415  67.969  1.00  0.00    -0.304 C  
HETATM   14  F   UNL     1      -8.460  19.061  65.833  1.00  0.00    -0.288 F  
HETATM   15  C   UNL     1      -9.957  19.475  68.925  1.00  0.00    -0.529 C  
HETATM   16  C   UNL     1      -7.832  18.390  68.255  1.00  0.00    -0.314 C  
HETATM   17  F   UNL     1     -10.306  20.026  66.442  1.00  0.00    -0.496 F  
HETATM   18  F   UNL     1     -10.323  17.956  65.793  1.00  0.00    -0.349 F  
HETATM   19  C   UNL     1      -9.618  18.860  66.512  1.00  0.00    -0.346 C  
ENDBRANCH   8  13
ENDBRANCH   3   7
BRANCH   6  20
HETATM   20  N   UNL     1      -8.463   9.646  67.824  1.00  0.00    -0.125 N  
HETATM   21  H   UNL     1      -7.622   9.070  67.866  1.00  0.00     0.000 HD 
BRANCH  20  22
HETATM   22  C   UNL     1      -9.673   9.017  67.673  1.00  0.00    -0.156 C  
HETATM   23  O   UNL     1     -10.478   9.219  66.768  1.00  0.00    -0.244 OA 
BRANCH  22  24
HETATM   24  N   UNL     1      -9.955   8.085  68.663  1.00  0.00    -0.183 N  
HETATM   25  C   UNL     1     -10.311   6.713  68.341  1.00  0.00    -0.193 C  
HETATM   26  C   UNL     1     -11.280   6.327  69.442  1.00  0.00    -0.489 C  
HETATM   27  C   UNL     1     -10.790   7.097  70.665  1.00  0.00    -0.268 C  
HETATM   28  C   UNL     1     -10.063   8.323  70.106  1.00  0.00    -0.191 C  
BRANCH  28  29
HETATM   29  C   UNL     1      -8.669   8.461  70.746  1.00  0.00    -0.150 C  
HETATM   30  N   UNL     1      -8.077   7.305  71.172  1.00  0.00    -0.102 N  
HETATM   31  O   UNL     1      -8.160   9.553  70.983  1.00  0.00    -0.312 OA 
HETATM   32  H1  UNL     1      -7.154   7.398  71.596  1.00  0.00     0.000 HD 
HETATM   33  H2  UNL     1      -8.534   6.399  71.071  1.00  0.00     0.000 HD 
ENDBRANCH  28  29
ENDBRANCH  22  24
ENDBRANCH  20  22
ENDBRANCH   6  20
TORSDOF 6
ENDMDL
MODEL      167
REMARK 921   NORMALIZED FREE ENERGY PREDICTED BY IDOCK:   -5.35 KCAL/MOL
REMARK 922        TOTAL FREE ENERGY PREDICTED BY IDOCK:   -8.31 KCAL/MOL
REMARK 923 INTER-LIGAND FREE ENERGY PREDICTED BY IDOCK:   -7.70 KCAL/MOL
REMARK 924 INTRA-LIGAND FREE ENERGY PREDICTED BY IDOCK:   -0.61 KCAL/MOL
REMARK 927      BINDING AFFINITY PREDICTED BY RF-SCORE:    0.00 PKD
ROOT
HETATM    1  C   UNL     1      -6.741   9.014  68.998  1.00  0.00    -0.051 C  
HETATM    2  C   UNL     1      -7.835   9.297  68.031  1.00  0.00    -0.092 A  
HETATM    3  C   UNL     1      -9.104   8.722  67.929  1.00  0.00    -0.139 A  
HETATM    4  S   UNL     1      -9.891   9.405  66.545  1.00  0.00    -0.278 SA 
HETATM    5  N   UNL     1      -7.559  10.294  67.103  1.00  0.00    -0.092 NA 
HETATM    6  C   UNL     1      -8.567  10.443  66.294  1.00  0.00    -0.142 A  
ENDROOT
BRANCH   3   7
HETATM    7  C   UNL     1      -9.795   7.687  68.728  1.00  0.00    -0.165 A  
HETATM    8  C   UNL     1     -10.378   6.659  70.865  1.00  0.00    -0.208 A  
HETATM    9  C   UNL     1     -11.143   5.720  68.887  1.00  0.00    -0.066 A  
HETATM   10  C   UNL     1      -9.720   7.659  70.134  1.00  0.00    -0.179 A  
HETATM   11  N   UNL     1     -11.073   5.684  70.233  1.00  0.00    -0.229 NA 
HETATM   12  C   UNL     1     -10.544   6.690  68.106  1.00  0.00    -0.294 A  
BRANCH   8  13
HETATM   13  C   UNL     1     -10.298   6.580  72.396  1.00  0.00    -0.210 C  
HETATM   14  F   UNL     1      -9.007   4.925  73.566  1.00  0.00    -0.111 F  
HETATM   15  C   UNL     1     -10.581   7.962  73.041  1.00  0.00    -0.406 C  
HETATM   16  C   UNL     1     -11.408   5.630  72.901  1.00  0.00    -0.325 C  
HETATM   17  F   UNL     1      -8.306   6.975  73.705  1.00  0.00    -0.129 F  
HETATM   18  F   UNL     1      -8.042   5.858  71.865  1.00  0.00    -0.106 F  
HETATM   19  C   UNL     1      -8.911   6.090  72.875  1.00  0.00    -0.122 C  
ENDBRANCH   8  13
ENDBRANCH   3   7
BRANCH   6  20
HETATM   20  N   UNL     1      -8.744  11.315  65.256  1.00  0.00    -0.387 N  
HETATM   21  H   UNL     1      -7.919  11.639  64.751  1.00  0.00     0.000 HD 
BRANCH  20  22
HETATM   22  C   UNL     1      -9.972  11.779  64.858  1.00  0.00    -0.247 C  
HETATM   23  O   UNL     1     -10.669  11.293  63.971  1.00  0.00    -0.353 OA 
BRANCH  22  24
HETATM   24  N   UNL     1     -10.409  12.898  65.554  1.00  0.00    -0.287 N  
HETATM   25  C   UNL     1      -9.546  13.603  66.486  1.00  0.00    -0.286 C  
HETATM   26  C   UNL     1     -10.502  14.108  67.550  1.00  0.00    -0.249 C  
HETATM   27  C   UNL     1     -11.795  14.392  66.791  1.00  0.00    -0.431 C  
HETATM   28  C   UNL     1     -11.762  13.464  65.574  1.00  0.00    -0.340 C  
BRANCH  28  29
HETATM   29  C   UNL     1     -12.047  14.254  64.284  1.00  0.00    -0.441 C  
HETATM   30  N   UNL     1     -12.013  15.617  64.385  1.00  0.00    -0.535 N  
HETATM   31  O   UNL     1     -12.411  13.710  63.245  1.00  0.00    -0.801 OA 
HETATM   32  H1  UNL     1     -12.202  16.141  63.530  1.00  0.00     0.000 HD 
HETATM   33  H2  UNL     1     -11.809  16.085  65.268  1.00  0.00     0.000 HD 
ENDBRANCH  28  29
ENDBRANCH  22  24
ENDBRANCH  20  22
ENDBRANCH   6  20
TORSDOF 6
ENDMDL
MODEL      168
REMARK 921   NORMALIZED FREE ENERGY PREDICTED BY IDOCK:   -5.34 KCAL/MOL
REMARK 922        TOTAL FREE ENERGY PREDICTED BY IDOCK:   -8.31 KCAL/MOL
REMARK 923 INTER-LIGAND FREE ENERGY PREDICTED BY IDOCK:   -7.56 KCAL/MOL
REMARK 924 INTRA-LIGAND FREE ENERGY PREDICTED BY IDOCK:   -0.75 KCAL/MOL
REMARK 927      BINDING AFFINITY PREDICTED BY RF-SCORE:    0.00 PKD
ROOT
HETATM    1  C   UNL     1     -10.331  11.021  64.977  1.00  0.00    -0.360 C  
HETATM    2  C   UNL     1     -10.328  11.136  66.460  1.00  0.00    -0.243 A  
HETATM    3  C   UNL     1     -10.062  10.164  67.427  1.00  0.00    -0.205 A  
HETATM    4  S   UNL     1     -10.304  10.881  68.986  1.00  0.00    -0.200 SA 
HETATM    5  N   UNL     1     -10.617  12.402  66.954  1.00  0.00    -0.227 NA 
HETATM    6  C   UNL     1     -10.612  12.386  68.256  1.00  0.00    -0.222 A  
ENDROOT
BRANCH   3   7
HETATM    7  C   UNL     1      -9.679   8.739  67.328  1.00  0.00    -0.238 A  
HETATM    8  C   UNL     1      -9.411   6.515  68.301  1.00  0.00    -0.118 A  
HETATM    9  C   UNL     1      -8.799   6.890  66.095  1.00  0.00    -0.147 A  
HETATM   10  C   UNL     1      -9.792   7.859  68.422  1.00  0.00    -0.185 A  
HETATM   11  N   UNL     1      -8.901   6.044  67.139  1.00  0.00    -0.109 NA 
HETATM   12  C   UNL     1      -9.180   8.218  66.136  1.00  0.00    -0.250 A  
BRANCH   8  13
HETATM   13  C   UNL     1      -9.495   5.533  69.477  1.00  0.00    -0.185 C  
HETATM   14  F   UNL     1      -7.583   4.399  70.388  1.00  0.00    -0.047 F  
HETATM   15  C   UNL     1     -10.733   5.830  70.363  1.00  0.00    -0.372 C  
HETATM   16  C   UNL     1      -9.694   4.106  68.917  1.00  0.00    -0.176 C  
HETATM   17  F   UNL     1      -8.517   5.891  71.657  1.00  0.00    -0.122 F  
HETATM   18  F   UNL     1      -7.323   6.505  69.954  1.00  0.00    -0.075 F  
HETATM   19  C   UNL     1      -8.231   5.592  70.367  1.00  0.00    -0.104 C  
ENDBRANCH   8  13
ENDBRANCH   3   7
BRANCH   6  20
HETATM   20  N   UNL     1     -10.816  13.398  69.152  1.00  0.00    -0.413 N  
HETATM   21  H   UNL     1     -10.032  13.695  69.732  1.00  0.00     0.000 HD 
BRANCH  20  22
HETATM   22  C   UNL     1     -12.021  14.036  69.312  1.00  0.00    -0.353 C  
HETATM   23  O   UNL     1     -12.633  14.641  68.437  1.00  0.00     0.107 OA 
BRANCH  22  24
HETATM   24  N   UNL     1     -12.538  13.956  70.598  1.00  0.00    -0.343 N  
HETATM   25  C   UNL     1     -12.477  12.727  71.371  1.00  0.00    -0.121 C  
HETATM   26  C   UNL     1     -13.745  12.763  72.203  1.00  0.00    -0.454 C  
HETATM   27  C   UNL     1     -13.972  14.247  72.479  1.00  0.00    -0.519 C  
HETATM   28  C   UNL     1     -13.298  14.983  71.319  1.00  0.00    -0.438 C  
BRANCH  28  29
HETATM   29  C   UNL     1     -12.365  16.087  71.849  1.00  0.00    -0.450 C  
HETATM   30  N   UNL     1     -11.525  16.664  70.937  1.00  0.00    -0.483 N  
HETATM   31  O   UNL     1     -12.277  16.357  73.043  1.00  0.00    -0.509 OA 
HETATM   32  H1  UNL     1     -10.907  17.396  71.289  1.00  0.00     0.000 HD 
HETATM   33  H2  UNL     1     -11.518  16.378  69.958  1.00  0.00     0.000 HD 
ENDBRANCH  28  29
ENDBRANCH  22  24
ENDBRANCH  20  22
ENDBRANCH   6  20
TORSDOF 6
ENDMDL
MODEL      169
REMARK 921   NORMALIZED FREE ENERGY PREDICTED BY IDOCK:   -5.34 KCAL/MOL
REMARK 922        TOTAL FREE ENERGY PREDICTED BY IDOCK:   -8.31 KCAL/MOL
REMARK 923 INTER-LIGAND FREE ENERGY PREDICTED BY IDOCK:   -7.22 KCAL/MOL
REMARK 924 INTRA-LIGAND FREE ENERGY PREDICTED BY IDOCK:   -1.09 KCAL/MOL
REMARK 927      BINDING AFFINITY PREDICTED BY RF-SCORE:    0.00 PKD
ROOT
HETATM    1  C   UNL     1      -8.748   8.353  65.217  1.00  0.00    -0.148 C  
HETATM    2  C   UNL     1      -8.553   9.404  66.251  1.00  0.00    -0.131 A  
HETATM    3  C   UNL     1      -8.521   9.289  67.643  1.00  0.00    -0.116 A  
HETATM    4  S   UNL     1      -8.350  10.880  68.308  1.00  0.00    -0.136 SA 
HETATM    5  N   UNL     1      -8.357  10.689  65.757  1.00  0.00    -0.160 NA 
HETATM    6  C   UNL     1      -8.222  11.530  66.741  1.00  0.00    -0.164 A  
ENDROOT
BRANCH   3   7
HETATM    7  C   UNL     1      -8.639   8.125  68.548  1.00  0.00    -0.130 A  
HETATM    8  C   UNL     1      -9.452   7.073  70.596  1.00  0.00    -0.165 A  
HETATM    9  C   UNL     1      -8.124   5.864  69.127  1.00  0.00    -0.106 A  
HETATM   10  C   UNL     1      -9.365   8.190  69.753  1.00  0.00    -0.159 A  
HETATM   11  N   UNL     1      -8.814   5.920  70.284  1.00  0.00    -0.141 NA 
HETATM   12  C   UNL     1      -8.020   6.916  68.237  1.00  0.00    -0.119 A  
BRANCH   8  13
HETATM   13  C   UNL     1     -10.212   7.112  71.930  1.00  0.00    -0.208 C  
HETATM   14  F   UNL     1      -9.507   5.908  73.886  1.00  0.00    -0.132 F  
HETATM   15  C   UNL     1     -11.037   8.419  72.061  1.00  0.00    -0.397 C  
HETATM   16  C   UNL     1     -11.230   5.951  71.952  1.00  0.00    -0.323 C  
HETATM   17  F   UNL     1      -9.369   8.072  73.981  1.00  0.00    -0.319 F  
HETATM   18  F   UNL     1      -7.949   6.942  72.792  1.00  0.00    -0.102 F  
HETATM   19  C   UNL     1      -9.254   7.014  73.141  1.00  0.00    -0.138 C  
ENDBRANCH   8  13
ENDBRANCH   3   7
BRANCH   6  20
HETATM   20  N   UNL     1      -7.988  12.877  66.724  1.00  0.00    -0.396 N  
HETATM   21  H   UNL     1      -7.103  13.209  66.341  1.00  0.00     0.000 HD 
BRANCH  20  22
HETATM   22  C   UNL     1      -8.880  13.806  67.196  1.00  0.00    -0.231 C  
HETATM   23  O   UNL     1      -8.621  14.717  67.977  1.00  0.00    -0.155 OA 
BRANCH  22  24
HETATM   24  N   UNL     1     -10.173  13.647  66.713  1.00  0.00    -0.264 N  
HETATM   25  C   UNL     1     -10.440  13.444  65.299  1.00  0.00    -0.324 C  
HETATM   26  C   UNL     1     -11.778  14.127  65.085  1.00  0.00    -0.361 C  
HETATM   27  C   UNL     1     -12.520  13.925  66.403  1.00  0.00    -0.414 C  
HETATM   28  C   UNL     1     -11.427  13.771  67.464  1.00  0.00    -0.330 C  
BRANCH  28  29
HETATM   29  C   UNL     1     -11.679  12.519  68.323  1.00  0.00    -0.340 C  
HETATM   30  N   UNL     1     -11.374  12.619  69.651  1.00  0.00    -0.479 N  
HETATM   31  O   UNL     1     -12.016  11.444  67.835  1.00  0.00    -0.626 OA 
HETATM   32  H1  UNL     1     -11.541  11.789  70.220  1.00  0.00     0.000 HD 
HETATM   33  H2  UNL     1     -10.998  13.479  70.052  1.00  0.00     0.000 HD 
ENDBRANCH  28  29
ENDBRANCH  22  24
ENDBRANCH  20  22
ENDBRANCH   6  20
TORSDOF 6
ENDMDL
MODEL      170
REMARK 921   NORMALIZED FREE ENERGY PREDICTED BY IDOCK:   -5.34 KCAL/MOL
REMARK 922        TOTAL FREE ENERGY PREDICTED BY IDOCK:   -8.30 KCAL/MOL
REMARK 923 INTER-LIGAND FREE ENERGY PREDICTED BY IDOCK:   -7.09 KCAL/MOL
REMARK 924 INTRA-LIGAND FREE ENERGY PREDICTED BY IDOCK:   -1.22 KCAL/MOL
REMARK 927      BINDING AFFINITY PREDICTED BY RF-SCORE:    0.00 PKD
ROOT
HETATM    1  C   UNL     1      -8.319   8.292  66.840  1.00  0.00    -0.114 C  
HETATM    2  C   UNL     1      -8.458   8.420  68.316  1.00  0.00    -0.135 A  
HETATM    3  C   UNL     1      -9.273   9.275  69.062  1.00  0.00    -0.144 A  
HETATM    4  S   UNL     1      -8.923   9.017  70.740  1.00  0.00    -0.250 SA 
HETATM    5  N   UNL     1      -7.672   7.549  69.060  1.00  0.00    -0.115 NA 
HETATM    6  C   UNL     1      -7.851   7.761  70.332  1.00  0.00    -0.090 A  
ENDROOT
BRANCH   3   7
HETATM    7  C   UNL     1     -10.267  10.297  68.670  1.00  0.00    -0.196 A  
HETATM    8  C   UNL     1     -11.093  12.012  67.140  1.00  0.00    -0.290 A  
HETATM    9  C   UNL     1     -12.256  11.553  69.094  1.00  0.00    -0.156 A  
HETATM   10  C   UNL     1     -10.139  11.041  67.481  1.00  0.00    -0.208 A  
HETATM   11  N   UNL     1     -12.138  12.272  67.960  1.00  0.00    -0.409 NA 
HETATM   12  C   UNL     1     -11.369  10.565  69.478  1.00  0.00    -0.341 A  
BRANCH   8  13
HETATM   13  C   UNL     1     -10.974  12.861  65.866  1.00  0.00    -0.300 C  
HETATM   14  F   UNL     1      -9.754  12.156  63.920  1.00  0.00    -0.280 F  
HETATM   15  C   UNL     1     -12.169  13.841  65.738  1.00  0.00    -0.495 C  
HETATM   16  C   UNL     1      -9.705  13.736  65.972  1.00  0.00    -0.255 C  
HETATM   17  F   UNL     1     -11.912  12.279  63.717  1.00  0.00    -0.435 F  
HETATM   18  F   UNL     1     -11.016  10.659  64.846  1.00  0.00    -0.265 F  
HETATM   19  C   UNL     1     -10.921  11.984  64.593  1.00  0.00    -0.317 C  
ENDBRANCH   8  13
ENDBRANCH   3   7
BRANCH   6  20
HETATM   20  N   UNL     1      -7.310   7.128  71.416  1.00  0.00    -0.078 N  
HETATM   21  H   UNL     1      -6.562   7.599  71.927  1.00  0.00     0.000 HD 
BRANCH  20  22
HETATM   22  C   UNL     1      -7.719   5.895  71.855  1.00  0.00    -0.102 C  
HETATM   23  O   UNL     1      -7.060   4.860  71.801  1.00  0.00    -0.057 OA 
BRANCH  22  24
HETATM   24  N   UNL     1      -8.999   5.880  72.393  1.00  0.00    -0.138 N  
HETATM   25  C   UNL     1      -9.324   6.601  73.611  1.00  0.00    -0.152 C  
HETATM   26  C   UNL     1     -10.385   5.737  74.267  1.00  0.00    -0.285 C  
HETATM   27  C   UNL     1     -11.146   5.120  73.097  1.00  0.00    -0.391 C  
HETATM   28  C   UNL     1     -10.149   5.091  71.936  1.00  0.00    -0.197 C  
BRANCH  28  29
HETATM   29  C   UNL     1     -10.773   5.710  70.672  1.00  0.00    -0.263 C  
HETATM   30  N   UNL     1     -11.766   6.629  70.870  1.00  0.00    -0.359 N  
HETATM   31  O   UNL     1     -10.496   5.319  69.542  1.00  0.00    -0.273 OA 
HETATM   32  H1  UNL     1     -12.180   7.038  70.033  1.00  0.00     0.000 HD 
HETATM   33  H2  UNL     1     -12.076   6.890  71.806  1.00  0.00     0.000 HD 
ENDBRANCH  28  29
ENDBRANCH  22  24
ENDBRANCH  20  22
ENDBRANCH   6  20
TORSDOF 6
ENDMDL
MODEL      171
REMARK 921   NORMALIZED FREE ENERGY PREDICTED BY IDOCK:   -5.33 KCAL/MOL
REMARK 922        TOTAL FREE ENERGY PREDICTED BY IDOCK:   -8.30 KCAL/MOL
REMARK 923 INTER-LIGAND FREE ENERGY PREDICTED BY IDOCK:   -7.37 KCAL/MOL
REMARK 924 INTRA-LIGAND FREE ENERGY PREDICTED BY IDOCK:   -0.93 KCAL/MOL
REMARK 927      BINDING AFFINITY PREDICTED BY RF-SCORE:    0.00 PKD
ROOT
HETATM    1  C   UNL     1     -10.827  12.214  65.802  1.00  0.00    -0.319 C  
HETATM    2  C   UNL     1     -10.992  11.642  67.165  1.00  0.00    -0.280 A  
HETATM    3  C   UNL     1     -11.167  12.293  68.389  1.00  0.00    -0.266 A  
HETATM    4  S   UNL     1     -11.209  11.088  69.634  1.00  0.00    -0.274 SA 
HETATM    5  N   UNL     1     -10.987  10.253  67.227  1.00  0.00    -0.253 NA 
HETATM    6  C   UNL     1     -11.112   9.860  68.461  1.00  0.00    -0.129 A  
ENDROOT
BRANCH   3   7
HETATM    7  C   UNL     1     -11.273  13.723  68.749  1.00  0.00    -0.303 A  
HETATM    8  C   UNL     1     -10.532  16.043  68.568  1.00  0.00    -0.258 A  
HETATM    9  C   UNL     1     -12.276  15.497  69.998  1.00  0.00    -0.355 A  
HETATM   10  C   UNL     1     -10.414  14.695  68.200  1.00  0.00    -0.237 A  
HETATM   11  N   UNL     1     -11.454  16.432  69.480  1.00  0.00    -0.207 NA 
HETATM   12  C   UNL     1     -12.233  14.157  69.660  1.00  0.00    -0.376 A  
BRANCH   8  13
HETATM   13  C   UNL     1      -9.598  17.126  68.012  1.00  0.00    -0.267 C  
HETATM   14  F   UNL     1      -8.481  16.943  65.892  1.00  0.00    -0.312 F  
HETATM   15  C   UNL     1      -9.943  18.517  68.606  1.00  0.00    -0.419 C  
HETATM   16  C   UNL     1      -8.153  16.810  68.458  1.00  0.00    -0.241 C  
HETATM   17  F   UNL     1     -10.031  18.455  66.041  1.00  0.00    -0.330 F  
HETATM   18  F   UNL     1     -10.566  16.356  65.923  1.00  0.00    -0.313 F  
HETATM   19  C   UNL     1      -9.679  17.219  66.470  1.00  0.00    -0.288 C  
ENDBRANCH   8  13
ENDBRANCH   3   7
BRANCH   6  20
HETATM   20  N   UNL     1     -11.182   8.598  68.982  1.00  0.00    -0.339 N  
HETATM   21  H   UNL     1     -11.765   8.447  69.805  1.00  0.00     0.000 HD 
BRANCH  20  22
HETATM   22  C   UNL     1     -10.509   7.524  68.457  1.00  0.00    -0.180 C  
HETATM   23  O   UNL     1     -10.846   6.881  67.466  1.00  0.00    -0.266 OA 
BRANCH  22  24
HETATM   24  N   UNL     1      -9.356   7.182  69.152  1.00  0.00    -0.142 N  
HETATM   25  C   UNL     1      -8.094   7.863  68.922  1.00  0.00    -0.125 C  
HETATM   26  C   UNL     1      -7.056   6.780  69.146  1.00  0.00    -0.088 C  
HETATM   27  C   UNL     1      -7.665   5.892  70.227  1.00  0.00    -0.096 C  
HETATM   28  C   UNL     1      -9.179   6.068  70.091  1.00  0.00    -0.154 C  
BRANCH  28  29
HETATM   29  C   UNL     1      -9.811   6.393  71.456  1.00  0.00    -0.168 C  
HETATM   30  N   UNL     1      -8.981   6.938  72.397  1.00  0.00    -0.133 N  
HETATM   31  O   UNL     1     -10.960   6.072  71.743  1.00  0.00    -0.250 OA 
HETATM   32  H1  UNL     1      -9.400   7.153  73.302  1.00  0.00     0.000 HD 
HETATM   33  H2  UNL     1      -7.997   7.119  72.203  1.00  0.00     0.000 HD 
ENDBRANCH  28  29
ENDBRANCH  22  24
ENDBRANCH  20  22
ENDBRANCH   6  20
TORSDOF 6
ENDMDL
MODEL      172
REMARK 921   NORMALIZED FREE ENERGY PREDICTED BY IDOCK:   -5.32 KCAL/MOL
REMARK 922        TOTAL FREE ENERGY PREDICTED BY IDOCK:   -8.29 KCAL/MOL
REMARK 923 INTER-LIGAND FREE ENERGY PREDICTED BY IDOCK:   -7.28 KCAL/MOL
REMARK 924 INTRA-LIGAND FREE ENERGY PREDICTED BY IDOCK:   -1.00 KCAL/MOL
REMARK 927      BINDING AFFINITY PREDICTED BY RF-SCORE:    0.00 PKD
ROOT
HETATM    1  C   UNL     1     -12.386  11.036  70.718  1.00  0.00    -0.496 C  
HETATM    2  C   UNL     1     -11.135  10.713  69.981  1.00  0.00    -0.289 A  
HETATM    3  C   UNL     1     -10.223   9.675  70.188  1.00  0.00    -0.264 A  
HETATM    4  S   UNL     1      -8.918   9.878  69.065  1.00  0.00    -0.171 SA 
HETATM    5  N   UNL     1     -10.839  11.560  68.920  1.00  0.00    -0.210 NA 
HETATM    6  C   UNL     1      -9.718  11.205  68.363  1.00  0.00    -0.191 A  
ENDROOT
BRANCH   3   7
HETATM    7  C   UNL     1     -10.189   8.558  71.156  1.00  0.00    -0.272 A  
HETATM    8  C   UNL     1      -8.977   6.989  72.583  1.00  0.00    -0.123 A  
HETATM    9  C   UNL     1     -11.291   6.887  72.463  1.00  0.00    -0.253 A  
HETATM   10  C   UNL     1      -8.979   8.057  71.673  1.00  0.00    -0.192 A  
HETATM   11  N   UNL     1     -10.136   6.400  72.958  1.00  0.00    -0.181 NA 
HETATM   12  C   UNL     1     -11.368   7.953  71.585  1.00  0.00    -0.299 A  
BRANCH   8  13
HETATM   13  C   UNL     1      -7.677   6.399  73.148  1.00  0.00    -0.098 C  
HETATM   14  F   UNL     1      -6.881   4.199  72.602  1.00  0.00    -0.042 F  
HETATM   15  C   UNL     1      -6.685   7.521  73.549  1.00  0.00    -0.079 C  
HETATM   16  C   UNL     1      -8.008   5.627  74.445  1.00  0.00    -0.104 C  
HETATM   17  F   UNL     1      -5.714   5.865  71.845  1.00  0.00    -0.023 F  
HETATM   18  F   UNL     1      -7.626   5.380  70.945  1.00  0.00    -0.078 F  
HETATM   19  C   UNL     1      -6.978   5.468  72.129  1.00  0.00    -0.081 C  
ENDBRANCH   8  13
ENDBRANCH   3   7
BRANCH   6  20
HETATM   20  N   UNL     1      -9.063  11.731  67.284  1.00  0.00    -0.167 N  
HETATM   21  H   UNL     1      -8.378  11.147  66.803  1.00  0.00     0.000 HD 
BRANCH  20  22
HETATM   22  C   UNL     1      -9.278  13.001  66.813  1.00  0.00    -0.228 C  
HETATM   23  O   UNL     1      -8.648  14.003  67.139  1.00  0.00    -0.205 OA 
BRANCH  22  24
HETATM   24  N   UNL     1     -10.315  13.097  65.894  1.00  0.00    -0.285 N  
HETATM   25  C   UNL     1     -10.901  14.377  65.535  1.00  0.00    -0.331 C  
HETATM   26  C   UNL     1     -12.356  14.043  65.265  1.00  0.00    -0.480 C  
HETATM   27  C   UNL     1     -12.318  12.630  64.689  1.00  0.00    -0.546 C  
HETATM   28  C   UNL     1     -11.043  11.997  65.254  1.00  0.00    -0.317 C  
BRANCH  28  29
HETATM   29  C   UNL     1     -10.208  11.366  64.125  1.00  0.00    -0.324 C  
HETATM   30  N   UNL     1     -10.776  11.351  62.882  1.00  0.00    -0.758 N  
HETATM   31  O   UNL     1      -9.143  10.792  64.336  1.00  0.00    -0.199 OA 
HETATM   32  H1  UNL     1     -10.222  10.933  62.134  1.00  0.00     0.000 HD 
HETATM   33  H2  UNL     1     -11.704  11.737  62.712  1.00  0.00     0.000 HD 
ENDBRANCH  28  29
ENDBRANCH  22  24
ENDBRANCH  20  22
ENDBRANCH   6  20
TORSDOF 6
ENDMDL
MODEL      173
REMARK 921   NORMALIZED FREE ENERGY PREDICTED BY IDOCK:   -5.32 KCAL/MOL
REMARK 922        TOTAL FREE ENERGY PREDICTED BY IDOCK:   -8.29 KCAL/MOL
REMARK 923 INTER-LIGAND FREE ENERGY PREDICTED BY IDOCK:   -7.22 KCAL/MOL
REMARK 924 INTRA-LIGAND FREE ENERGY PREDICTED BY IDOCK:   -1.07 KCAL/MOL
REMARK 927      BINDING AFFINITY PREDICTED BY RF-SCORE:    0.00 PKD
ROOT
HETATM    1  C   UNL     1      -8.064   9.249  66.476  1.00  0.00    -0.104 C  
HETATM    2  C   UNL     1      -9.210  10.175  66.678  1.00  0.00    -0.155 A  
HETATM    3  C   UNL     1     -10.149  10.218  67.713  1.00  0.00    -0.180 A  
HETATM    4  S   UNL     1     -11.294  11.465  67.344  1.00  0.00    -0.251 SA 
HETATM    5  N   UNL     1      -9.359  11.153  65.702  1.00  0.00    -0.214 NA 
HETATM    6  C   UNL     1     -10.400  11.889  65.960  1.00  0.00    -0.233 A  
ENDROOT
BRANCH   3   7
HETATM    7  C   UNL     1     -10.316   9.408  68.938  1.00  0.00    -0.230 A  
HETATM    8  C   UNL     1     -10.029   7.335  70.198  1.00  0.00    -0.184 A  
HETATM    9  C   UNL     1     -11.128   9.132  71.170  1.00  0.00    -0.323 A  
HETATM   10  C   UNL     1      -9.847   8.083  69.025  1.00  0.00    -0.178 A  
HETATM   11  N   UNL     1     -10.685   7.862  71.258  1.00  0.00    -0.226 NA 
HETATM   12  C   UNL     1     -10.959   9.935  70.056  1.00  0.00    -0.338 A  
BRANCH   8  13
HETATM   13  C   UNL     1      -9.555   5.880  70.321  1.00  0.00    -0.199 C  
HETATM   14  F   UNL     1      -7.277   5.201  69.969  1.00  0.00    -0.052 F  
HETATM   15  C   UNL     1     -10.485   5.070  71.262  1.00  0.00    -0.213 C  
HETATM   16  C   UNL     1      -9.651   5.210  68.932  1.00  0.00    -0.201 C  
HETATM   17  F   UNL     1      -8.026   5.056  72.001  1.00  0.00    -0.100 F  
HETATM   18  F   UNL     1      -7.564   6.996  71.148  1.00  0.00    -0.081 F  
HETATM   19  C   UNL     1      -8.110   5.791  70.865  1.00  0.00    -0.119 C  
ENDBRANCH   8  13
ENDBRANCH   3   7
BRANCH   6  20
HETATM   20  N   UNL     1     -10.904  12.970  65.292  1.00  0.00    -0.285 N  
HETATM   21  H   UNL     1     -10.792  13.007  64.279  1.00  0.00     0.000 HD 
BRANCH  20  22
HETATM   22  C   UNL     1     -11.553  14.008  65.912  1.00  0.00    -0.347 C  
HETATM   23  O   UNL     1     -12.769  14.125  66.030  1.00  0.00    -0.469 OA 
BRANCH  22  24
HETATM   24  N   UNL     1     -10.704  14.979  66.429  1.00  0.00    -0.315 N  
HETATM   25  C   UNL     1     -10.380  16.184  65.684  1.00  0.00    -0.382 C  
HETATM   26  C   UNL     1      -8.955  16.491  66.103  1.00  0.00    -0.344 C  
HETATM   27  C   UNL     1      -8.876  16.018  67.552  1.00  0.00    -0.198 C  
HETATM   28  C   UNL     1      -9.935  14.919  67.676  1.00  0.00    -0.226 C  
BRANCH  28  29
HETATM   29  C   UNL     1     -10.840  15.176  68.894  1.00  0.00    -0.241 C  
HETATM   30  N   UNL     1     -10.722  14.299  69.937  1.00  0.00    -0.450 N  
HETATM   31  O   UNL     1     -11.714  16.038  68.895  1.00  0.00    -0.381 OA 
HETATM   32  H1  UNL     1     -11.322  14.470  70.743  1.00  0.00     0.000 HD 
HETATM   33  H2  UNL     1     -10.069  13.516  69.908  1.00  0.00     0.000 HD 
ENDBRANCH  28  29
ENDBRANCH  22  24
ENDBRANCH  20  22
ENDBRANCH   6  20
TORSDOF 6
ENDMDL
MODEL      174
REMARK 921   NORMALIZED FREE ENERGY PREDICTED BY IDOCK:   -5.32 KCAL/MOL
REMARK 922        TOTAL FREE ENERGY PREDICTED BY IDOCK:   -8.28 KCAL/MOL
REMARK 923 INTER-LIGAND FREE ENERGY PREDICTED BY IDOCK:   -7.06 KCAL/MOL
REMARK 924 INTRA-LIGAND FREE ENERGY PREDICTED BY IDOCK:   -1.22 KCAL/MOL
REMARK 927      BINDING AFFINITY PREDICTED BY RF-SCORE:    0.00 PKD
ROOT
HETATM    1  C   UNL     1     -10.380  10.738  65.782  1.00  0.00    -0.295 C  
HETATM    2  C   UNL     1     -10.362  10.052  67.101  1.00  0.00    -0.241 A  
HETATM    3  C   UNL     1     -10.596  10.569  68.377  1.00  0.00    -0.199 A  
HETATM    4  S   UNL     1     -10.341   9.295  69.525  1.00  0.00    -0.224 SA 
HETATM    5  N   UNL     1     -10.086   8.690  67.053  1.00  0.00    -0.244 NA 
HETATM    6  C   UNL     1     -10.070   8.195  68.257  1.00  0.00    -0.197 A  
ENDROOT
BRANCH   3   7
HETATM    7  C   UNL     1     -10.957  11.921  68.852  1.00  0.00    -0.285 A  
HETATM    8  C   UNL     1     -10.674  14.347  68.840  1.00  0.00    -0.253 A  
HETATM    9  C   UNL     1     -12.230  13.375  70.260  1.00  0.00    -0.335 A  
HETATM   10  C   UNL     1     -10.318  13.077  68.363  1.00  0.00    -0.257 A  
HETATM   11  N   UNL     1     -11.619  14.485  69.799  1.00  0.00    -0.280 NA 
HETATM   12  C   UNL     1     -11.948  12.097  69.816  1.00  0.00    -0.372 A  
BRANCH   8  13
HETATM   13  C   UNL     1      -9.982  15.627  68.350  1.00  0.00    -0.210 C  
HETATM   14  F   UNL     1      -9.452  16.041  66.043  1.00  0.00    -0.283 F  
HETATM   15  C   UNL     1     -10.238  16.806  69.325  1.00  0.00    -0.278 C  
HETATM   16  C   UNL     1      -8.455  15.392  68.344  1.00  0.00    -0.160 C  
HETATM   17  F   UNL     1     -10.993  17.292  66.920  1.00  0.00    -0.215 F  
HETATM   18  F   UNL     1     -11.419  15.222  66.436  1.00  0.00    -0.323 F  
HETATM   19  C   UNL     1     -10.470  16.042  66.942  1.00  0.00    -0.306 C  
ENDBRANCH   8  13
ENDBRANCH   3   7
BRANCH   6  20
HETATM   20  N   UNL     1      -9.868   6.910  68.680  1.00  0.00    -0.143 N  
HETATM   21  H   UNL     1      -9.117   6.372  68.248  1.00  0.00     0.000 HD 
BRANCH  20  22
HETATM   22  C   UNL     1     -10.623   6.307  69.653  1.00  0.00    -0.264 C  
HETATM   23  O   UNL     1     -11.800   5.974  69.545  1.00  0.00     0.044 OA 
BRANCH  22  24
HETATM   24  N   UNL     1      -9.941   6.083  70.842  1.00  0.00    -0.183 N  
HETATM   25  C   UNL     1      -8.495   5.944  70.879  1.00  0.00    -0.127 C  
HETATM   26  C   UNL     1      -8.258   4.958  72.007  1.00  0.00    -0.115 C  
HETATM   27  C   UNL     1      -9.378   5.246  73.002  1.00  0.00    -0.140 C  
HETATM   28  C   UNL     1     -10.518   5.838  72.169  1.00  0.00    -0.212 C  
BRANCH  28  29
HETATM   29  C   UNL     1     -11.024   7.148  72.799  1.00  0.00    -0.307 C  
HETATM   30  N   UNL     1     -10.364   7.582  73.915  1.00  0.00    -0.367 N  
HETATM   31  O   UNL     1     -12.040   7.717  72.409  1.00  0.00    -0.284 OA 
HETATM   32  H1  UNL     1     -10.700   8.450  74.333  1.00  0.00     0.000 HD 
HETATM   33  H2  UNL     1      -9.579   7.064  74.309  1.00  0.00     0.000 HD 
ENDBRANCH  28  29
ENDBRANCH  22  24
ENDBRANCH  20  22
ENDBRANCH   6  20
TORSDOF 6
ENDMDL
MODEL      175
REMARK 921   NORMALIZED FREE ENERGY PREDICTED BY IDOCK:   -5.32 KCAL/MOL
REMARK 922        TOTAL FREE ENERGY PREDICTED BY IDOCK:   -8.27 KCAL/MOL
REMARK 923 INTER-LIGAND FREE ENERGY PREDICTED BY IDOCK:   -7.73 KCAL/MOL
REMARK 924 INTRA-LIGAND FREE ENERGY PREDICTED BY IDOCK:   -0.54 KCAL/MOL
REMARK 927      BINDING AFFINITY PREDICTED BY RF-SCORE:    0.00 PKD
ROOT
HETATM    1  C   UNL     1     -12.031  13.028  68.917  1.00  0.00    -0.303 C  
HETATM    2  C   UNL     1     -11.430  12.384  67.719  1.00  0.00    -0.324 A  
HETATM    3  C   UNL     1     -10.932  12.966  66.550  1.00  0.00    -0.275 A  
HETATM    4  S   UNL     1     -10.445  11.691  65.483  1.00  0.00    -0.283 SA 
HETATM    5  N   UNL     1     -11.334  10.999  67.779  1.00  0.00    -0.407 NA 
HETATM    6  C   UNL     1     -10.819  10.537  66.677  1.00  0.00    -0.096 A  
ENDROOT
BRANCH   3   7
HETATM    7  C   UNL     1     -10.806  14.373  66.115  1.00  0.00    -0.309 A  
HETATM    8  C   UNL     1     -10.170  16.697  66.518  1.00  0.00    -0.310 A  
HETATM    9  C   UNL     1     -11.130  16.099  64.493  1.00  0.00    -0.221 A  
HETATM   10  C   UNL     1     -10.267  15.367  66.955  1.00  0.00    -0.273 A  
HETATM   11  N   UNL     1     -10.619  17.056  65.293  1.00  0.00    -0.655 NA 
HETATM   12  C   UNL     1     -11.231  14.767  64.848  1.00  0.00    -0.411 A  
BRANCH   8  13
HETATM   13  C   UNL     1      -9.612  17.812  67.413  1.00  0.00    -0.264 C  
HETATM   14  F   UNL     1      -7.278  18.041  67.936  1.00  0.00    -0.204 F  
HETATM   15  C   UNL     1     -10.545  19.051  67.405  1.00  0.00    -0.559 C  
HETATM   16  C   UNL     1      -9.577  17.304  68.872  1.00  0.00    -0.229 C  
HETATM   17  F   UNL     1      -8.142  19.581  66.674  1.00  0.00    -0.260 F  
HETATM   18  F   UNL     1      -7.752  17.606  65.867  1.00  0.00    -0.301 F  
HETATM   19  C   UNL     1      -8.201  18.258  66.964  1.00  0.00    -0.239 C  
ENDBRANCH   8  13
ENDBRANCH   3   7
BRANCH   6  20
HETATM   20  N   UNL     1     -10.521   9.254  66.311  1.00  0.00    -0.123 N  
HETATM   21  H   UNL     1     -11.172   8.762  65.700  1.00  0.00     0.000 HD 
BRANCH  20  22
HETATM   22  C   UNL     1      -9.392   8.593  66.724  1.00  0.00    -0.179 C  
HETATM   23  O   UNL     1      -8.474   8.219  65.999  1.00  0.00    -0.123 OA 
BRANCH  22  24
HETATM   24  N   UNL     1      -9.343   8.352  68.091  1.00  0.00    -0.134 N  
HETATM   25  C   UNL     1      -9.310   7.003  68.628  1.00  0.00    -0.136 C  
HETATM   26  C   UNL     1     -10.069   7.119  69.937  1.00  0.00    -0.197 C  
HETATM   27  C   UNL     1      -9.754   8.527  70.432  1.00  0.00    -0.193 C  
HETATM   28  C   UNL     1      -9.437   9.338  69.173  1.00  0.00    -0.157 C  
BRANCH  28  29
HETATM   29  C   UNL     1      -8.109  10.098  69.341  1.00  0.00    -0.160 C  
HETATM   30  N   UNL     1      -8.121  11.425  69.012  1.00  0.00    -0.344 N  
HETATM   31  O   UNL     1      -7.058   9.532  69.631  1.00  0.00    -0.061 OA 
HETATM   32  H1  UNL     1      -7.241  11.929  69.123  1.00  0.00     0.000 HD 
HETATM   33  H2  UNL     1      -8.965  11.887  68.674  1.00  0.00     0.000 HD 
ENDBRANCH  28  29
ENDBRANCH  22  24
ENDBRANCH  20  22
ENDBRANCH   6  20
TORSDOF 6
ENDMDL
MODEL      176
REMARK 921   NORMALIZED FREE ENERGY PREDICTED BY IDOCK:   -5.31 KCAL/MOL
REMARK 922        TOTAL FREE ENERGY PREDICTED BY IDOCK:   -8.26 KCAL/MOL
REMARK 923 INTER-LIGAND FREE ENERGY PREDICTED BY IDOCK:   -7.55 KCAL/MOL
REMARK 924 INTRA-LIGAND FREE ENERGY PREDICTED BY IDOCK:   -0.71 KCAL/MOL
REMARK 927      BINDING AFFINITY PREDICTED BY RF-SCORE:    0.00 PKD
ROOT
HETATM    1  C   UNL     1      -9.508  10.158  65.316  1.00  0.00    -0.306 C  
HETATM    2  C   UNL     1     -10.260  10.459  66.563  1.00  0.00    -0.229 A  
HETATM    3  C   UNL     1     -10.883  11.644  66.964  1.00  0.00    -0.266 A  
HETATM    4  S   UNL     1     -11.517  11.402  68.558  1.00  0.00    -0.320 SA 
HETATM    5  N   UNL     1     -10.374   9.398  67.454  1.00  0.00    -0.245 NA 
HETATM    6  C   UNL     1     -11.025   9.774  68.516  1.00  0.00    -0.149 A  
ENDROOT
BRANCH   3   7
HETATM    7  C   UNL     1     -11.033  12.960  66.307  1.00  0.00    -0.305 A  
HETATM    8  C   UNL     1     -10.669  15.374  66.229  1.00  0.00    -0.312 A  
HETATM    9  C   UNL     1     -11.869  14.334  64.539  1.00  0.00    -0.442 A  
HETATM   10  C   UNL     1     -10.502  14.137  66.870  1.00  0.00    -0.272 A  
HETATM   11  N   UNL     1     -11.368  15.465  65.074  1.00  0.00    -0.358 NA 
HETATM   12  C   UNL     1     -11.720  13.080  65.101  1.00  0.00    -0.379 A  
BRANCH   8  13
HETATM   13  C   UNL     1     -10.128  16.682  66.824  1.00  0.00    -0.293 C  
HETATM   14  F   UNL     1      -8.077  16.816  68.068  1.00  0.00    -0.172 F  
HETATM   15  C   UNL     1     -10.659  17.911  66.041  1.00  0.00    -0.235 C  
HETATM   16  C   UNL     1     -10.659  16.824  68.269  1.00  0.00    -0.352 C  
HETATM   17  F   UNL     1      -8.096  17.788  66.128  1.00  0.00    -0.275 F  
HETATM   18  F   UNL     1      -8.017  15.625  66.259  1.00  0.00    -0.258 F  
HETATM   19  C   UNL     1      -8.582  16.723  66.811  1.00  0.00    -0.232 C  
ENDBRANCH   8  13
ENDBRANCH   3   7
BRANCH   6  20
HETATM   20  N   UNL     1     -11.388   9.063  69.626  1.00  0.00    -0.438 N  
HETATM   21  H   UNL     1     -12.353   8.738  69.697  1.00  0.00     0.000 HD 
BRANCH  20  22
HETATM   22  C   UNL     1     -10.525   8.764  70.649  1.00  0.00    -0.210 C  
HETATM   23  O   UNL     1     -10.221   9.513  71.573  1.00  0.00    -0.247 OA 
BRANCH  22  24
HETATM   24  N   UNL     1      -9.979   7.489  70.575  1.00  0.00    -0.184 N  
HETATM   25  C   UNL     1     -10.295   6.584  69.483  1.00  0.00    -0.200 C  
HETATM   26  C   UNL     1     -10.253   5.213  70.130  1.00  0.00    -0.348 C  
HETATM   27  C   UNL     1      -9.176   5.334  71.204  1.00  0.00    -0.179 C  
HETATM   28  C   UNL     1      -9.141   6.819  71.576  1.00  0.00    -0.145 C  
BRANCH  28  29
HETATM   29  C   UNL     1      -7.698   7.353  71.531  1.00  0.00    -0.086 C  
HETATM   30  N   UNL     1      -6.815   6.800  72.417  1.00  0.00    -0.063 N  
HETATM   31  O   UNL     1      -7.371   8.310  70.834  1.00  0.00    -0.052 OA 
HETATM   32  H1  UNL     1      -5.859   7.154  72.387  1.00  0.00     0.000 HD 
HETATM   33  H2  UNL     1      -7.099   6.072  73.072  1.00  0.00     0.000 HD 
ENDBRANCH  28  29
ENDBRANCH  22  24
ENDBRANCH  20  22
ENDBRANCH   6  20
TORSDOF 6
ENDMDL
MODEL      177
REMARK 921   NORMALIZED FREE ENERGY PREDICTED BY IDOCK:   -5.30 KCAL/MOL
REMARK 922        TOTAL FREE ENERGY PREDICTED BY IDOCK:   -8.26 KCAL/MOL
REMARK 923 INTER-LIGAND FREE ENERGY PREDICTED BY IDOCK:   -7.09 KCAL/MOL
REMARK 924 INTRA-LIGAND FREE ENERGY PREDICTED BY IDOCK:   -1.16 KCAL/MOL
REMARK 927      BINDING AFFINITY PREDICTED BY RF-SCORE:    0.00 PKD
ROOT
HETATM    1  C   UNL     1     -10.328  11.416  66.436  1.00  0.00    -0.284 C  
HETATM    2  C   UNL     1     -10.780  10.995  67.789  1.00  0.00    -0.227 A  
HETATM    3  C   UNL     1     -11.211  11.775  68.866  1.00  0.00    -0.253 A  
HETATM    4  S   UNL     1     -11.520  10.715  70.203  1.00  0.00    -0.343 SA 
HETATM    5  N   UNL     1     -10.791   9.623  68.008  1.00  0.00    -0.228 NA 
HETATM    6  C   UNL     1     -11.177   9.367  69.224  1.00  0.00     0.046 A  
ENDROOT
BRANCH   3   7
HETATM    7  C   UNL     1     -11.390  13.233  69.031  1.00  0.00    -0.334 A  
HETATM    8  C   UNL     1     -10.731  15.541  68.578  1.00  0.00    -0.259 A  
HETATM    9  C   UNL     1     -12.517  15.108  69.993  1.00  0.00    -0.277 A  
HETATM   10  C   UNL     1     -10.544  14.163  68.395  1.00  0.00    -0.263 A  
HETATM   11  N   UNL     1     -11.709  16.003  69.391  1.00  0.00    -0.320 NA 
HETATM   12  C   UNL     1     -12.408  13.739  69.836  1.00  0.00    -0.334 A  
BRANCH   8  13
HETATM   13  C   UNL     1      -9.813  16.583  67.924  1.00  0.00    -0.240 C  
HETATM   14  F   UNL     1      -9.010  16.402  65.667  1.00  0.00    -0.306 F  
HETATM   15  C   UNL     1      -9.984  17.972  68.592  1.00  0.00    -0.396 C  
HETATM   16  C   UNL     1      -8.344  16.166  68.158  1.00  0.00    -0.166 C  
HETATM   17  F   UNL     1     -10.426  17.998  66.063  1.00  0.00    -0.369 F  
HETATM   18  F   UNL     1     -11.105  15.941  65.971  1.00  0.00    -0.294 F  
HETATM   19  C   UNL     1     -10.098  16.730  66.410  1.00  0.00    -0.317 C  
ENDBRANCH   8  13
ENDBRANCH   3   7
BRANCH   6  20
HETATM   20  N   UNL     1     -11.359   8.169  69.859  1.00  0.00    -0.455 N  
HETATM   21  H   UNL     1     -12.310   7.888  70.097  1.00  0.00     0.000 HD 
BRANCH  20  22
HETATM   22  C   UNL     1     -10.329   7.326  70.192  1.00  0.00    -0.212 C  
HETATM   23  O   UNL     1      -9.874   7.161  71.321  1.00  0.00    -0.178 OA 
BRANCH  22  24
HETATM   24  N   UNL     1      -9.796   6.629  69.116  1.00  0.00    -0.147 N  
HETATM   25  C   UNL     1     -10.642   5.938  68.159  1.00  0.00    -0.244 C  
HETATM   26  C   UNL     1      -9.812   4.737  67.747  1.00  0.00    -0.194 C  
HETATM   27  C   UNL     1      -8.371   5.235  67.809  1.00  0.00    -0.098 C  
HETATM   28  C   UNL     1      -8.379   6.372  68.834  1.00  0.00    -0.121 C  
BRANCH  28  29
HETATM   29  C   UNL     1      -7.697   7.625  68.257  1.00  0.00    -0.120 C  
HETATM   30  N   UNL     1      -7.644   7.717  66.894  1.00  0.00    -0.097 N  
HETATM   31  O   UNL     1      -7.116   8.443  68.965  1.00  0.00    -0.066 OA 
HETATM   32  H1  UNL     1      -7.192   8.548  66.512  1.00  0.00     0.000 HD 
HETATM   33  H2  UNL     1      -8.036   6.994  66.292  1.00  0.00     0.000 HD 
ENDBRANCH  28  29
ENDBRANCH  22  24
ENDBRANCH  20  22
ENDBRANCH   6  20
TORSDOF 6
ENDMDL
MODEL      178
REMARK 921   NORMALIZED FREE ENERGY PREDICTED BY IDOCK:   -5.29 KCAL/MOL
REMARK 922        TOTAL FREE ENERGY PREDICTED BY IDOCK:   -8.24 KCAL/MOL
REMARK 923 INTER-LIGAND FREE ENERGY PREDICTED BY IDOCK:   -7.04 KCAL/MOL
REMARK 924 INTRA-LIGAND FREE ENERGY PREDICTED BY IDOCK:   -1.19 KCAL/MOL
REMARK 927      BINDING AFFINITY PREDICTED BY RF-SCORE:    0.00 PKD
ROOT
HETATM    1  C   UNL     1     -10.886   5.840  66.723  1.00  0.00    -0.327 C  
HETATM    2  C   UNL     1     -10.844   6.816  67.844  1.00  0.00    -0.247 A  
HETATM    3  C   UNL     1     -10.499   8.170  67.834  1.00  0.00    -0.197 A  
HETATM    4  S   UNL     1     -10.557   8.748  69.467  1.00  0.00    -0.192 SA 
HETATM    5  N   UNL     1     -11.222   6.309  69.082  1.00  0.00    -0.397 NA 
HETATM    6  C   UNL     1     -11.127   7.234  69.993  1.00  0.00    -0.240 A  
ENDROOT
BRANCH   3   7
HETATM    7  C   UNL     1     -10.093   9.085  66.747  1.00  0.00    -0.344 A  
HETATM    8  C   UNL     1     -10.351  11.153  65.472  1.00  0.00    -0.268 A  
HETATM    9  C   UNL     1      -8.713   9.624  64.871  1.00  0.00    -0.181 A  
HETATM   10  C   UNL     1     -10.752  10.309  66.518  1.00  0.00    -0.148 A  
HETATM   11  N   UNL     1      -9.342  10.794  64.644  1.00  0.00    -0.219 NA 
HETATM   12  C   UNL     1      -9.037   8.758  65.898  1.00  0.00    -0.271 A  
BRANCH   8  13
HETATM   13  C   UNL     1     -11.061  12.481  65.176  1.00  0.00    -0.335 C  
HETATM   14  F   UNL     1     -11.640  13.200  62.958  1.00  0.00    -0.460 F  
HETATM   15  C   UNL     1     -11.883  12.959  66.401  1.00  0.00    -0.478 C  
HETATM   16  C   UNL     1      -9.991  13.567  64.921  1.00  0.00    -0.176 C  
HETATM   17  F   UNL     1     -13.291  12.691  64.272  1.00  0.00    -0.206 F  
HETATM   18  F   UNL     1     -12.054  11.125  63.424  1.00  0.00    -0.280 F  
HETATM   19  C   UNL     1     -12.013  12.366  63.962  1.00  0.00    -0.460 C  
ENDBRANCH   8  13
ENDBRANCH   3   7
BRANCH   6  20
HETATM   20  N   UNL     1     -11.416   7.191  71.328  1.00  0.00    -0.270 N  
HETATM   21  H   UNL     1     -11.838   8.014  71.758  1.00  0.00     0.000 HD 
BRANCH  20  22
HETATM   22  C   UNL     1     -11.170   6.099  72.121  1.00  0.00    -0.287 C  
HETATM   23  O   UNL     1     -12.021   5.409  72.675  1.00  0.00    -0.214 OA 
BRANCH  22  24
HETATM   24  N   UNL     1      -9.822   5.802  72.273  1.00  0.00    -0.161 N  
HETATM   25  C   UNL     1      -9.121   6.051  73.522  1.00  0.00    -0.131 C  
HETATM   26  C   UNL     1      -7.714   6.405  73.079  1.00  0.00    -0.098 C  
HETATM   27  C   UNL     1      -7.493   5.571  71.820  1.00  0.00    -0.093 C  
HETATM   28  C   UNL     1      -8.890   5.333  71.242  1.00  0.00    -0.136 C  
BRANCH  28  29
HETATM   29  C   UNL     1      -9.104   3.837  70.946  1.00  0.00    -0.111 C  
HETATM   30  N   UNL     1      -9.889   3.536  69.868  1.00  0.00    -0.043 N  
HETATM   31  O   UNL     1      -8.705   2.954  71.700  1.00  0.00    -0.070 OA 
HETATM   32  H1  UNL     1     -10.031   2.545  69.673  1.00  0.00     0.000 HD 
HETATM   33  H2  UNL     1     -10.310   4.263  69.291  1.00  0.00     0.000 HD 
ENDBRANCH  28  29
ENDBRANCH  22  24
ENDBRANCH  20  22
ENDBRANCH   6  20
TORSDOF 6
ENDMDL
MODEL      179
REMARK 921   NORMALIZED FREE ENERGY PREDICTED BY IDOCK:   -5.27 KCAL/MOL
REMARK 922        TOTAL FREE ENERGY PREDICTED BY IDOCK:   -8.21 KCAL/MOL
REMARK 923 INTER-LIGAND FREE ENERGY PREDICTED BY IDOCK:   -7.39 KCAL/MOL
REMARK 924 INTRA-LIGAND FREE ENERGY PREDICTED BY IDOCK:   -0.83 KCAL/MOL
REMARK 927      BINDING AFFINITY PREDICTED BY RF-SCORE:    0.00 PKD
ROOT
HETATM    1  C   UNL     1     -12.014   9.386  71.385  1.00  0.00    -0.446 C  
HETATM    2  C   UNL     1     -11.583  10.298  70.293  1.00  0.00    -0.316 A  
HETATM    3  C   UNL     1     -10.688  10.072  69.244  1.00  0.00    -0.224 A  
HETATM    4  S   UNL     1     -10.529  11.547  68.349  1.00  0.00    -0.214 SA 
HETATM    5  N   UNL     1     -12.171  11.558  70.310  1.00  0.00    -0.339 NA 
HETATM    6  C   UNL     1     -11.707  12.281  69.331  1.00  0.00    -0.330 A  
ENDROOT
BRANCH   3   7
HETATM    7  C   UNL     1      -9.901   8.885  68.846  1.00  0.00    -0.182 A  
HETATM    8  C   UNL     1      -8.943   6.688  69.316  1.00  0.00    -0.135 A  
HETATM    9  C   UNL     1      -8.561   7.697  67.263  1.00  0.00    -0.121 A  
HETATM   10  C   UNL     1      -9.703   7.797  69.718  1.00  0.00    -0.176 A  
HETATM   11  N   UNL     1      -8.363   6.655  68.094  1.00  0.00    -0.117 NA 
HETATM   12  C   UNL     1      -9.319   8.808  67.583  1.00  0.00    -0.157 A  
BRANCH   8  13
HETATM   13  C   UNL     1      -8.682   5.496  70.247  1.00  0.00    -0.134 C  
HETATM   14  F   UNL     1     -10.340   4.599  71.738  1.00  0.00    -0.253 F  
HETATM   15  C   UNL     1      -7.548   4.595  69.694  1.00  0.00    -0.058 C  
HETATM   16  C   UNL     1      -8.186   6.032  71.609  1.00  0.00    -0.119 C  
HETATM   17  F   UNL     1      -9.754   3.337  70.072  1.00  0.00    -0.243 F  
HETATM   18  F   UNL     1     -11.016   5.068  69.734  1.00  0.00    -0.248 F  
HETATM   19  C   UNL     1      -9.948   4.627  70.438  1.00  0.00    -0.230 C  
ENDBRANCH   8  13
ENDBRANCH   3   7
BRANCH   6  20
HETATM   20  N   UNL     1     -12.018  13.557  68.954  1.00  0.00    -0.349 N  
HETATM   21  H   UNL     1     -12.977  13.757  68.667  1.00  0.00     0.000 HD 
BRANCH  20  22
HETATM   22  C   UNL     1     -11.109  14.585  68.939  1.00  0.00    -0.256 C  
HETATM   23  O   UNL     1     -10.610  15.115  69.928  1.00  0.00    -0.255 OA 
BRANCH  22  24
HETATM   24  N   UNL     1     -10.767  15.022  67.666  1.00  0.00    -0.268 N  
HETATM   25  C   UNL     1     -11.553  14.661  66.498  1.00  0.00    -0.344 C  
HETATM   26  C   UNL     1     -10.523  14.566  65.389  1.00  0.00    -0.399 C  
HETATM   27  C   UNL     1      -9.478  15.617  65.752  1.00  0.00    -0.338 C  
HETATM   28  C   UNL     1      -9.568  15.769  67.272  1.00  0.00    -0.217 C  
BRANCH  28  29
HETATM   29  C   UNL     1      -9.692  17.253  67.661  1.00  0.00    -0.272 C  
HETATM   30  N   UNL     1     -10.290  18.074  66.746  1.00  0.00    -0.365 N  
HETATM   31  O   UNL     1      -9.175  17.713  68.675  1.00  0.00    -0.282 OA 
HETATM   32  H1  UNL     1     -10.372  19.058  67.004  1.00  0.00     0.000 HD 
HETATM   33  H2  UNL     1     -10.635  17.722  65.854  1.00  0.00     0.000 HD 
ENDBRANCH  28  29
ENDBRANCH  22  24
ENDBRANCH  20  22
ENDBRANCH   6  20
TORSDOF 6
ENDMDL
MODEL      180
REMARK 921   NORMALIZED FREE ENERGY PREDICTED BY IDOCK:   -5.26 KCAL/MOL
REMARK 922        TOTAL FREE ENERGY PREDICTED BY IDOCK:   -8.20 KCAL/MOL
REMARK 923 INTER-LIGAND FREE ENERGY PREDICTED BY IDOCK:   -6.91 KCAL/MOL
REMARK 924 INTRA-LIGAND FREE ENERGY PREDICTED BY IDOCK:   -1.29 KCAL/MOL
REMARK 927      BINDING AFFINITY PREDICTED BY RF-SCORE:    0.00 PKD
ROOT
HETATM    1  C   UNL     1      -7.633  11.628  68.404  1.00  0.00    -0.126 C  
HETATM    2  C   UNL     1      -8.967  11.115  68.815  1.00  0.00    -0.131 A  
HETATM    3  C   UNL     1     -10.241  11.552  68.446  1.00  0.00    -0.205 A  
HETATM    4  S   UNL     1     -11.403  10.614  69.326  1.00  0.00    -0.293 SA 
HETATM    5  N   UNL     1      -8.939  10.029  69.682  1.00  0.00    -0.209 NA 
HETATM    6  C   UNL     1     -10.152   9.676  69.997  1.00  0.00    -0.252 A  
ENDROOT
BRANCH   3   7
HETATM    7  C   UNL     1     -10.702  12.619  67.533  1.00  0.00    -0.247 A  
HETATM    8  C   UNL     1     -10.584  14.898  66.663  1.00  0.00    -0.305 A  
HETATM    9  C   UNL     1     -12.168  13.425  65.826  1.00  0.00    -0.458 A  
HETATM   10  C   UNL     1     -10.120  13.902  67.534  1.00  0.00    -0.244 A  
HETATM   11  N   UNL     1     -11.619  14.656  65.825  1.00  0.00    -0.348 NA 
HETATM   12  C   UNL     1     -11.743  12.389  66.637  1.00  0.00    -0.438 A  
BRANCH   8  13
HETATM   13  C   UNL     1      -9.994  16.315  66.653  1.00  0.00    -0.274 C  
HETATM   14  F   UNL     1     -11.159  18.236  67.506  1.00  0.00    -0.403 F  
HETATM   15  C   UNL     1      -8.443  16.272  66.643  1.00  0.00    -0.306 C  
HETATM   16  C   UNL     1     -10.417  17.018  65.344  1.00  0.00    -0.129 C  
HETATM   17  F   UNL     1      -9.412  17.591  68.622  1.00  0.00    -0.256 F  
HETATM   18  F   UNL     1     -11.252  16.447  68.725  1.00  0.00    -0.302 F  
HETATM   19  C   UNL     1     -10.453  17.138  67.881  1.00  0.00    -0.369 C  
ENDBRANCH   8  13
ENDBRANCH   3   7
BRANCH   6  20
HETATM   20  N   UNL     1     -10.597   8.656  70.791  1.00  0.00    -0.202 N  
HETATM   21  H   UNL     1     -10.803   8.860  71.769  1.00  0.00     0.000 HD 
BRANCH  20  22
HETATM   22  C   UNL     1     -10.781   7.373  70.342  1.00  0.00    -0.237 C  
HETATM   23  O   UNL     1     -11.865   6.825  70.163  1.00  0.00    -0.349 OA 
BRANCH  22  24
HETATM   24  N   UNL     1      -9.601   6.686  70.089  1.00  0.00    -0.161 N  
HETATM   25  C   UNL     1      -9.235   6.264  68.748  1.00  0.00    -0.125 C  
HETATM   26  C   UNL     1      -8.482   4.967  68.973  1.00  0.00    -0.086 C  
HETATM   27  C   UNL     1      -7.779   5.165  70.313  1.00  0.00    -0.071 C  
HETATM   28  C   UNL     1      -8.635   6.183  71.072  1.00  0.00    -0.132 C  
BRANCH  28  29
HETATM   29  C   UNL     1      -7.759   7.326  71.616  1.00  0.00    -0.087 C  
HETATM   30  N   UNL     1      -6.542   7.500  71.016  1.00  0.00    -0.039 N  
HETATM   31  O   UNL     1      -8.065   7.973  72.614  1.00  0.00    -0.121 OA 
HETATM   32  H1  UNL     1      -5.962   8.258  71.377  1.00  0.00     0.000 HD 
HETATM   33  H2  UNL     1      -6.233   6.904  70.249  1.00  0.00     0.000 HD 
ENDBRANCH  28  29
ENDBRANCH  22  24
ENDBRANCH  20  22
ENDBRANCH   6  20
TORSDOF 6
ENDMDL
MODEL      181
REMARK 921   NORMALIZED FREE ENERGY PREDICTED BY IDOCK:   -5.23 KCAL/MOL
REMARK 922        TOTAL FREE ENERGY PREDICTED BY IDOCK:   -8.16 KCAL/MOL
REMARK 923 INTER-LIGAND FREE ENERGY PREDICTED BY IDOCK:   -6.79 KCAL/MOL
REMARK 924 INTRA-LIGAND FREE ENERGY PREDICTED BY IDOCK:   -1.38 KCAL/MOL
REMARK 927      BINDING AFFINITY PREDICTED BY RF-SCORE:    0.00 PKD
ROOT
HETATM    1  C   UNL     1     -10.850  12.071  65.144  1.00  0.00    -0.347 C  
HETATM    2  C   UNL     1     -10.953  11.438  66.486  1.00  0.00    -0.272 A  
HETATM    3  C   UNL     1     -11.094  12.032  67.743  1.00  0.00    -0.249 A  
HETATM    4  S   UNL     1     -11.068  10.775  68.935  1.00  0.00    -0.276 SA 
HETATM    5  N   UNL     1     -10.921  10.048  66.487  1.00  0.00     0.075 NA 
HETATM    6  C   UNL     1     -10.993   9.600  67.707  1.00  0.00    -0.139 A  
ENDROOT
BRANCH   3   7
HETATM    7  C   UNL     1     -11.212  13.443  68.168  1.00  0.00    -0.304 A  
HETATM    8  C   UNL     1     -10.556  15.791  68.023  1.00  0.00    -0.279 A  
HETATM    9  C   UNL     1     -12.159  15.136  69.566  1.00  0.00    -0.283 A  
HETATM   10  C   UNL     1     -10.429  14.463  67.592  1.00  0.00    -0.245 A  
HETATM   11  N   UNL     1     -11.410  16.115  69.021  1.00  0.00    -0.346 NA 
HETATM   12  C   UNL     1     -12.106  13.812  69.171  1.00  0.00    -0.374 A  
BRANCH   8  13
HETATM   13  C   UNL     1      -9.702  16.925  67.437  1.00  0.00    -0.247 C  
HETATM   14  F   UNL     1      -8.545  18.539  68.790  1.00  0.00    -0.328 F  
HETATM   15  C   UNL     1      -9.176  16.554  66.026  1.00  0.00    -0.295 C  
HETATM   16  C   UNL     1     -10.597  18.172  67.252  1.00  0.00    -0.384 C  
HETATM   17  F   UNL     1      -7.309  17.134  67.690  1.00  0.00    -0.154 F  
HETATM   18  F   UNL     1      -8.407  16.477  69.441  1.00  0.00    -0.230 F  
HETATM   19  C   UNL     1      -8.491  17.259  68.340  1.00  0.00    -0.254 C  
ENDBRANCH   8  13
ENDBRANCH   3   7
BRANCH   6  20
HETATM   20  N   UNL     1     -11.021   8.316  68.175  1.00  0.00    -0.445 N  
HETATM   21  H   UNL     1     -11.569   8.119  69.013  1.00  0.00     0.000 HD 
BRANCH  20  22
HETATM   22  C   UNL     1     -10.351   7.278  67.579  1.00  0.00    -0.242 C  
HETATM   23  O   UNL     1     -10.866   6.364  66.941  1.00  0.00    -0.333 OA 
BRANCH  22  24
HETATM   24  N   UNL     1      -8.973   7.320  67.750  1.00  0.00    -0.127 N  
HETATM   25  C   UNL     1      -8.069   7.492  66.626  1.00  0.00    -0.123 C  
HETATM   26  C   UNL     1      -6.843   6.693  67.025  1.00  0.00    -0.066 C  
HETATM   27  C   UNL     1      -6.779   6.835  68.544  1.00  0.00    -0.064 C  
HETATM   28  C   UNL     1      -8.221   7.090  68.988  1.00  0.00    -0.125 C  
BRANCH  28  29
HETATM   29  C   UNL     1      -8.293   8.319  69.912  1.00  0.00    -0.125 C  
HETATM   30  N   UNL     1      -7.349   9.288  69.711  1.00  0.00    -0.065 N  
HETATM   31  O   UNL     1      -9.067   8.384  70.862  1.00  0.00    -0.143 OA 
HETATM   32  H1  UNL     1      -7.397  10.102  70.323  1.00  0.00     0.000 HD 
HETATM   33  H2  UNL     1      -6.636   9.200  68.987  1.00  0.00     0.000 HD 
ENDBRANCH  28  29
ENDBRANCH  22  24
ENDBRANCH  20  22
ENDBRANCH   6  20
TORSDOF 6
ENDMDL
MODEL      182
REMARK 921   NORMALIZED FREE ENERGY PREDICTED BY IDOCK:   -5.23 KCAL/MOL
REMARK 922        TOTAL FREE ENERGY PREDICTED BY IDOCK:   -8.16 KCAL/MOL
REMARK 923 INTER-LIGAND FREE ENERGY PREDICTED BY IDOCK:   -6.82 KCAL/MOL
REMARK 924 INTRA-LIGAND FREE ENERGY PREDICTED BY IDOCK:   -1.34 KCAL/MOL
REMARK 927      BINDING AFFINITY PREDICTED BY RF-SCORE:    0.00 PKD
ROOT
HETATM    1  C   UNL     1      -7.671  10.115  69.589  1.00  0.00    -0.167 C  
HETATM    2  C   UNL     1      -9.054  10.354  69.098  1.00  0.00    -0.187 A  
HETATM    3  C   UNL     1     -10.271   9.885  69.600  1.00  0.00    -0.237 A  
HETATM    4  S   UNL     1     -11.532  10.433  68.544  1.00  0.00    -0.071 SA 
HETATM    5  N   UNL     1      -9.151  11.181  67.985  1.00  0.00    -0.147 NA 
HETATM    6  C   UNL     1     -10.396  11.303  67.625  1.00  0.00    -0.184 A  
ENDROOT
BRANCH   3   7
HETATM    7  C   UNL     1     -10.607   9.040  70.766  1.00  0.00    -0.300 A  
HETATM    8  C   UNL     1     -10.184   7.126  72.222  1.00  0.00    -0.190 A  
HETATM    9  C   UNL     1     -12.017   8.492  72.617  1.00  0.00    -0.239 A  
HETATM   10  C   UNL     1      -9.836   7.915  71.117  1.00  0.00    -0.190 A  
HETATM   11  N   UNL     1     -11.285   7.412  72.956  1.00  0.00    -0.327 NA 
HETATM   12  C   UNL     1     -11.716   9.329  71.558  1.00  0.00    -0.450 A  
BRANCH   8  13
HETATM   13  C   UNL     1      -9.384   5.878  72.620  1.00  0.00    -0.146 C  
HETATM   14  F   UNL     1     -10.245   3.643  72.430  1.00  0.00    -0.217 F  
HETATM   15  C   UNL     1      -7.858   6.146  72.541  1.00  0.00    -0.104 C  
HETATM   16  C   UNL     1      -9.690   5.544  74.098  1.00  0.00    -0.172 C  
HETATM   17  F   UNL     1      -8.621   4.171  71.090  1.00  0.00    -0.080 F  
HETATM   18  F   UNL     1     -10.614   4.952  70.744  1.00  0.00    -0.289 F  
HETATM   19  C   UNL     1      -9.716   4.669  71.714  1.00  0.00    -0.169 C  
ENDBRANCH   8  13
ENDBRANCH   3   7
BRANCH   6  20
HETATM   20  N   UNL     1     -10.953  12.031  66.611  1.00  0.00    -0.272 N  
HETATM   21  H   UNL     1     -11.969  12.024  66.513  1.00  0.00     0.000 HD 
BRANCH  20  22
HETATM   22  C   UNL     1     -10.220  12.772  65.719  1.00  0.00    -0.289 C  
HETATM   23  O   UNL     1      -9.556  12.322  64.789  1.00  0.00    -0.070 OA 
BRANCH  22  24
HETATM   24  N   UNL     1     -10.272  14.142  65.941  1.00  0.00    -0.307 N  
HETATM   25  C   UNL     1     -11.185  15.000  65.206  1.00  0.00    -0.367 C  
HETATM   26  C   UNL     1     -10.425  16.308  65.081  1.00  0.00    -0.254 C  
HETATM   27  C   UNL     1      -9.601  16.390  66.363  1.00  0.00    -0.313 C  
HETATM   28  C   UNL     1      -9.394  14.938  66.804  1.00  0.00    -0.250 C  
BRANCH  28  29
HETATM   29  C   UNL     1      -9.774  14.765  68.286  1.00  0.00    -0.218 C  
HETATM   30  N   UNL     1      -8.740  14.584  69.163  1.00  0.00    -0.373 N  
HETATM   31  O   UNL     1     -10.939  14.665  68.659  1.00  0.00    -0.239 OA 
HETATM   32  H1  UNL     1      -8.993  14.468  70.144  1.00  0.00     0.000 HD 
HETATM   33  H2  UNL     1      -7.770  14.565  68.851  1.00  0.00     0.000 HD 
ENDBRANCH  28  29
ENDBRANCH  22  24
ENDBRANCH  20  22
ENDBRANCH   6  20
TORSDOF 6
ENDMDL
MODEL      183
REMARK 921   NORMALIZED FREE ENERGY PREDICTED BY IDOCK:   -5.22 KCAL/MOL
REMARK 922        TOTAL FREE ENERGY PREDICTED BY IDOCK:   -8.15 KCAL/MOL
REMARK 923 INTER-LIGAND FREE ENERGY PREDICTED BY IDOCK:   -7.23 KCAL/MOL
REMARK 924 INTRA-LIGAND FREE ENERGY PREDICTED BY IDOCK:   -0.92 KCAL/MOL
REMARK 927      BINDING AFFINITY PREDICTED BY RF-SCORE:    0.00 PKD
ROOT
HETATM    1  C   UNL     1      -9.409   9.100  65.362  1.00  0.00    -0.258 C  
HETATM    2  C   UNL     1      -9.439  10.396  66.092  1.00  0.00    -0.181 A  
HETATM    3  C   UNL     1      -9.350  10.648  67.463  1.00  0.00    -0.146 A  
HETATM    4  S   UNL     1      -9.536  12.354  67.706  1.00  0.00    -0.208 SA 
HETATM    5  N   UNL     1      -9.555  11.523  65.287  1.00  0.00    -0.231 NA 
HETATM    6  C   UNL     1      -9.597  12.596  66.023  1.00  0.00    -0.188 A  
ENDROOT
BRANCH   3   7
HETATM    7  C   UNL     1      -9.176   9.757  68.629  1.00  0.00    -0.137 A  
HETATM    8  C   UNL     1      -9.725   7.738  69.889  1.00  0.00    -0.176 A  
HETATM    9  C   UNL     1      -8.174   9.240  70.737  1.00  0.00    -0.169 A  
HETATM   10  C   UNL     1      -9.904   8.559  68.766  1.00  0.00    -0.180 A  
HETATM   11  N   UNL     1      -8.871   8.095  70.877  1.00  0.00    -0.137 NA 
HETATM   12  C   UNL     1      -8.280  10.082  69.646  1.00  0.00    -0.185 A  
BRANCH   8  13
HETATM   13  C   UNL     1     -10.520   6.439  70.087  1.00  0.00    -0.269 C  
HETATM   14  F   UNL     1     -10.902   4.847  68.328  1.00  0.00    -0.025 F  
HETATM   15  C   UNL     1     -10.486   5.986  71.570  1.00  0.00    -0.278 C  
HETATM   16  C   UNL     1     -12.003   6.711  69.749  1.00  0.00     0.005 C  
HETATM   17  F   UNL     1      -9.596   4.211  69.942  1.00  0.00    -0.212 F  
HETATM   18  F   UNL     1      -8.891   5.642  68.472  1.00  0.00    -0.109 F  
HETATM   19  C   UNL     1      -9.969   5.290  69.210  1.00  0.00    -0.215 C  
ENDBRANCH   8  13
ENDBRANCH   3   7
BRANCH   6  20
HETATM   20  N   UNL     1      -9.680  13.912  65.661  1.00  0.00    -0.510 N  
HETATM   21  H   UNL     1      -9.100  14.238  64.888  1.00  0.00     0.000 HD 
BRANCH  20  22
HETATM   22  C   UNL     1     -10.503  14.817  66.283  1.00  0.00    -0.296 C  
HETATM   23  O   UNL     1     -11.717  14.700  66.429  1.00  0.00    -0.369 OA 
BRANCH  22  24
HETATM   24  N   UNL     1      -9.847  15.942  66.765  1.00  0.00    -0.236 N  
HETATM   25  C   UNL     1      -8.437  15.913  67.113  1.00  0.00    -0.199 C  
HETATM   26  C   UNL     1      -8.333  16.889  68.269  1.00  0.00    -0.224 C  
HETATM   27  C   UNL     1      -9.387  17.950  67.964  1.00  0.00    -0.274 C  
HETATM   28  C   UNL     1     -10.438  17.241  67.106  1.00  0.00    -0.297 C  
BRANCH  28  29
HETATM   29  C   UNL     1     -10.740  18.058  65.837  1.00  0.00    -0.116 C  
HETATM   30  N   UNL     1     -10.724  19.419  65.971  1.00  0.00    -0.448 N  
HETATM   31  O   UNL     1     -11.101  17.534  64.787  1.00  0.00    -0.959 OA 
HETATM   32  H1  UNL     1     -10.925  19.960  65.130  1.00  0.00     0.000 HD 
HETATM   33  H2  UNL     1     -10.524  19.867  66.864  1.00  0.00     0.000 HD 
ENDBRANCH  28  29
ENDBRANCH  22  24
ENDBRANCH  20  22
ENDBRANCH   6  20
TORSDOF 6
ENDMDL
MODEL      184
REMARK 921   NORMALIZED FREE ENERGY PREDICTED BY IDOCK:   -5.21 KCAL/MOL
REMARK 922        TOTAL FREE ENERGY PREDICTED BY IDOCK:   -8.13 KCAL/MOL
REMARK 923 INTER-LIGAND FREE ENERGY PREDICTED BY IDOCK:   -7.11 KCAL/MOL
REMARK 924 INTRA-LIGAND FREE ENERGY PREDICTED BY IDOCK:   -1.02 KCAL/MOL
REMARK 927      BINDING AFFINITY PREDICTED BY RF-SCORE:    0.00 PKD
ROOT
HETATM    1  C   UNL     1     -11.833  14.919  64.606  1.00  0.00    -0.412 C  
HETATM    2  C   UNL     1     -10.876  14.779  65.736  1.00  0.00    -0.331 A  
HETATM    3  C   UNL     1     -10.060  13.699  66.083  1.00  0.00    -0.306 A  
HETATM    4  S   UNL     1      -9.235  14.103  67.552  1.00  0.00    -0.200 SA 
HETATM    5  N   UNL     1     -10.765  15.894  66.558  1.00  0.00    -0.293 NA 
HETATM    6  C   UNL     1      -9.925  15.657  67.523  1.00  0.00    -0.231 A  
ENDROOT
BRANCH   3   7
HETATM    7  C   UNL     1      -9.845  12.374  65.463  1.00  0.00    -0.215 A  
HETATM    8  C   UNL     1      -9.160  10.033  65.583  1.00  0.00    -0.183 A  
HETATM    9  C   UNL     1      -9.861  10.926  63.561  1.00  0.00    -0.359 A  
HETATM   10  C   UNL     1      -9.363  11.276  66.201  1.00  0.00    -0.230 A  
HETATM   11  N   UNL     1      -9.396   9.872  64.260  1.00  0.00    -0.274 NA 
HETATM   12  C   UNL     1     -10.110  12.170  64.110  1.00  0.00    -0.335 A  
BRANCH   8  13
HETATM   13  C   UNL     1      -8.611   8.820  66.348  1.00  0.00    -0.138 C  
HETATM   14  F   UNL     1      -9.373   8.186  68.537  1.00  0.00    -0.139 F  
HETATM   15  C   UNL     1      -8.039   7.759  65.372  1.00  0.00    -0.131 C  
HETATM   16  C   UNL     1      -7.428   9.285  67.227  1.00  0.00    -0.091 C  
HETATM   17  F   UNL     1      -9.879   6.842  66.909  1.00  0.00    -0.170 F  
HETATM   18  F   UNL     1     -10.912   8.738  67.115  1.00  0.00    -0.328 F  
HETATM   19  C   UNL     1      -9.699   8.149  67.219  1.00  0.00    -0.178 C  
ENDBRANCH   8  13
ENDBRANCH   3   7
BRANCH   6  20
HETATM   20  N   UNL     1      -9.495  16.467  68.537  1.00  0.00    -0.227 N  
HETATM   21  H   UNL     1      -9.325  16.048  69.451  1.00  0.00     0.000 HD 
BRANCH  20  22
HETATM   22  C   UNL     1      -9.279  17.814  68.390  1.00  0.00    -0.285 C  
HETATM   23  O   UNL     1     -10.076  18.703  68.676  1.00  0.00    -0.369 OA 
BRANCH  22  24
HETATM   24  N   UNL     1      -8.034  18.135  67.864  1.00  0.00    -0.241 N  
HETATM   25  C   UNL     1      -7.893  18.747  66.554  1.00  0.00    -0.269 C  
HETATM   26  C   UNL     1      -6.583  18.186  66.035  1.00  0.00    -0.298 C  
HETATM   27  C   UNL     1      -5.725  18.010  67.285  1.00  0.00    -0.152 C  
HETATM   28  C   UNL     1      -6.719  17.824  68.435  1.00  0.00    -0.213 C  
BRANCH  28  29
HETATM   29  C   UNL     1      -6.384  18.777  69.597  1.00  0.00    -0.221 C  
HETATM   30  N   UNL     1      -6.346  20.110  69.299  1.00  0.00    -0.323 N  
HETATM   31  O   UNL     1      -6.044  18.370  70.704  1.00  0.00     0.030 OA 
HETATM   32  H1  UNL     1      -6.124  20.741  70.069  1.00  0.00     0.000 HD 
HETATM   33  H2  UNL     1      -6.529  20.455  68.357  1.00  0.00     0.000 HD 
ENDBRANCH  28  29
ENDBRANCH  22  24
ENDBRANCH  20  22
ENDBRANCH   6  20
TORSDOF 6
ENDMDL
MODEL      185
REMARK 921   NORMALIZED FREE ENERGY PREDICTED BY IDOCK:   -5.21 KCAL/MOL
REMARK 922        TOTAL FREE ENERGY PREDICTED BY IDOCK:   -8.13 KCAL/MOL
REMARK 923 INTER-LIGAND FREE ENERGY PREDICTED BY IDOCK:   -6.92 KCAL/MOL
REMARK 924 INTRA-LIGAND FREE ENERGY PREDICTED BY IDOCK:   -1.21 KCAL/MOL
REMARK 927      BINDING AFFINITY PREDICTED BY RF-SCORE:    0.00 PKD
ROOT
HETATM    1  C   UNL     1      -7.292   9.309  70.403  1.00  0.00    -0.111 C  
HETATM    2  C   UNL     1      -8.756   9.165  70.181  1.00  0.00    -0.181 A  
HETATM    3  C   UNL     1      -9.681   8.351  70.840  1.00  0.00    -0.174 A  
HETATM    4  S   UNL     1     -11.219   8.559  70.070  1.00  0.00    -0.003 SA 
HETATM    5  N   UNL     1      -9.283   9.972  69.180  1.00  0.00    -0.179 NA 
HETATM    6  C   UNL     1     -10.559   9.750  69.051  1.00  0.00    -0.219 A  
ENDROOT
BRANCH   3   7
HETATM    7  C   UNL     1      -9.547   7.402  71.965  1.00  0.00    -0.177 A  
HETATM    8  C   UNL     1      -8.904   5.228  72.874  1.00  0.00    -0.121 A  
HETATM    9  C   UNL     1      -9.851   6.825  74.265  1.00  0.00    -0.317 A  
HETATM   10  C   UNL     1      -9.010   6.111  71.790  1.00  0.00    -0.141 A  
HETATM   11  N   UNL     1      -9.342   5.587  74.104  1.00  0.00    -0.132 NA 
HETATM   12  C   UNL     1      -9.960   7.755  73.248  1.00  0.00    -0.370 A  
BRANCH   8  13
HETATM   13  C   UNL     1      -8.349   3.805  72.718  1.00  0.00    -0.094 C  
HETATM   14  F   UNL     1      -6.152   3.333  71.865  1.00  0.00    -0.012 F  
HETATM   15  C   UNL     1      -9.042   2.826  73.700  1.00  0.00    -0.085 C  
HETATM   16  C   UNL     1      -8.679   3.300  71.295  1.00  0.00    -0.123 C  
HETATM   17  F   UNL     1      -6.489   2.895  73.964  1.00  0.00    -0.020 F  
HETATM   18  F   UNL     1      -6.289   4.950  73.300  1.00  0.00    -0.041 F  
HETATM   19  C   UNL     1      -6.823   3.753  72.969  1.00  0.00    -0.040 C  
ENDBRANCH   8  13
ENDBRANCH   3   7
BRANCH   6  20
HETATM   20  N   UNL     1     -11.476  10.329  68.219  1.00  0.00    -0.525 N  
HETATM   21  H   UNL     1     -12.341   9.824  68.028  1.00  0.00     0.000 HD 
BRANCH  20  22
HETATM   22  C   UNL     1     -11.294  11.552  67.626  1.00  0.00    -0.291 C  
HETATM   23  O   UNL     1     -11.357  12.640  68.193  1.00  0.00    -0.249 OA 
BRANCH  22  24
HETATM   24  N   UNL     1     -11.021  11.489  66.266  1.00  0.00    -0.289 N  
HETATM   25  C   UNL     1     -10.483  10.288  65.650  1.00  0.00    -0.082 C  
HETATM   26  C   UNL     1      -9.604  10.820  64.534  1.00  0.00    -0.322 C  
HETATM   27  C   UNL     1     -10.307  12.093  64.073  1.00  0.00    -0.412 C  
HETATM   28  C   UNL     1     -11.100  12.580  65.289  1.00  0.00    -0.297 C  
BRANCH  28  29
HETATM   29  C   UNL     1     -12.562  12.867  64.901  1.00  0.00    -0.458 C  
HETATM   30  N   UNL     1     -13.087  12.101  63.897  1.00  0.00    -0.729 N  
HETATM   31  O   UNL     1     -13.195  13.809  65.369  1.00  0.00    -0.722 OA 
HETATM   32  H1  UNL     1     -14.056  12.291  63.640  1.00  0.00     0.000 HD 
HETATM   33  H2  UNL     1     -12.539  11.380  63.430  1.00  0.00     0.000 HD 
ENDBRANCH  28  29
ENDBRANCH  22  24
ENDBRANCH  20  22
ENDBRANCH   6  20
TORSDOF 6
ENDMDL
MODEL      186
REMARK 921   NORMALIZED FREE ENERGY PREDICTED BY IDOCK:   -5.20 KCAL/MOL
REMARK 922        TOTAL FREE ENERGY PREDICTED BY IDOCK:   -8.11 KCAL/MOL
REMARK 923 INTER-LIGAND FREE ENERGY PREDICTED BY IDOCK:   -7.41 KCAL/MOL
REMARK 924 INTRA-LIGAND FREE ENERGY PREDICTED BY IDOCK:   -0.70 KCAL/MOL
REMARK 927      BINDING AFFINITY PREDICTED BY RF-SCORE:    0.00 PKD
ROOT
HETATM    1  C   UNL     1      -9.731  11.306  66.989  1.00  0.00    -0.208 C  
HETATM    2  C   UNL     1     -10.523  11.046  68.221  1.00  0.00    -0.186 A  
HETATM    3  C   UNL     1     -11.112  11.951  69.108  1.00  0.00    -0.228 A  
HETATM    4  S   UNL     1     -11.824  11.044  70.402  1.00  0.00    -0.374 SA 
HETATM    5  N   UNL     1     -10.720   9.704  68.524  1.00  0.00    -0.217 NA 
HETATM    6  C   UNL     1     -11.400   9.589  69.628  1.00  0.00    -0.035 A  
ENDROOT
BRANCH   3   7
HETATM    7  C   UNL     1     -11.178  13.427  69.125  1.00  0.00    -0.300 A  
HETATM    8  C   UNL     1     -10.305  15.623  68.505  1.00  0.00    -0.219 A  
HETATM    9  C   UNL     1     -12.199  15.468  69.836  1.00  0.00    -0.325 A  
HETATM   10  C   UNL     1     -10.223  14.223  68.463  1.00  0.00    -0.245 A  
HETATM   11  N   UNL     1     -11.287  16.236  69.208  1.00  0.00    -0.314 NA 
HETATM   12  C   UNL     1     -12.195  14.086  69.813  1.00  0.00    -0.396 A  
BRANCH   8  13
HETATM   13  C   UNL     1      -9.269  16.523  67.818  1.00  0.00    -0.202 C  
HETATM   14  F   UNL     1      -7.663  17.843  69.024  1.00  0.00    -0.270 F  
HETATM   15  C   UNL     1      -8.964  16.025  66.382  1.00  0.00    -0.354 C  
HETATM   16  C   UNL     1      -9.868  17.940  67.669  1.00  0.00    -0.304 C  
HETATM   17  F   UNL     1      -6.878  16.179  67.871  1.00  0.00    -0.115 F  
HETATM   18  F   UNL     1      -7.944  15.812  69.724  1.00  0.00    -0.215 F  
HETATM   19  C   UNL     1      -7.941  16.580  68.610  1.00  0.00    -0.232 C  
ENDBRANCH   8  13
ENDBRANCH   3   7
BRANCH   6  20
HETATM   20  N   UNL     1     -11.840   8.472  70.281  1.00  0.00    -0.458 N  
HETATM   21  H   UNL     1     -12.679   8.008  69.932  1.00  0.00     0.000 HD 
BRANCH  20  22
HETATM   22  C   UNL     1     -11.215   7.943  71.381  1.00  0.00    -0.247 C  
HETATM   23  O   UNL     1     -11.279   8.386  72.524  1.00  0.00    -0.368 OA 
BRANCH  22  24
HETATM   24  N   UNL     1     -10.458   6.810  71.112  1.00  0.00    -0.213 N  
HETATM   25  C   UNL     1      -9.437   6.801  70.079  1.00  0.00    -0.157 C  
HETATM   26  C   UNL     1      -9.474   5.380  69.550  1.00  0.00    -0.182 C  
HETATM   27  C   UNL     1      -9.840   4.534  70.766  1.00  0.00    -0.280 C  
HETATM   28  C   UNL     1     -10.619   5.472  71.692  1.00  0.00    -0.231 C  
BRANCH  28  29
HETATM   29  C   UNL     1     -10.046   5.419  73.120  1.00  0.00    -0.181 C  
HETATM   30  N   UNL     1      -8.755   4.984  73.243  1.00  0.00    -0.112 N  
HETATM   31  O   UNL     1     -10.735   5.630  74.114  1.00  0.00    -0.244 OA 
HETATM   32  H1  UNL     1      -8.376   4.949  74.189  1.00  0.00     0.000 HD 
HETATM   33  H2  UNL     1      -8.202   4.710  72.432  1.00  0.00     0.000 HD 
ENDBRANCH  28  29
ENDBRANCH  22  24
ENDBRANCH  20  22
ENDBRANCH   6  20
TORSDOF 6
ENDMDL
MODEL      187
REMARK 921   NORMALIZED FREE ENERGY PREDICTED BY IDOCK:   -5.19 KCAL/MOL
REMARK 922        TOTAL FREE ENERGY PREDICTED BY IDOCK:   -8.11 KCAL/MOL
REMARK 923 INTER-LIGAND FREE ENERGY PREDICTED BY IDOCK:   -6.88 KCAL/MOL
REMARK 924 INTRA-LIGAND FREE ENERGY PREDICTED BY IDOCK:   -1.22 KCAL/MOL
REMARK 927      BINDING AFFINITY PREDICTED BY RF-SCORE:    0.00 PKD
ROOT
HETATM    1  C   UNL     1      -6.991  13.401  68.307  1.00  0.00    -0.108 C  
HETATM    2  C   UNL     1      -8.422  13.159  67.985  1.00  0.00    -0.181 A  
HETATM    3  C   UNL     1      -9.462  14.074  67.803  1.00  0.00    -0.209 A  
HETATM    4  S   UNL     1     -10.922  13.180  67.536  1.00  0.00    -0.270 SA 
HETATM    5  N   UNL     1      -8.773  11.823  67.824  1.00  0.00    -0.149 NA 
HETATM    6  C   UNL     1     -10.045  11.722  67.570  1.00  0.00    -0.192 A  
ENDROOT
BRANCH   3   7
HETATM    7  C   UNL     1      -9.504  15.552  67.839  1.00  0.00    -0.201 A  
HETATM    8  C   UNL     1      -8.402  17.731  67.844  1.00  0.00    -0.241 A  
HETATM    9  C   UNL     1     -10.714  17.608  67.992  1.00  0.00    -0.328 A  
HETATM   10  C   UNL     1      -8.332  16.331  67.798  1.00  0.00    -0.169 A  
HETATM   11  N   UNL     1      -9.596  18.360  67.957  1.00  0.00    -0.288 NA 
HETATM   12  C   UNL     1     -10.720  16.227  67.924  1.00  0.00    -0.329 A  
BRANCH   8  13
HETATM   13  C   UNL     1      -7.146  18.614  67.828  1.00  0.00    -0.230 C  
HETATM   14  F   UNL     1      -5.227  18.151  66.458  1.00  0.00    -0.142 F  
HETATM   15  C   UNL     1      -7.481  20.067  68.254  1.00  0.00    -0.279 C  
HETATM   16  C   UNL     1      -6.149  18.073  68.877  1.00  0.00    -0.212 C  
HETATM   17  F   UNL     1      -6.385  19.912  65.938  1.00  0.00    -0.179 F  
HETATM   18  F   UNL     1      -7.157  17.933  65.498  1.00  0.00    -0.310 F  
HETATM   19  C   UNL     1      -6.488  18.653  66.428  1.00  0.00    -0.195 C  
ENDBRANCH   8  13
ENDBRANCH   3   7
BRANCH   6  20
HETATM   20  N   UNL     1     -10.810  10.617  67.319  1.00  0.00    -0.286 N  
HETATM   21  H   UNL     1     -11.795  10.642  67.581  1.00  0.00     0.000 HD 
BRANCH  20  22
HETATM   22  C   UNL     1     -10.322   9.476  66.733  1.00  0.00    -0.228 C  
HETATM   23  O   UNL     1      -9.868   9.392  65.596  1.00  0.00    -0.296 OA 
BRANCH  22  24
HETATM   24  N   UNL     1     -10.376   8.353  67.548  1.00  0.00    -0.248 N  
HETATM   25  C   UNL     1     -10.403   7.010  66.995  1.00  0.00    -0.290 C  
HETATM   26  C   UNL     1     -11.253   6.232  67.982  1.00  0.00    -0.223 C  
HETATM   27  C   UNL     1     -10.954   6.880  69.331  1.00  0.00    -0.274 C  
HETATM   28  C   UNL     1     -10.533   8.316  69.006  1.00  0.00    -0.197 C  
BRANCH  28  29
HETATM   29  C   UNL     1      -9.209   8.663  69.710  1.00  0.00    -0.154 C  
HETATM   30  N   UNL     1      -9.174   9.849  70.391  1.00  0.00    -0.358 N  
HETATM   31  O   UNL     1      -8.193   7.987  69.573  1.00  0.00    -0.118 OA 
HETATM   32  H1  UNL     1      -8.296  10.078  70.857  1.00  0.00     0.000 HD 
HETATM   33  H2  UNL     1      -9.982  10.469  70.429  1.00  0.00     0.000 HD 
ENDBRANCH  28  29
ENDBRANCH  22  24
ENDBRANCH  20  22
ENDBRANCH   6  20
TORSDOF 6
ENDMDL
MODEL      188
REMARK 921   NORMALIZED FREE ENERGY PREDICTED BY IDOCK:   -5.19 KCAL/MOL
REMARK 922        TOTAL FREE ENERGY PREDICTED BY IDOCK:   -8.10 KCAL/MOL
REMARK 923 INTER-LIGAND FREE ENERGY PREDICTED BY IDOCK:   -6.71 KCAL/MOL
REMARK 924 INTRA-LIGAND FREE ENERGY PREDICTED BY IDOCK:   -1.39 KCAL/MOL
REMARK 927      BINDING AFFINITY PREDICTED BY RF-SCORE:    0.00 PKD
ROOT
HETATM    1  C   UNL     1      -7.146   9.360  69.758  1.00  0.00    -0.068 C  
HETATM    2  C   UNL     1      -8.152   8.963  70.779  1.00  0.00    -0.156 A  
HETATM    3  C   UNL     1      -9.516   9.257  70.847  1.00  0.00    -0.261 A  
HETATM    4  S   UNL     1     -10.134   8.589  72.321  1.00  0.00    -0.294 SA 
HETATM    5  N   UNL     1      -7.664   8.169  71.810  1.00  0.00    -0.094 NA 
HETATM    6  C   UNL     1      -8.615   7.901  72.657  1.00  0.00    -0.153 A  
ENDROOT
BRANCH   3   7
HETATM    7  C   UNL     1     -10.416  10.013  69.951  1.00  0.00    -0.317 A  
HETATM    8  C   UNL     1     -10.875  11.182  67.856  1.00  0.00    -0.235 A  
HETATM    9  C   UNL     1     -12.515  11.063  69.493  1.00  0.00    -0.080 A  
HETATM   10  C   UNL     1     -10.002  10.457  68.680  1.00  0.00    -0.186 A  
HETATM   11  N   UNL     1     -12.123  11.494  68.277  1.00  0.00    -0.575 NA 
HETATM   12  C   UNL     1     -11.717  10.322  70.345  1.00  0.00    -0.404 A  
BRANCH   8  13
HETATM   13  C   UNL     1     -10.451  11.705  66.476  1.00  0.00    -0.276 C  
HETATM   14  F   UNL     1      -8.793  10.629  65.111  1.00  0.00    -0.173 F  
HETATM   15  C   UNL     1     -11.581  12.549  65.830  1.00  0.00    -0.439 C  
HETATM   16  C   UNL     1      -9.247  12.656  66.657  1.00  0.00    -0.218 C  
HETATM   17  F   UNL     1     -10.836  10.564  64.381  1.00  0.00    -0.339 F  
HETATM   18  F   UNL     1     -10.240   9.323  66.057  1.00  0.00    -0.364 F  
HETATM   19  C   UNL     1     -10.088  10.551  65.511  1.00  0.00    -0.283 C  
ENDBRANCH   8  13
ENDBRANCH   3   7
BRANCH   6  20
HETATM   20  N   UNL     1      -8.596   7.141  73.793  1.00  0.00    -0.142 N  
HETATM   21  H   UNL     1      -8.819   7.593  74.680  1.00  0.00     0.000 HD 
BRANCH  20  22
HETATM   22  C   UNL     1      -8.294   5.803  73.805  1.00  0.00    -0.113 C  
HETATM   23  O   UNL     1      -7.216   5.315  74.134  1.00  0.00    -0.081 OA 
BRANCH  22  24
HETATM   24  N   UNL     1      -9.336   4.982  73.395  1.00  0.00    -0.136 N  
HETATM   25  C   UNL     1     -10.505   4.758  74.228  1.00  0.00    -0.287 C  
HETATM   26  C   UNL     1     -10.908   3.332  73.905  1.00  0.00    -0.298 C  
HETATM   27  C   UNL     1     -10.533   3.157  72.436  1.00  0.00    -0.080 C  
HETATM   28  C   UNL     1      -9.394   4.149  72.189  1.00  0.00    -0.127 C  
BRANCH  28  29
HETATM   29  C   UNL     1      -9.684   5.005  70.942  1.00  0.00    -0.190 C  
HETATM   30  N   UNL     1      -8.605   5.358  70.181  1.00  0.00    -0.117 N  
HETATM   31  O   UNL     1     -10.798   5.460  70.702  1.00  0.00    -0.228 OA 
HETATM   32  H1  UNL     1      -8.798   5.925  69.355  1.00  0.00     0.000 HD 
HETATM   33  H2  UNL     1      -7.658   5.069  70.426  1.00  0.00     0.000 HD 
ENDBRANCH  28  29
ENDBRANCH  22  24
ENDBRANCH  20  22
ENDBRANCH   6  20
TORSDOF 6
ENDMDL
MODEL      189
REMARK 921   NORMALIZED FREE ENERGY PREDICTED BY IDOCK:   -5.17 KCAL/MOL
REMARK 922        TOTAL FREE ENERGY PREDICTED BY IDOCK:   -8.07 KCAL/MOL
REMARK 923 INTER-LIGAND FREE ENERGY PREDICTED BY IDOCK:   -6.79 KCAL/MOL
REMARK 924 INTRA-LIGAND FREE ENERGY PREDICTED BY IDOCK:   -1.28 KCAL/MOL
REMARK 927      BINDING AFFINITY PREDICTED BY RF-SCORE:    0.00 PKD
ROOT
HETATM    1  C   UNL     1     -12.138  12.748  69.481  1.00  0.00    -0.265 C  
HETATM    2  C   UNL     1     -11.530  11.904  68.417  1.00  0.00    -0.299 A  
HETATM    3  C   UNL     1     -11.129  12.253  67.125  1.00  0.00    -0.278 A  
HETATM    4  S   UNL     1     -10.577  10.815  66.331  1.00  0.00    -0.162 SA 
HETATM    5  N   UNL     1     -11.315  10.577  68.768  1.00  0.00    -0.260 NA 
HETATM    6  C   UNL     1     -10.806   9.925  67.763  1.00  0.00    -0.264 A  
ENDROOT
BRANCH   3   7
HETATM    7  C   UNL     1     -11.140  13.537  66.392  1.00  0.00    -0.311 A  
HETATM    8  C   UNL     1     -10.569  15.903  66.198  1.00  0.00    -0.305 A  
HETATM    9  C   UNL     1     -11.786  14.869  64.516  1.00  0.00    -0.396 A  
HETATM   10  C   UNL     1     -10.533  14.696  66.912  1.00  0.00    -0.270 A  
HETATM   11  N   UNL     1     -11.212  15.984  65.010  1.00  0.00    -0.306 NA 
HETATM   12  C   UNL     1     -11.767  13.642  65.152  1.00  0.00    -0.346 A  
BRANCH   8  13
HETATM   13  C   UNL     1      -9.942  17.194  66.744  1.00  0.00    -0.291 C  
HETATM   14  F   UNL     1      -7.772  17.274  67.773  1.00  0.00    -0.177 F  
HETATM   15  C   UNL     1     -10.523  18.441  66.028  1.00  0.00    -0.400 C  
HETATM   16  C   UNL     1     -10.319  17.334  68.235  1.00  0.00    -0.361 C  
HETATM   17  F   UNL     1      -7.968  18.264  65.851  1.00  0.00    -0.260 F  
HETATM   18  F   UNL     1      -7.923  16.098  65.959  1.00  0.00    -0.305 F  
HETATM   19  C   UNL     1      -8.404  17.203  66.573  1.00  0.00    -0.274 C  
ENDBRANCH   8  13
ENDBRANCH   3   7
BRANCH   6  20
HETATM   20  N   UNL     1     -10.414   8.619  67.665  1.00  0.00    -0.326 N  
HETATM   21  H   UNL     1     -10.798   8.055  66.907  1.00  0.00     0.000 HD 
BRANCH  20  22
HETATM   22  C   UNL     1      -9.533   8.026  68.533  1.00  0.00    -0.142 C  
HETATM   23  O   UNL     1      -9.833   7.419  69.557  1.00  0.00    -0.163 OA 
BRANCH  22  24
HETATM   24  N   UNL     1      -8.199   8.163  68.167  1.00  0.00    -0.128 N  
HETATM   25  C   UNL     1      -7.304   9.066  68.869  1.00  0.00    -0.074 C  
HETATM   26  C   UNL     1      -6.357   9.545  67.785  1.00  0.00    -0.057 C  
HETATM   27  C   UNL     1      -6.228   8.352  66.842  1.00  0.00    -0.055 C  
HETATM   28  C   UNL     1      -7.526   7.559  67.012  1.00  0.00    -0.098 C  
BRANCH  28  29
HETATM   29  C   UNL     1      -7.221   6.072  67.268  1.00  0.00    -0.076 C  
HETATM   30  N   UNL     1      -7.136   5.269  66.165  1.00  0.00    -0.070 N  
HETATM   31  O   UNL     1      -7.179   5.594  68.398  1.00  0.00    -0.072 OA 
HETATM   32  H1  UNL     1      -6.934   4.284  66.335  1.00  0.00     0.000 HD 
HETATM   33  H2  UNL     1      -7.268   5.636  65.223  1.00  0.00     0.000 HD 
ENDBRANCH  28  29
ENDBRANCH  22  24
ENDBRANCH  20  22
ENDBRANCH   6  20
TORSDOF 6
ENDMDL
MODEL      190
REMARK 921   NORMALIZED FREE ENERGY PREDICTED BY IDOCK:   -5.15 KCAL/MOL
REMARK 922        TOTAL FREE ENERGY PREDICTED BY IDOCK:   -8.05 KCAL/MOL
REMARK 923 INTER-LIGAND FREE ENERGY PREDICTED BY IDOCK:   -6.76 KCAL/MOL
REMARK 924 INTRA-LIGAND FREE ENERGY PREDICTED BY IDOCK:   -1.29 KCAL/MOL
REMARK 927      BINDING AFFINITY PREDICTED BY RF-SCORE:    0.00 PKD
ROOT
HETATM    1  C   UNL     1      -9.134   9.044  65.295  1.00  0.00    -0.226 C  
HETATM    2  C   UNL     1      -9.012  10.166  66.265  1.00  0.00    -0.148 A  
HETATM    3  C   UNL     1      -8.836  10.130  67.650  1.00  0.00    -0.125 A  
HETATM    4  S   UNL     1      -8.856  11.762  68.234  1.00  0.00    -0.162 SA 
HETATM    5  N   UNL     1      -9.065  11.437  65.705  1.00  0.00    -0.206 NA 
HETATM    6  C   UNL     1      -8.974  12.340  66.638  1.00  0.00    -0.189 A  
ENDROOT
BRANCH   3   7
HETATM    7  C   UNL     1      -8.687   9.012  68.606  1.00  0.00    -0.133 A  
HETATM    8  C   UNL     1      -9.568   7.550  70.353  1.00  0.00    -0.168 A  
HETATM    9  C   UNL     1      -7.374   7.304  69.641  1.00  0.00    -0.088 A  
HETATM   10  C   UNL     1      -9.741   8.608  69.449  1.00  0.00    -0.176 A  
HETATM   11  N   UNL     1      -8.377   6.915  70.454  1.00  0.00    -0.128 NA 
HETATM   12  C   UNL     1      -7.483   8.320  68.710  1.00  0.00    -0.096 A  
BRANCH   8  13
HETATM   13  C   UNL     1     -10.684   7.098  71.305  1.00  0.00    -0.245 C  
HETATM   14  F   UNL     1     -10.575   7.375  73.690  1.00  0.00    -0.377 F  
HETATM   15  C   UNL     1     -12.053   7.052  70.577  1.00  0.00    -0.278 C  
HETATM   16  C   UNL     1     -10.387   5.653  71.764  1.00  0.00    -0.268 C  
HETATM   17  F   UNL     1     -12.050   8.576  72.643  1.00  0.00    -0.440 F  
HETATM   18  F   UNL     1      -9.944   9.075  72.504  1.00  0.00    -0.322 F  
HETATM   19  C   UNL     1     -10.811   8.038  72.528  1.00  0.00    -0.349 C  
ENDBRANCH   8  13
ENDBRANCH   3   7
BRANCH   6  20
HETATM   20  N   UNL     1      -8.956  13.704  66.547  1.00  0.00    -0.449 N  
HETATM   21  H   UNL     1      -8.381  14.132  65.822  1.00  0.00     0.000 HD 
BRANCH  20  22
HETATM   22  C   UNL     1      -9.671  14.528  67.379  1.00  0.00    -0.222 C  
HETATM   23  O   UNL     1     -10.846  14.375  67.703  1.00  0.00    -0.265 OA 
BRANCH  22  24
HETATM   24  N   UNL     1      -8.949  15.611  67.862  1.00  0.00    -0.179 N  
HETATM   25  C   UNL     1      -9.521  16.547  68.815  1.00  0.00    -0.246 C  
HETATM   26  C   UNL     1      -8.877  17.870  68.450  1.00  0.00    -0.293 C  
HETATM   27  C   UNL     1      -7.484  17.489  67.956  1.00  0.00    -0.214 C  
HETATM   28  C   UNL     1      -7.617  16.055  67.437  1.00  0.00    -0.171 C  
BRANCH  28  29
HETATM   29  C   UNL     1      -6.521  15.158  68.040  1.00  0.00    -0.144 C  
HETATM   30  N   UNL     1      -5.957  15.588  69.210  1.00  0.00    -0.108 N  
HETATM   31  O   UNL     1      -6.077  14.176  67.453  1.00  0.00    -0.343 OA 
HETATM   32  H1  UNL     1      -5.231  14.993  69.609  1.00  0.00     0.000 HD 
HETATM   33  H2  UNL     1      -6.248  16.456  69.658  1.00  0.00     0.000 HD 
ENDBRANCH  28  29
ENDBRANCH  22  24
ENDBRANCH  20  22
ENDBRANCH   6  20
TORSDOF 6
ENDMDL
MODEL      191
REMARK 921   NORMALIZED FREE ENERGY PREDICTED BY IDOCK:   -5.14 KCAL/MOL
REMARK 922        TOTAL FREE ENERGY PREDICTED BY IDOCK:   -8.04 KCAL/MOL
REMARK 923 INTER-LIGAND FREE ENERGY PREDICTED BY IDOCK:   -7.04 KCAL/MOL
REMARK 924 INTRA-LIGAND FREE ENERGY PREDICTED BY IDOCK:   -1.00 KCAL/MOL
REMARK 927      BINDING AFFINITY PREDICTED BY RF-SCORE:    0.00 PKD
ROOT
HETATM    1  C   UNL     1      -7.770   8.080  64.441  1.00  0.00    -0.130 C  
HETATM    2  C   UNL     1      -8.341   9.034  65.429  1.00  0.00    -0.144 A  
HETATM    3  C   UNL     1      -9.034   8.778  66.615  1.00  0.00    -0.139 A  
HETATM    4  S   UNL     1      -9.523  10.299  67.287  1.00  0.00    -0.152 SA 
HETATM    5  N   UNL     1      -8.139  10.377  65.138  1.00  0.00    -0.155 NA 
HETATM    6  C   UNL     1      -8.697  11.122  66.048  1.00  0.00    -0.183 A  
ENDROOT
BRANCH   3   7
HETATM    7  C   UNL     1      -9.411   7.521  67.297  1.00  0.00    -0.168 A  
HETATM    8  C   UNL     1      -8.873   5.295  68.145  1.00  0.00    -0.105 A  
HETATM    9  C   UNL     1     -11.032   6.117  68.352  1.00  0.00    -0.305 A  
HETATM   10  C   UNL     1      -8.485   6.481  67.505  1.00  0.00    -0.120 A  
HETATM   11  N   UNL     1     -10.152   5.116  68.550  1.00  0.00    -0.164 NA 
HETATM   12  C   UNL     1     -10.712   7.321  67.753  1.00  0.00    -0.267 A  
BRANCH   8  13
HETATM   13  C   UNL     1      -7.900   4.129  68.367  1.00  0.00    -0.073 C  
HETATM   14  F   UNL     1      -8.286   1.911  67.527  1.00  0.00    -0.062 F  
HETATM   15  C   UNL     1      -6.456   4.646  68.599  1.00  0.00    -0.037 C  
HETATM   16  C   UNL     1      -8.307   3.383  69.657  1.00  0.00    -0.080 C  
HETATM   17  F   UNL     1      -6.649   3.015  66.625  1.00  0.00    -0.033 F  
HETATM   18  F   UNL     1      -8.701   3.535  66.154  1.00  0.00    -0.107 F  
HETATM   19  C   UNL     1      -7.885   3.157  67.163  1.00  0.00    -0.078 C  
ENDBRANCH   8  13
ENDBRANCH   3   7
BRANCH   6  20
HETATM   20  N   UNL     1      -8.728  12.482  66.178  1.00  0.00    -0.401 N  
HETATM   21  H   UNL     1      -7.899  13.012  65.910  1.00  0.00     0.000 HD 
BRANCH  20  22
HETATM   22  C   UNL     1      -9.816  13.172  66.651  1.00  0.00    -0.261 C  
HETATM   23  O   UNL     1      -9.942  13.621  67.788  1.00  0.00    -0.225 OA 
BRANCH  22  24
HETATM   24  N   UNL     1     -10.829  13.343  65.717  1.00  0.00    -0.273 N  
HETATM   25  C   UNL     1     -12.074  12.600  65.796  1.00  0.00    -0.423 C  
HETATM   26  C   UNL     1     -12.469  12.406  64.344  1.00  0.00    -0.520 C  
HETATM   27  C   UNL     1     -11.961  13.663  63.644  1.00  0.00    -0.371 C  
HETATM   28  C   UNL     1     -10.786  14.154  64.495  1.00  0.00    -0.320 C  
BRANCH  28  29
HETATM   29  C   UNL     1     -10.944  15.650  64.821  1.00  0.00    -0.400 C  
HETATM   30  N   UNL     1     -10.770  16.010  66.128  1.00  0.00    -0.283 N  
HETATM   31  O   UNL     1     -11.328  16.468  63.990  1.00  0.00    -1.064 OA 
HETATM   32  H1  UNL     1     -10.875  17.001  66.344  1.00  0.00     0.000 HD 
HETATM   33  H2  UNL     1     -10.548  15.323  66.849  1.00  0.00     0.000 HD 
ENDBRANCH  28  29
ENDBRANCH  22  24
ENDBRANCH  20  22
ENDBRANCH   6  20
TORSDOF 6
ENDMDL
MODEL      192
REMARK 921   NORMALIZED FREE ENERGY PREDICTED BY IDOCK:   -5.14 KCAL/MOL
REMARK 922        TOTAL FREE ENERGY PREDICTED BY IDOCK:   -8.04 KCAL/MOL
REMARK 923 INTER-LIGAND FREE ENERGY PREDICTED BY IDOCK:   -6.93 KCAL/MOL
REMARK 924 INTRA-LIGAND FREE ENERGY PREDICTED BY IDOCK:   -1.11 KCAL/MOL
REMARK 927      BINDING AFFINITY PREDICTED BY RF-SCORE:    0.00 PKD
ROOT
HETATM    1  C   UNL     1      -9.074   9.473  69.835  1.00  0.00    -0.237 C  
HETATM    2  C   UNL     1      -9.767  10.151  68.707  1.00  0.00    -0.172 A  
HETATM    3  C   UNL     1      -9.808   9.809  67.353  1.00  0.00    -0.174 A  
HETATM    4  S   UNL     1     -10.704  11.035  66.519  1.00  0.00    -0.206 SA 
HETATM    5  N   UNL     1     -10.494  11.283  69.055  1.00  0.00    -0.212 NA 
HETATM    6  C   UNL     1     -11.037  11.810  67.996  1.00  0.00    -0.242 A  
ENDROOT
BRANCH   3   7
HETATM    7  C   UNL     1      -9.224   8.683  66.593  1.00  0.00    -0.227 A  
HETATM    8  C   UNL     1      -8.474   6.365  66.427  1.00  0.00    -0.123 A  
HETATM    9  C   UNL     1      -8.250   7.783  64.605  1.00  0.00    -0.076 A  
HETATM   10  C   UNL     1      -9.040   7.411  67.169  1.00  0.00    -0.146 A  
HETATM   11  N   UNL     1      -8.067   6.564  65.151  1.00  0.00    -0.130 NA 
HETATM   12  C   UNL     1      -8.825   8.850  65.268  1.00  0.00    -0.227 A  
BRANCH   8  13
HETATM   13  C   UNL     1      -8.234   4.973  67.028  1.00  0.00    -0.107 C  
HETATM   14  F   UNL     1      -9.993   3.599  67.917  1.00  0.00    -0.190 F  
HETATM   15  C   UNL     1      -6.946   4.331  66.449  1.00  0.00    -0.059 C  
HETATM   16  C   UNL     1      -7.998   5.125  68.548  1.00  0.00    -0.086 C  
HETATM   17  F   UNL     1      -9.046   2.898  66.094  1.00  0.00    -0.133 F  
HETATM   18  F   UNL     1     -10.412   4.580  66.032  1.00  0.00    -0.256 F  
HETATM   19  C   UNL     1      -9.421   4.018  66.759  1.00  0.00    -0.199 C  
ENDBRANCH   8  13
ENDBRANCH   3   7
BRANCH   6  20
HETATM   20  N   UNL     1     -11.848  12.903  67.871  1.00  0.00    -0.353 N  
HETATM   21  H   UNL     1     -12.776  12.773  67.468  1.00  0.00     0.000 HD 
BRANCH  20  22
HETATM   22  C   UNL     1     -11.480  14.167  68.259  1.00  0.00    -0.304 C  
HETATM   23  O   UNL     1     -11.970  14.803  69.188  1.00  0.00    -0.303 OA 
BRANCH  22  24
HETATM   24  N   UNL     1     -10.462  14.721  67.494  1.00  0.00    -0.243 N  
HETATM   25  C   UNL     1      -9.071  14.648  67.905  1.00  0.00    -0.189 C  
HETATM   26  C   UNL     1      -8.474  15.942  67.383  1.00  0.00    -0.194 C  
HETATM   27  C   UNL     1      -9.246  16.222  66.097  1.00  0.00    -0.376 C  
HETATM   28  C   UNL     1     -10.601  15.533  66.280  1.00  0.00    -0.307 C  
BRANCH  28  29
HETATM   29  C   UNL     1     -10.928  14.650  65.062  1.00  0.00    -0.405 C  
HETATM   30  N   UNL     1      -9.933  13.819  64.628  1.00  0.00    -0.599 N  
HETATM   31  O   UNL     1     -11.972  14.766  64.426  1.00  0.00    -0.451 OA 
HETATM   32  H1  UNL     1     -10.150  13.234  63.821  1.00  0.00     0.000 HD 
HETATM   33  H2  UNL     1      -9.024  13.785  65.088  1.00  0.00     0.000 HD 
ENDBRANCH  28  29
ENDBRANCH  22  24
ENDBRANCH  20  22
ENDBRANCH   6  20
TORSDOF 6
ENDMDL
MODEL      193
REMARK 921   NORMALIZED FREE ENERGY PREDICTED BY IDOCK:   -5.14 KCAL/MOL
REMARK 922        TOTAL FREE ENERGY PREDICTED BY IDOCK:   -8.03 KCAL/MOL
REMARK 923 INTER-LIGAND FREE ENERGY PREDICTED BY IDOCK:   -7.81 KCAL/MOL
REMARK 924 INTRA-LIGAND FREE ENERGY PREDICTED BY IDOCK:   -0.22 KCAL/MOL
REMARK 927      BINDING AFFINITY PREDICTED BY RF-SCORE:    0.00 PKD
ROOT
HETATM    1  C   UNL     1      -7.559   9.787  69.329  1.00  0.00    -0.097 C  
HETATM    2  C   UNL     1      -8.893  10.444  69.291  1.00  0.00    -0.154 A  
HETATM    3  C   UNL     1     -10.071  10.106  69.962  1.00  0.00    -0.190 A  
HETATM    4  S   UNL     1     -11.314  11.195  69.441  1.00  0.00    -0.311 SA 
HETATM    5  N   UNL     1      -8.974  11.570  68.481  1.00  0.00    -0.164 NA 
HETATM    6  C   UNL     1     -10.183  12.050  68.501  1.00  0.00    -0.212 A  
ENDROOT
BRANCH   3   7
HETATM    7  C   UNL     1     -10.393   9.035  70.929  1.00  0.00    -0.323 A  
HETATM    8  C   UNL     1      -9.970   6.848  71.930  1.00  0.00    -0.171 A  
HETATM    9  C   UNL     1     -11.767   8.121  72.659  1.00  0.00    -0.355 A  
HETATM   10  C   UNL     1      -9.634   7.851  71.010  1.00  0.00    -0.177 A  
HETATM   11  N   UNL     1     -11.047   6.984  72.738  1.00  0.00    -0.282 NA 
HETATM   12  C   UNL     1     -11.477   9.161  71.795  1.00  0.00    -0.452 A  
BRANCH   8  13
HETATM   13  C   UNL     1      -9.182   5.534  72.029  1.00  0.00    -0.154 C  
HETATM   14  F   UNL     1      -9.881   3.677  73.385  1.00  0.00    -0.120 F  
HETATM   15  C   UNL     1      -8.317   5.306  70.762  1.00  0.00    -0.115 C  
HETATM   16  C   UNL     1      -8.197   5.637  73.215  1.00  0.00    -0.117 C  
HETATM   17  F   UNL     1      -9.957   3.387  71.235  1.00  0.00    -0.249 F  
HETATM   18  F   UNL     1     -11.431   4.639  72.216  1.00  0.00    -0.050 F  
HETATM   19  C   UNL     1     -10.118   4.315  72.210  1.00  0.00    -0.182 C  
ENDBRANCH   8  13
ENDBRANCH   3   7
BRANCH   6  20
HETATM   20  N   UNL     1     -10.707  13.150  67.881  1.00  0.00    -0.231 N  
HETATM   21  H   UNL     1     -11.493  13.626  68.323  1.00  0.00     0.000 HD 
BRANCH  20  22
HETATM   22  C   UNL     1     -10.230  13.649  66.695  1.00  0.00    -0.276 C  
HETATM   23  O   UNL     1      -9.118  14.140  66.519  1.00  0.00    -0.246 OA 
BRANCH  22  24
HETATM   24  N   UNL     1     -11.131  13.566  65.642  1.00  0.00    -0.289 N  
HETATM   25  C   UNL     1     -12.265  12.659  65.677  1.00  0.00    -0.411 C  
HETATM   26  C   UNL     1     -12.445  12.253  64.227  1.00  0.00    -0.508 C  
HETATM   27  C   UNL     1     -12.025  13.487  63.434  1.00  0.00    -0.314 C  
HETATM   28  C   UNL     1     -11.044  14.236  64.340  1.00  0.00    -0.220 C  
BRANCH  28  29
HETATM   29  C   UNL     1     -11.440  15.719  64.456  1.00  0.00    -0.289 C  
HETATM   30  N   UNL     1     -10.689  16.485  65.303  1.00  0.00    -0.328 N  
HETATM   31  O   UNL     1     -12.449  16.174  63.924  1.00  0.00    -0.824 OA 
HETATM   32  H1  UNL     1     -10.953  17.468  65.380  1.00  0.00     0.000 HD 
HETATM   33  H2  UNL     1      -9.908  16.095  65.830  1.00  0.00     0.000 HD 
ENDBRANCH  28  29
ENDBRANCH  22  24
ENDBRANCH  20  22
ENDBRANCH   6  20
TORSDOF 6
ENDMDL
MODEL      194
REMARK 921   NORMALIZED FREE ENERGY PREDICTED BY IDOCK:   -5.14 KCAL/MOL
REMARK 922        TOTAL FREE ENERGY PREDICTED BY IDOCK:   -8.03 KCAL/MOL
REMARK 923 INTER-LIGAND FREE ENERGY PREDICTED BY IDOCK:   -7.97 KCAL/MOL
REMARK 924 INTRA-LIGAND FREE ENERGY PREDICTED BY IDOCK:   -0.06 KCAL/MOL
REMARK 927      BINDING AFFINITY PREDICTED BY RF-SCORE:    0.00 PKD
ROOT
HETATM    1  C   UNL     1      -6.645  13.380  69.173  1.00  0.00    -0.106 C  
HETATM    2  C   UNL     1      -7.914  13.861  68.565  1.00  0.00    -0.137 A  
HETATM    3  C   UNL     1      -8.175  15.045  67.870  1.00  0.00    -0.141 A  
HETATM    4  S   UNL     1      -9.865  15.077  67.486  1.00  0.00    -0.216 SA 
HETATM    5  N   UNL     1      -8.995  12.997  68.693  1.00  0.00    -0.024 NA 
HETATM    6  C   UNL     1     -10.055  13.523  68.151  1.00  0.00    -0.250 A  
ENDROOT
BRANCH   3   7
HETATM    7  C   UNL     1      -7.315  16.183  67.484  1.00  0.00    -0.185 A  
HETATM    8  C   UNL     1      -7.001  18.527  66.873  1.00  0.00    -0.197 A  
HETATM    9  C   UNL     1      -5.175  17.097  66.934  1.00  0.00    -0.160 A  
HETATM   10  C   UNL     1      -7.841  17.468  67.248  1.00  0.00    -0.221 A  
HETATM   11  N   UNL     1      -5.673  18.328  66.702  1.00  0.00    -0.138 NA 
HETATM   12  C   UNL     1      -5.940  16.016  67.331  1.00  0.00    -0.160 A  
BRANCH   8  13
HETATM   13  C   UNL     1      -7.541  19.935  66.583  1.00  0.00    -0.293 C  
HETATM   14  F   UNL     1      -9.694  20.344  65.599  1.00  0.00    -0.436 F  
HETATM   15  C   UNL     1      -6.885  20.986  67.516  1.00  0.00    -0.409 C  
HETATM   16  C   UNL     1      -7.145  20.327  65.141  1.00  0.00    -0.170 C  
HETATM   17  F   UNL     1      -9.448  20.943  67.671  1.00  0.00    -0.497 F  
HETATM   18  F   UNL     1      -9.630  18.843  67.160  1.00  0.00    -0.292 F  
HETATM   19  C   UNL     1      -9.075  20.010  66.761  1.00  0.00    -0.363 C  
ENDBRANCH   8  13
ENDBRANCH   3   7
BRANCH   6  20
HETATM   20  N   UNL     1     -11.321  13.023  68.023  1.00  0.00    -0.271 N  
HETATM   21  H   UNL     1     -12.080  13.500  68.509  1.00  0.00     0.000 HD 
BRANCH  20  22
HETATM   22  C   UNL     1     -11.624  11.913  67.276  1.00  0.00    -0.293 C  
HETATM   23  O   UNL     1     -11.895  10.801  67.722  1.00  0.00    -0.538 OA 
BRANCH  22  24
HETATM   24  N   UNL     1     -11.603  12.129  65.904  1.00  0.00    -0.384 N  
HETATM   25  C   UNL     1     -12.170  13.327  65.311  1.00  0.00    -0.448 C  
HETATM   26  C   UNL     1     -12.697  12.849  63.971  1.00  0.00    -0.233 C  
HETATM   27  C   UNL     1     -11.725  11.748  63.555  1.00  0.00    -0.485 C  
HETATM   28  C   UNL     1     -11.149  11.200  64.863  1.00  0.00    -0.047 C  
BRANCH  28  29
HETATM   29  C   UNL     1      -9.612  11.154  64.799  1.00  0.00    -0.240 C  
HETATM   30  N   UNL     1      -9.046  11.383  63.576  1.00  0.00    -0.462 N  
HETATM   31  O   UNL     1      -8.924  10.806  65.754  1.00  0.00    -0.175 OA 
HETATM   32  H1  UNL     1      -8.027  11.352  63.534  1.00  0.00     0.000 HD 
HETATM   33  H2  UNL     1      -9.612  11.575  62.750  1.00  0.00     0.000 HD 
ENDBRANCH  28  29
ENDBRANCH  22  24
ENDBRANCH  20  22
ENDBRANCH   6  20
TORSDOF 6
ENDMDL
MODEL      195
REMARK 921   NORMALIZED FREE ENERGY PREDICTED BY IDOCK:   -5.13 KCAL/MOL
REMARK 922        TOTAL FREE ENERGY PREDICTED BY IDOCK:   -8.03 KCAL/MOL
REMARK 923 INTER-LIGAND FREE ENERGY PREDICTED BY IDOCK:   -7.06 KCAL/MOL
REMARK 924 INTRA-LIGAND FREE ENERGY PREDICTED BY IDOCK:   -0.97 KCAL/MOL
REMARK 927      BINDING AFFINITY PREDICTED BY RF-SCORE:    0.00 PKD
ROOT
HETATM    1  C   UNL     1      -5.666  12.086  68.790  1.00  0.00    -0.050 C  
HETATM    2  C   UNL     1      -7.110  12.286  68.494  1.00  0.00    -0.099 A  
HETATM    3  C   UNL     1      -7.842  13.471  68.392  1.00  0.00    -0.143 A  
HETATM    4  S   UNL     1      -9.501  13.053  68.117  1.00  0.00    -0.210 SA 
HETATM    5  N   UNL     1      -7.833  11.120  68.271  1.00  0.00    -0.116 NA 
HETATM    6  C   UNL     1      -9.083  11.405  68.047  1.00  0.00    -0.171 A  
ENDROOT
BRANCH   3   7
HETATM    7  C   UNL     1      -7.455  14.893  68.510  1.00  0.00    -0.118 A  
HETATM    8  C   UNL     1      -7.960  17.277  68.341  1.00  0.00    -0.253 A  
HETATM    9  C   UNL     1      -5.833  16.590  68.961  1.00  0.00    -0.145 A  
HETATM   10  C   UNL     1      -8.359  15.936  68.230  1.00  0.00    -0.165 A  
HETATM   11  N   UNL     1      -6.692  17.593  68.691  1.00  0.00    -0.208 NA 
HETATM   12  C   UNL     1      -6.165  15.250  68.898  1.00  0.00    -0.094 A  
BRANCH   8  13
HETATM   13  C   UNL     1      -8.909  18.440  68.020  1.00  0.00    -0.302 C  
HETATM   14  F   UNL     1      -8.434  20.107  66.355  1.00  0.00    -0.327 F  
HETATM   15  C   UNL     1     -10.373  18.082  68.385  1.00  0.00    -0.377 C  
HETATM   16  C   UNL     1      -8.524  19.649  68.902  1.00  0.00    -0.230 C  
HETATM   17  F   UNL     1     -10.070  18.747  65.923  1.00  0.00    -0.366 F  
HETATM   18  F   UNL     1      -8.018  18.055  65.795  1.00  0.00    -0.223 F  
HETATM   19  C   UNL     1      -8.857  18.827  66.523  1.00  0.00    -0.312 C  
ENDBRANCH   8  13
ENDBRANCH   3   7
BRANCH   6  20
HETATM   20  N   UNL     1     -10.137  10.584  67.757  1.00  0.00    -0.170 N  
HETATM   21  H   UNL     1     -10.126  10.078  66.872  1.00  0.00     0.000 HD 
BRANCH  20  22
HETATM   22  C   UNL     1     -11.210  10.406  68.593  1.00  0.00    -0.248 C  
HETATM   23  O   UNL     1     -12.275  11.014  68.534  1.00  0.00    -0.582 OA 
BRANCH  22  24
HETATM   24  N   UNL     1     -11.010   9.442  69.573  1.00  0.00    -0.212 N  
HETATM   25  C   UNL     1     -11.666   9.521  70.867  1.00  0.00    -0.317 C  
HETATM   26  C   UNL     1     -10.656   8.910  71.820  1.00  0.00    -0.432 C  
HETATM   27  C   UNL     1      -9.950   7.843  70.988  1.00  0.00    -0.200 C  
HETATM   28  C   UNL     1     -10.073   8.314  69.536  1.00  0.00    -0.197 C  
BRANCH  28  29
HETATM   29  C   UNL     1     -10.611   7.181  68.644  1.00  0.00    -0.189 C  
HETATM   30  N   UNL     1     -10.819   5.973  69.251  1.00  0.00    -0.329 N  
HETATM   31  O   UNL     1     -10.732   7.301  67.428  1.00  0.00    -0.274 OA 
HETATM   32  H1  UNL     1     -11.175   5.223  68.660  1.00  0.00     0.000 HD 
HETATM   33  H2  UNL     1     -10.627   5.832  70.243  1.00  0.00     0.000 HD 
ENDBRANCH  28  29
ENDBRANCH  22  24
ENDBRANCH  20  22
ENDBRANCH   6  20
TORSDOF 6
ENDMDL
MODEL      196
REMARK 921   NORMALIZED FREE ENERGY PREDICTED BY IDOCK:   -5.13 KCAL/MOL
REMARK 922        TOTAL FREE ENERGY PREDICTED BY IDOCK:   -8.02 KCAL/MOL
REMARK 923 INTER-LIGAND FREE ENERGY PREDICTED BY IDOCK:   -6.59 KCAL/MOL
REMARK 924 INTRA-LIGAND FREE ENERGY PREDICTED BY IDOCK:   -1.43 KCAL/MOL
REMARK 927      BINDING AFFINITY PREDICTED BY RF-SCORE:    0.00 PKD
ROOT
HETATM    1  C   UNL     1      -6.404  11.102  67.464  1.00  0.00    -0.065 C  
HETATM    2  C   UNL     1      -7.258   9.915  67.193  1.00  0.00    -0.086 A  
HETATM    3  C   UNL     1      -8.291   9.755  66.266  1.00  0.00    -0.116 A  
HETATM    4  S   UNL     1      -8.967   8.175  66.486  1.00  0.00    -0.168 SA 
HETATM    5  N   UNL     1      -6.974   8.794  67.964  1.00  0.00    -0.077 NA 
HETATM    6  C   UNL     1      -7.791   7.826  67.665  1.00  0.00    -0.123 A  
ENDROOT
BRANCH   3   7
HETATM    7  C   UNL     1      -8.865  10.662  65.249  1.00  0.00    -0.204 A  
HETATM    8  C   UNL     1     -10.331  12.503  64.596  1.00  0.00    -0.317 A  
HETATM    9  C   UNL     1      -9.090  11.390  62.983  1.00  0.00    -0.191 A  
HETATM   10  C   UNL     1      -9.796  11.663  65.585  1.00  0.00    -0.270 A  
HETATM   11  N   UNL     1      -9.985  12.348  63.297  1.00  0.00    -0.312 NA 
HETATM   12  C   UNL     1      -8.503  10.547  63.908  1.00  0.00    -0.120 A  
BRANCH   8  13
HETATM   13  C   UNL     1     -11.368  13.588  64.919  1.00  0.00    -0.347 C  
HETATM   14  F   UNL     1     -11.028  15.280  66.590  1.00  0.00    -0.303 F  
HETATM   15  C   UNL     1     -12.294  13.852  63.704  1.00  0.00    -0.177 C  
HETATM   16  C   UNL     1     -12.280  13.077  66.057  1.00  0.00    -0.463 C  
HETATM   17  F   UNL     1     -11.070  15.953  64.527  1.00  0.00    -0.438 F  
HETATM   18  F   UNL     1      -9.345  14.879  65.286  1.00  0.00    -0.221 F  
HETATM   19  C   UNL     1     -10.697  14.922  65.323  1.00  0.00    -0.393 C  
ENDBRANCH   8  13
ENDBRANCH   3   7
BRANCH   6  20
HETATM   20  N   UNL     1      -7.861   6.550  68.149  1.00  0.00    -0.105 N  
HETATM   21  H   UNL     1      -7.980   5.786  67.483  1.00  0.00     0.000 HD 
BRANCH  20  22
HETATM   22  C   UNL     1      -7.781   6.241  69.483  1.00  0.00    -0.099 C  
HETATM   23  O   UNL     1      -6.826   5.704  70.039  1.00  0.00    -0.055 OA 
BRANCH  22  24
HETATM   24  N   UNL     1      -8.910   6.587  70.215  1.00  0.00    -0.150 N  
HETATM   25  C   UNL     1      -9.683   5.595  70.941  1.00  0.00    -0.173 C  
HETATM   26  C   UNL     1     -11.105   6.116  70.856  1.00  0.00    -0.371 C  
HETATM   27  C   UNL     1     -10.952   7.634  70.858  1.00  0.00    -0.261 C  
HETATM   28  C   UNL     1      -9.558   7.901  70.284  1.00  0.00    -0.171 C  
BRANCH  28  29
HETATM   29  C   UNL     1      -8.770   8.856  71.200  1.00  0.00    -0.222 C  
HETATM   30  N   UNL     1      -7.968   9.772  70.578  1.00  0.00    -0.199 N  
HETATM   31  O   UNL     1      -8.754   8.732  72.421  1.00  0.00    -0.392 OA 
HETATM   32  H1  UNL     1      -7.446  10.404  71.185  1.00  0.00     0.000 HD 
HETATM   33  H2  UNL     1      -7.896   9.820  69.562  1.00  0.00     0.000 HD 
ENDBRANCH  28  29
ENDBRANCH  22  24
ENDBRANCH  20  22
ENDBRANCH   6  20
TORSDOF 6
ENDMDL
MODEL      197
REMARK 921   NORMALIZED FREE ENERGY PREDICTED BY IDOCK:   -5.09 KCAL/MOL
REMARK 922        TOTAL FREE ENERGY PREDICTED BY IDOCK:   -7.97 KCAL/MOL
REMARK 923 INTER-LIGAND FREE ENERGY PREDICTED BY IDOCK:   -6.75 KCAL/MOL
REMARK 924 INTRA-LIGAND FREE ENERGY PREDICTED BY IDOCK:   -1.22 KCAL/MOL
REMARK 927      BINDING AFFINITY PREDICTED BY RF-SCORE:    0.00 PKD
ROOT
HETATM    1  C   UNL     1      -7.618  10.211  65.350  1.00  0.00    -0.144 C  
HETATM    2  C   UNL     1      -8.685  10.119  66.382  1.00  0.00    -0.130 A  
HETATM    3  C   UNL     1      -9.588  11.091  66.819  1.00  0.00    -0.190 A  
HETATM    4  S   UNL     1     -10.527  10.410  68.106  1.00  0.00    -0.204 SA 
HETATM    5  N   UNL     1      -8.813   8.875  66.989  1.00  0.00    -0.125 NA 
HETATM    6  C   UNL     1      -9.753   8.910  67.889  1.00  0.00    -0.160 A  
ENDROOT
BRANCH   3   7
HETATM    7  C   UNL     1      -9.815  12.494  66.410  1.00  0.00    -0.260 A  
HETATM    8  C   UNL     1      -9.676  14.898  66.819  1.00  0.00    -0.251 A  
HETATM    9  C   UNL     1     -10.647  14.115  64.864  1.00  0.00    -0.430 A  
HETATM   10  C   UNL     1      -9.439  13.577  67.229  1.00  0.00    -0.230 A  
HETATM   11  N   UNL     1     -10.295  15.156  65.644  1.00  0.00    -0.328 NA 
HETATM   12  C   UNL     1     -10.421  12.791  65.192  1.00  0.00    -0.320 A  
BRANCH   8  13
HETATM   13  C   UNL     1      -9.305  16.103  67.695  1.00  0.00    -0.214 C  
HETATM   14  F   UNL     1      -7.059  16.576  68.406  1.00  0.00    -0.141 F  
HETATM   15  C   UNL     1     -10.340  17.247  67.534  1.00  0.00    -0.346 C  
HETATM   16  C   UNL     1      -9.360  15.673  69.178  1.00  0.00    -0.252 C  
HETATM   17  F   UNL     1      -7.936  17.964  66.987  1.00  0.00    -0.202 F  
HETATM   18  F   UNL     1      -7.299  15.998  66.332  1.00  0.00    -0.231 F  
HETATM   19  C   UNL     1      -7.904  16.658  67.346  1.00  0.00    -0.165 C  
ENDBRANCH   8  13
ENDBRANCH   3   7
BRANCH   6  20
HETATM   20  N   UNL     1     -10.233   7.922  68.702  1.00  0.00    -0.202 N  
HETATM   21  H   UNL     1     -11.121   7.484  68.457  1.00  0.00     0.000 HD 
BRANCH  20  22
HETATM   22  C   UNL     1      -9.585   7.490  69.831  1.00  0.00    -0.160 C  
HETATM   23  O   UNL     1      -8.394   7.202  69.909  1.00  0.00    -0.131 OA 
BRANCH  22  24
HETATM   24  N   UNL     1     -10.403   7.386  70.949  1.00  0.00    -0.201 N  
HETATM   25  C   UNL     1     -11.741   7.951  70.973  1.00  0.00    -0.277 C  
HETATM   26  C   UNL     1     -11.927   8.374  72.418  1.00  0.00    -0.451 C  
HETATM   27  C   UNL     1     -11.135   7.343  73.217  1.00  0.00    -0.303 C  
HETATM   28  C   UNL     1     -10.050   6.837  72.263  1.00  0.00    -0.173 C  
BRANCH  28  29
HETATM   29  C   UNL     1     -10.035   5.298  72.230  1.00  0.00    -0.177 C  
HETATM   30  N   UNL     1     -11.009   4.663  72.949  1.00  0.00    -0.224 N  
HETATM   31  O   UNL     1      -9.131   4.660  71.698  1.00  0.00    -0.129 OA 
HETATM   32  H1  UNL     1     -10.999   3.644  72.927  1.00  0.00     0.000 HD 
HETATM   33  H2  UNL     1     -11.709   5.183  73.479  1.00  0.00     0.000 HD 
ENDBRANCH  28  29
ENDBRANCH  22  24
ENDBRANCH  20  22
ENDBRANCH   6  20
TORSDOF 6
ENDMDL
MODEL      198
REMARK 921   NORMALIZED FREE ENERGY PREDICTED BY IDOCK:   -5.09 KCAL/MOL
REMARK 922        TOTAL FREE ENERGY PREDICTED BY IDOCK:   -7.97 KCAL/MOL
REMARK 923 INTER-LIGAND FREE ENERGY PREDICTED BY IDOCK:   -7.00 KCAL/MOL
REMARK 924 INTRA-LIGAND FREE ENERGY PREDICTED BY IDOCK:   -0.97 KCAL/MOL
REMARK 927      BINDING AFFINITY PREDICTED BY RF-SCORE:    0.00 PKD
ROOT
HETATM    1  C   UNL     1      -5.763  12.486  67.297  1.00  0.00    -0.084 C  
HETATM    2  C   UNL     1      -7.151  12.491  67.830  1.00  0.00    -0.126 A  
HETATM    3  C   UNL     1      -7.872  13.528  68.427  1.00  0.00    -0.143 A  
HETATM    4  S   UNL     1      -9.408  12.896  68.921  1.00  0.00     0.423 SA 
HETATM    5  N   UNL     1      -7.838  11.290  67.698  1.00  0.00    -0.113 NA 
HETATM    6  C   UNL     1      -9.028  11.395  68.216  1.00  0.00    -0.175 A  
ENDROOT
BRANCH   3   7
HETATM    7  C   UNL     1      -7.536  14.940  68.709  1.00  0.00    -0.135 A  
HETATM    8  C   UNL     1      -7.953  17.335  68.470  1.00  0.00    -0.261 A  
HETATM    9  C   UNL     1      -6.132  16.598  69.704  1.00  0.00    -0.220 A  
HETATM   10  C   UNL     1      -8.302  16.004  68.195  1.00  0.00    -0.160 A  
HETATM   11  N   UNL     1      -6.858  17.622  69.212  1.00  0.00    -0.233 NA 
HETATM   12  C   UNL     1      -6.433  15.266  69.495  1.00  0.00    -0.152 A  
BRANCH   8  13
HETATM   13  C   UNL     1      -8.747  18.521  67.906  1.00  0.00    -0.301 C  
HETATM   14  F   UNL     1     -11.146  18.557  67.771  1.00  0.00    -0.395 F  
HETATM   15  C   UNL     1      -7.943  19.841  68.036  1.00  0.00    -0.337 C  
HETATM   16  C   UNL     1      -8.968  18.294  66.394  1.00  0.00    -0.257 C  
HETATM   17  F   UNL     1     -10.237  19.929  69.186  1.00  0.00    -0.512 F  
HETATM   18  F   UNL     1     -10.309  17.805  69.622  1.00  0.00    -0.265 F  
HETATM   19  C   UNL     1     -10.103  18.701  68.629  1.00  0.00    -0.368 C  
ENDBRANCH   8  13
ENDBRANCH   3   7
BRANCH   6  20
HETATM   20  N   UNL     1     -10.043  10.483  68.286  1.00  0.00    -0.156 N  
HETATM   21  H   UNL     1     -10.723  10.458  67.527  1.00  0.00     0.000 HD 
BRANCH  20  22
HETATM   22  C   UNL     1     -10.196   9.600  69.325  1.00  0.00    -0.205 C  
HETATM   23  O   UNL     1      -9.453   8.656  69.578  1.00  0.00    -0.159 OA 
BRANCH  22  24
HETATM   24  N   UNL     1     -11.308   9.847  70.120  1.00  0.00    -0.266 N  
HETATM   25  C   UNL     1     -12.385  10.715  69.678  1.00  0.00    -0.139 C  
HETATM   26  C   UNL     1     -12.875  11.360  70.960  1.00  0.00    -0.381 C  
HETATM   27  C   UNL     1     -12.671  10.287  72.025  1.00  0.00    -0.397 C  
HETATM   28  C   UNL     1     -11.529   9.411  71.503  1.00  0.00    -0.397 C  
BRANCH  28  29
HETATM   29  C   UNL     1     -11.922   7.923  71.555  1.00  0.00    -0.301 C  
HETATM   30  N   UNL     1     -12.567   7.425  70.457  1.00  0.00    -0.514 N  
HETATM   31  O   UNL     1     -11.786   7.241  72.567  1.00  0.00    -0.270 OA 
HETATM   32  H1  UNL     1     -12.827   6.439  70.492  1.00  0.00     0.000 HD 
HETATM   33  H2  UNL     1     -12.776   8.008  69.647  1.00  0.00     0.000 HD 
ENDBRANCH  28  29
ENDBRANCH  22  24
ENDBRANCH  20  22
ENDBRANCH   6  20
TORSDOF 6
ENDMDL
MODEL      199
REMARK 921   NORMALIZED FREE ENERGY PREDICTED BY IDOCK:   -5.09 KCAL/MOL
REMARK 922        TOTAL FREE ENERGY PREDICTED BY IDOCK:   -7.97 KCAL/MOL
REMARK 923 INTER-LIGAND FREE ENERGY PREDICTED BY IDOCK:   -6.99 KCAL/MOL
REMARK 924 INTRA-LIGAND FREE ENERGY PREDICTED BY IDOCK:   -0.97 KCAL/MOL
REMARK 927      BINDING AFFINITY PREDICTED BY RF-SCORE:    0.00 PKD
ROOT
HETATM    1  C   UNL     1      -5.477  13.159  69.841  1.00  0.00    -0.102 C  
HETATM    2  C   UNL     1      -6.611  13.431  68.918  1.00  0.00    -0.107 A  
HETATM    3  C   UNL     1      -7.057  14.644  68.389  1.00  0.00    -0.116 A  
HETATM    4  S   UNL     1      -8.477  14.327  67.448  1.00  0.00    -0.213 SA 
HETATM    5  N   UNL     1      -7.321  12.308  68.509  1.00  0.00    -0.101 NA 
HETATM    6  C   UNL     1      -8.301  12.658  67.728  1.00  0.00    -0.172 A  
ENDROOT
BRANCH   3   7
HETATM    7  C   UNL     1      -6.567  16.032  68.530  1.00  0.00    -0.123 A  
HETATM    8  C   UNL     1      -6.529  18.375  67.844  1.00  0.00    -0.200 A  
HETATM    9  C   UNL     1      -5.163  17.659  69.577  1.00  0.00    -0.178 A  
HETATM   10  C   UNL     1      -7.019  17.070  67.693  1.00  0.00    -0.161 A  
HETATM   11  N   UNL     1      -5.589  18.657  68.777  1.00  0.00    -0.193 NA 
HETATM   12  C   UNL     1      -5.623  16.357  69.502  1.00  0.00    -0.150 A  
BRANCH   8  13
HETATM   13  C   UNL     1      -6.978  19.528  66.935  1.00  0.00    -0.213 C  
HETATM   14  F   UNL     1      -9.220  19.752  66.100  1.00  0.00    -0.364 F  
HETATM   15  C   UNL     1      -6.081  20.777  67.135  1.00  0.00    -0.302 C  
HETATM   16  C   UNL     1      -6.798  19.094  65.463  1.00  0.00    -0.280 C  
HETATM   17  F   UNL     1      -8.573  21.237  67.545  1.00  0.00    -0.287 F  
HETATM   18  F   UNL     1      -9.031  19.218  68.192  1.00  0.00    -0.316 F  
HETATM   19  C   UNL     1      -8.447  19.932  67.202  1.00  0.00    -0.324 C  
ENDBRANCH   8  13
ENDBRANCH   3   7
BRANCH   6  20
HETATM   20  N   UNL     1      -9.230  11.893  67.080  1.00  0.00    -0.178 N  
HETATM   21  H   UNL     1      -9.610  12.237  66.198  1.00  0.00     0.000 HD 
BRANCH  20  22
HETATM   22  C   UNL     1      -9.679  10.686  67.553  1.00  0.00    -0.166 C  
HETATM   23  O   UNL     1      -9.596   9.610  66.967  1.00  0.00    -0.160 OA 
BRANCH  22  24
HETATM   24  N   UNL     1     -10.272  10.754  68.807  1.00  0.00    -0.184 N  
HETATM   25  C   UNL     1      -9.627  10.206  69.988  1.00  0.00    -0.063 C  
HETATM   26  C   UNL     1     -10.787   9.726  70.840  1.00  0.00    -0.399 C  
HETATM   27  C   UNL     1     -11.911  10.712  70.537  1.00  0.00    -0.446 C  
HETATM   28  C   UNL     1     -11.617  11.243  69.132  1.00  0.00    -0.319 C  
BRANCH  28  29
HETATM   29  C   UNL     1     -11.661  12.782  69.116  1.00  0.00    -0.319 C  
HETATM   30  N   UNL     1     -11.438  13.410  70.310  1.00  0.00    -0.509 N  
HETATM   31  O   UNL     1     -12.001  13.420  68.124  1.00  0.00    -0.349 OA 
HETATM   32  H1  UNL     1     -11.468  14.430  70.299  1.00  0.00     0.000 HD 
HETATM   33  H2  UNL     1     -11.253  12.887  71.165  1.00  0.00     0.000 HD 
ENDBRANCH  28  29
ENDBRANCH  22  24
ENDBRANCH  20  22
ENDBRANCH   6  20
TORSDOF 6
ENDMDL
MODEL      200
REMARK 921   NORMALIZED FREE ENERGY PREDICTED BY IDOCK:   -5.09 KCAL/MOL
REMARK 922        TOTAL FREE ENERGY PREDICTED BY IDOCK:   -7.96 KCAL/MOL
REMARK 923 INTER-LIGAND FREE ENERGY PREDICTED BY IDOCK:   -6.52 KCAL/MOL
REMARK 924 INTRA-LIGAND FREE ENERGY PREDICTED BY IDOCK:   -1.45 KCAL/MOL
REMARK 927      BINDING AFFINITY PREDICTED BY RF-SCORE:    0.00 PKD
ROOT
HETATM    1  C   UNL     1     -11.931  11.463  69.013  1.00  0.00    -0.387 C  
HETATM    2  C   UNL     1     -10.509  11.738  68.673  1.00  0.00    -0.222 A  
HETATM    3  C   UNL     1      -9.400  10.890  68.729  1.00  0.00    -0.185 A  
HETATM    4  S   UNL     1      -7.999  11.813  68.294  1.00  0.00    -0.153 SA 
HETATM    5  N   UNL     1     -10.250  13.025  68.216  1.00  0.00    -0.241 NA 
HETATM    6  C   UNL     1      -8.979  13.166  67.973  1.00  0.00    -0.195 A  
ENDROOT
BRANCH   3   7
HETATM    7  C   UNL     1      -9.253   9.468  69.106  1.00  0.00    -0.163 A  
HETATM    8  C   UNL     1      -9.337   7.663  70.748  1.00  0.00    -0.162 A  
HETATM    9  C   UNL     1      -8.697   7.207  68.566  1.00  0.00    -0.126 A  
HETATM   10  C   UNL     1      -9.494   9.017  70.418  1.00  0.00    -0.247 A  
HETATM   11  N   UNL     1      -8.922   6.769  69.821  1.00  0.00    -0.144 NA 
HETATM   12  C   UNL     1      -8.858   8.520  68.164  1.00  0.00    -0.142 A  
BRANCH   8  13
HETATM   13  C   UNL     1      -9.565   7.137  72.173  1.00  0.00    -0.160 C  
HETATM   14  F   UNL     1     -11.502   7.684  73.485  1.00  0.00    -0.316 F  
HETATM   15  C   UNL     1      -8.805   5.806  72.403  1.00  0.00    -0.131 C  
HETATM   16  C   UNL     1      -8.974   8.154  73.175  1.00  0.00    -0.330 C  
HETATM   17  F   UNL     1     -11.330   5.623  72.828  1.00  0.00    -0.289 F  
HETATM   18  F   UNL     1     -11.870   7.174  71.412  1.00  0.00    -0.279 F  
HETATM   19  C   UNL     1     -11.066   6.902  72.465  1.00  0.00    -0.266 C  
ENDBRANCH   8  13
ENDBRANCH   3   7
BRANCH   6  20
HETATM   20  N   UNL     1      -8.287  14.241  67.490  1.00  0.00    -0.175 N  
HETATM   21  H   UNL     1      -7.590  14.080  66.763  1.00  0.00     0.000 HD 
BRANCH  20  22
HETATM   22  C   UNL     1      -8.481  15.526  67.930  1.00  0.00    -0.143 C  
HETATM   23  O   UNL     1      -8.257  15.935  69.066  1.00  0.00    -0.204 OA 
BRANCH  22  24
HETATM   24  N   UNL     1      -8.977  16.389  66.962  1.00  0.00    -0.204 N  
HETATM   25  C   UNL     1      -8.155  17.433  66.376  1.00  0.00    -0.280 C  
HETATM   26  C   UNL     1      -9.141  18.552  66.099  1.00  0.00    -0.127 C  
HETATM   27  C   UNL     1     -10.444  17.833  65.760  1.00  0.00    -0.199 C  
HETATM   28  C   UNL     1     -10.358  16.482  66.476  1.00  0.00    -0.305 C  
BRANCH  28  29
HETATM   29  C   UNL     1     -10.678  15.334  65.502  1.00  0.00    -0.371 C  
HETATM   30  N   UNL     1     -11.951  14.838  65.541  1.00  0.00    -0.250 N  
HETATM   31  O   UNL     1      -9.816  14.797  64.812  1.00  0.00    -0.119 OA 
HETATM   32  H1  UNL     1     -12.162  14.077  64.896  1.00  0.00     0.000 HD 
HETATM   33  H2  UNL     1     -12.652  15.209  66.182  1.00  0.00     0.000 HD 
ENDBRANCH  28  29
ENDBRANCH  22  24
ENDBRANCH  20  22
ENDBRANCH   6  20
TORSDOF 6
ENDMDL
MODEL      201
REMARK 921   NORMALIZED FREE ENERGY PREDICTED BY IDOCK:   -5.07 KCAL/MOL
REMARK 922        TOTAL FREE ENERGY PREDICTED BY IDOCK:   -7.95 KCAL/MOL
REMARK 923 INTER-LIGAND FREE ENERGY PREDICTED BY IDOCK:   -7.90 KCAL/MOL
REMARK 924 INTRA-LIGAND FREE ENERGY PREDICTED BY IDOCK:   -0.04 KCAL/MOL
REMARK 927      BINDING AFFINITY PREDICTED BY RF-SCORE:    0.00 PKD
ROOT
HETATM    1  C   UNL     1      -7.575  11.038  69.532  1.00  0.00    -0.001 C  
HETATM    2  C   UNL     1      -8.638  11.276  68.519  1.00  0.00    -0.156 A  
HETATM    3  C   UNL     1     -10.017  11.069  68.611  1.00  0.00    -0.199 A  
HETATM    4  S   UNL     1     -10.717  11.447  67.071  1.00  0.00    -0.274 SA 
HETATM    5  N   UNL     1      -8.195  11.796  67.309  1.00  0.00    -0.155 NA 
HETATM    6  C   UNL     1      -9.196  11.941  66.491  1.00  0.00    -0.214 A  
ENDROOT
BRANCH   3   7
HETATM    7  C   UNL     1     -10.880  10.585  69.709  1.00  0.00    -0.335 A  
HETATM    8  C   UNL     1     -11.583   8.856  71.284  1.00  0.00    -0.304 A  
HETATM    9  C   UNL     1     -12.683  10.898  71.247  1.00  0.00    -0.437 A  
HETATM   10  C   UNL     1     -10.743   9.291  70.249  1.00  0.00    -0.284 A  
HETATM   11  N   UNL     1     -12.560   9.659  71.765  1.00  0.00    -0.387 NA 
HETATM   12  C   UNL     1     -11.873  11.401  70.246  1.00  0.00    -0.438 A  
BRANCH   8  13
HETATM   13  C   UNL     1     -11.481   7.445  71.880  1.00  0.00    -0.300 C  
HETATM   14  F   UNL     1     -11.360   5.453  70.541  1.00  0.00    -0.227 F  
HETATM   15  C   UNL     1     -10.853   7.483  73.298  1.00  0.00    -0.409 C  
HETATM   16  C   UNL     1     -12.908   6.877  72.052  1.00  0.00    -0.204 C  
HETATM   17  F   UNL     1      -9.574   5.978  71.658  1.00  0.00    -0.156 F  
HETATM   18  F   UNL     1     -10.126   7.113  69.894  1.00  0.00    -0.183 F  
HETATM   19  C   UNL     1     -10.630   6.506  70.992  1.00  0.00    -0.231 C  
ENDBRANCH   8  13
ENDBRANCH   3   7
BRANCH   6  20
HETATM   20  N   UNL     1      -9.231  12.437  65.217  1.00  0.00    -0.342 N  
HETATM   21  H   UNL     1      -8.345  12.603  64.740  1.00  0.00     0.000 HD 
BRANCH  20  22
HETATM   22  C   UNL     1     -10.393  12.724  64.548  1.00  0.00    -0.349 C  
HETATM   23  O   UNL     1     -10.986  11.966  63.785  1.00  0.00    -0.350 OA 
BRANCH  22  24
HETATM   24  N   UNL     1     -10.890  13.997  64.794  1.00  0.00    -0.404 N  
HETATM   25  C   UNL     1     -12.316  14.275  64.785  1.00  0.00    -0.426 C  
HETATM   26  C   UNL     1     -12.401  15.697  64.262  1.00  0.00     0.076 C  
HETATM   27  C   UNL     1     -11.135  16.368  64.785  1.00  0.00    -0.246 C  
HETATM   28  C   UNL     1     -10.123  15.235  64.971  1.00  0.00    -0.215 C  
BRANCH  28  29
HETATM   29  C   UNL     1      -9.494  15.296  66.375  1.00  0.00    -0.298 C  
HETATM   30  N   UNL     1     -10.354  15.499  67.419  1.00  0.00    -0.261 N  
HETATM   31  O   UNL     1      -8.280  15.292  66.553  1.00  0.00    -0.192 OA 
HETATM   32  H1  UNL     1      -9.937  15.539  68.349  1.00  0.00     0.000 HD 
HETATM   33  H2  UNL     1     -11.358  15.604  67.274  1.00  0.00     0.000 HD 
ENDBRANCH  28  29
ENDBRANCH  22  24
ENDBRANCH  20  22
ENDBRANCH   6  20
TORSDOF 6
ENDMDL
MODEL      202
REMARK 921   NORMALIZED FREE ENERGY PREDICTED BY IDOCK:   -5.03 KCAL/MOL
REMARK 922        TOTAL FREE ENERGY PREDICTED BY IDOCK:   -7.88 KCAL/MOL
REMARK 923 INTER-LIGAND FREE ENERGY PREDICTED BY IDOCK:   -6.79 KCAL/MOL
REMARK 924 INTRA-LIGAND FREE ENERGY PREDICTED BY IDOCK:   -1.10 KCAL/MOL
REMARK 927      BINDING AFFINITY PREDICTED BY RF-SCORE:    0.00 PKD
ROOT
HETATM    1  C   UNL     1      -6.424  13.534  69.167  1.00  0.00    -0.108 C  
HETATM    2  C   UNL     1      -7.442  13.086  68.180  1.00  0.00    -0.130 A  
HETATM    3  C   UNL     1      -8.658  13.676  67.826  1.00  0.00    -0.182 A  
HETATM    4  S   UNL     1      -9.443  12.636  66.683  1.00  0.00    -0.243 SA 
HETATM    5  N   UNL     1      -7.128  11.917  67.498  1.00  0.00    -0.112 NA 
HETATM    6  C   UNL     1      -8.092  11.603  66.681  1.00  0.00    -0.121 A  
ENDROOT
BRANCH   3   7
HETATM    7  C   UNL     1      -9.328  14.917  68.268  1.00  0.00    -0.195 A  
HETATM    8  C   UNL     1      -9.468  17.352  68.396  1.00  0.00    -0.293 A  
HETATM    9  C   UNL     1     -11.072  16.048  69.448  1.00  0.00    -0.331 A  
HETATM   10  C   UNL     1      -8.816  16.192  67.955  1.00  0.00    -0.182 A  
HETATM   11  N   UNL     1     -10.586  17.270  69.156  1.00  0.00    -0.287 NA 
HETATM   12  C   UNL     1     -10.497  14.865  69.024  1.00  0.00    -0.247 A  
BRANCH   8  13
HETATM   13  C   UNL     1      -8.927  18.758  68.098  1.00  0.00    -0.337 C  
HETATM   14  F   UNL     1      -7.532  19.985  69.622  1.00  0.00    -0.295 F  
HETATM   15  C   UNL     1      -8.837  19.007  66.570  1.00  0.00    -0.334 C  
HETATM   16  C   UNL     1      -9.926  19.799  68.650  1.00  0.00    -0.535 C  
HETATM   17  F   UNL     1      -6.595  19.309  67.784  1.00  0.00    -0.221 F  
HETATM   18  F   UNL     1      -7.044  17.890  69.361  1.00  0.00    -0.242 F  
HETATM   19  C   UNL     1      -7.524  18.976  68.713  1.00  0.00    -0.333 C  
ENDBRANCH   8  13
ENDBRANCH   3   7
BRANCH   6  20
HETATM   20  N   UNL     1      -8.200  10.561  65.803  1.00  0.00    -0.157 N  
HETATM   21  H   UNL     1      -7.403  10.349  65.203  1.00  0.00     0.000 HD 
BRANCH  20  22
HETATM   22  C   UNL     1      -9.325   9.784  65.685  1.00  0.00    -0.227 C  
HETATM   23  O   UNL     1     -10.105   9.791  64.737  1.00  0.00    -0.129 OA 
BRANCH  22  24
HETATM   24  N   UNL     1      -9.547   8.940  66.766  1.00  0.00    -0.183 N  
HETATM   25  C   UNL     1     -10.626   9.175  67.710  1.00  0.00    -0.227 C  
HETATM   26  C   UNL     1     -10.066   8.672  69.027  1.00  0.00    -0.207 C  
HETATM   27  C   UNL     1      -9.160   7.509  68.632  1.00  0.00    -0.134 C  
HETATM   28  C   UNL     1      -8.719   7.808  67.197  1.00  0.00    -0.125 C  
BRANCH  28  29
HETATM   29  C   UNL     1      -8.950   6.582  66.294  1.00  0.00    -0.156 C  
HETATM   30  N   UNL     1     -10.215   6.064  66.283  1.00  0.00    -0.412 N  
HETATM   31  O   UNL     1      -8.032   6.013  65.710  1.00  0.00    -0.103 OA 
HETATM   32  H1  UNL     1     -10.367   5.252  65.685  1.00  0.00     0.000 HD 
HETATM   33  H2  UNL     1     -10.965   6.468  66.843  1.00  0.00     0.000 HD 
ENDBRANCH  28  29
ENDBRANCH  22  24
ENDBRANCH  20  22
ENDBRANCH   6  20
TORSDOF 6
ENDMDL
MODEL      203
REMARK 921   NORMALIZED FREE ENERGY PREDICTED BY IDOCK:   -5.02 KCAL/MOL
REMARK 922        TOTAL FREE ENERGY PREDICTED BY IDOCK:   -7.88 KCAL/MOL
REMARK 923 INTER-LIGAND FREE ENERGY PREDICTED BY IDOCK:   -6.94 KCAL/MOL
REMARK 924 INTRA-LIGAND FREE ENERGY PREDICTED BY IDOCK:   -0.94 KCAL/MOL
REMARK 927      BINDING AFFINITY PREDICTED BY RF-SCORE:    0.00 PKD
ROOT
HETATM    1  C   UNL     1     -11.984  13.792  65.371  1.00  0.00    -0.395 C  
HETATM    2  C   UNL     1     -10.760  13.315  66.068  1.00  0.00    -0.277 A  
HETATM    3  C   UNL     1     -10.023  13.922  67.088  1.00  0.00    -0.239 A  
HETATM    4  S   UNL     1      -8.649  12.920  67.423  1.00  0.00    -0.204 SA 
HETATM    5  N   UNL     1     -10.290  12.074  65.654  1.00  0.00    -0.244 NA 
HETATM    6  C   UNL     1      -9.207  11.765  66.306  1.00  0.00    -0.221 A  
ENDROOT
BRANCH   3   7
HETATM    7  C   UNL     1     -10.203  15.189  67.827  1.00  0.00    -0.236 A  
HETATM    8  C   UNL     1     -10.117  17.626  67.962  1.00  0.00    -0.343 A  
HETATM    9  C   UNL     1     -10.750  16.390  69.820  1.00  0.00    -0.324 A  
HETATM   10  C   UNL     1      -9.947  16.440  67.233  1.00  0.00    -0.258 A  
HETATM   11  N   UNL     1     -10.503  17.591  69.259  1.00  0.00    -0.237 NA 
HETATM   12  C   UNL     1     -10.629  15.185  69.154  1.00  0.00    -0.256 A  
BRANCH   8  13
HETATM   13  C   UNL     1      -9.824  19.006  67.357  1.00  0.00    -0.386 C  
HETATM   14  F   UNL     1      -7.860  20.287  67.886  1.00  0.00    -0.321 F  
HETATM   15  C   UNL     1     -10.534  19.177  65.989  1.00  0.00    -0.546 C  
HETATM   16  C   UNL     1     -10.411  20.090  68.290  1.00  0.00    -0.494 C  
HETATM   17  F   UNL     1      -7.991  19.507  65.865  1.00  0.00    -0.310 F  
HETATM   18  F   UNL     1      -7.549  18.175  67.518  1.00  0.00    -0.205 F  
HETATM   19  C   UNL     1      -8.307  19.234  67.154  1.00  0.00    -0.280 C  
ENDBRANCH   8  13
ENDBRANCH   3   7
BRANCH   6  20
HETATM   20  N   UNL     1      -8.430  10.642  66.244  1.00  0.00    -0.150 N  
HETATM   21  H   UNL     1      -7.436  10.731  66.456  1.00  0.00     0.000 HD 
BRANCH  20  22
HETATM   22  C   UNL     1      -8.915   9.403  65.911  1.00  0.00    -0.178 C  
HETATM   23  O   UNL     1      -9.271   9.050  64.790  1.00  0.00    -0.123 OA 
BRANCH  22  24
HETATM   24  N   UNL     1      -8.988   8.517  66.978  1.00  0.00    -0.134 N  
HETATM   25  C   UNL     1      -9.297   8.967  68.324  1.00  0.00    -0.143 C  
HETATM   26  C   UNL     1      -8.506   8.022  69.209  1.00  0.00    -0.136 C  
HETATM   27  C   UNL     1      -8.505   6.701  68.444  1.00  0.00    -0.125 C  
HETATM   28  C   UNL     1      -8.667   7.086  66.971  1.00  0.00    -0.123 C  
BRANCH  28  29
HETATM   29  C   UNL     1      -9.799   6.271  66.321  1.00  0.00    -0.009 C  
HETATM   30  N   UNL     1     -10.867   5.967  67.119  1.00  0.00    -0.433 N  
HETATM   31  O   UNL     1      -9.708   5.804  65.189  1.00  0.00     0.385 OA 
HETATM   32  H1  UNL     1     -11.617   5.427  66.688  1.00  0.00     0.000 HD 
HETATM   33  H2  UNL     1     -10.910   6.264  68.094  1.00  0.00     0.000 HD 
ENDBRANCH  28  29
ENDBRANCH  22  24
ENDBRANCH  20  22
ENDBRANCH   6  20
TORSDOF 6
ENDMDL
MODEL      204
REMARK 921   NORMALIZED FREE ENERGY PREDICTED BY IDOCK:   -5.02 KCAL/MOL
REMARK 922        TOTAL FREE ENERGY PREDICTED BY IDOCK:   -7.88 KCAL/MOL
REMARK 923 INTER-LIGAND FREE ENERGY PREDICTED BY IDOCK:   -6.73 KCAL/MOL
REMARK 924 INTRA-LIGAND FREE ENERGY PREDICTED BY IDOCK:   -1.14 KCAL/MOL
REMARK 927      BINDING AFFINITY PREDICTED BY RF-SCORE:    0.00 PKD
ROOT
HETATM    1  C   UNL     1     -12.189  12.814  65.727  1.00  0.00    -0.469 C  
HETATM    2  C   UNL     1     -10.987  12.416  66.507  1.00  0.00    -0.272 A  
HETATM    3  C   UNL     1     -10.266  13.138  67.461  1.00  0.00    -0.225 A  
HETATM    4  S   UNL     1      -8.912  12.174  67.951  1.00  0.00    -0.191 SA 
HETATM    5  N   UNL     1     -10.523  11.129  66.261  1.00  0.00    -0.253 NA 
HETATM    6  C   UNL     1      -9.459  10.894  66.973  1.00  0.00    -0.164 A  
ENDROOT
BRANCH   3   7
HETATM    7  C   UNL     1     -10.447  14.490  68.033  1.00  0.00    -0.236 A  
HETATM    8  C   UNL     1      -9.923  16.874  68.114  1.00  0.00    -0.285 A  
HETATM    9  C   UNL     1     -11.444  15.975  69.618  1.00  0.00    -0.326 A  
HETATM   10  C   UNL     1      -9.738  15.605  67.546  1.00  0.00    -0.222 A  
HETATM   11  N   UNL     1     -10.765  17.046  69.160  1.00  0.00    -0.303 NA 
HETATM   12  C   UNL     1     -11.331  14.703  69.088  1.00  0.00    -0.305 A  
BRANCH   8  13
HETATM   13  C   UNL     1      -9.149  18.108  67.629  1.00  0.00    -0.260 C  
HETATM   14  F   UNL     1      -8.050  19.643  69.115  1.00  0.00    -0.388 F  
HETATM   15  C   UNL     1      -8.638  17.909  66.178  1.00  0.00    -0.130 C  
HETATM   16  C   UNL     1     -10.115  19.313  67.588  1.00  0.00    -0.485 C  
HETATM   17  F   UNL     1      -6.765  18.429  67.855  1.00  0.00    -0.202 F  
HETATM   18  F   UNL     1      -7.781  17.538  69.552  1.00  0.00    -0.081 F  
HETATM   19  C   UNL     1      -7.936  18.419  68.538  1.00  0.00    -0.314 C  
ENDBRANCH   8  13
ENDBRANCH   3   7
BRANCH   6  20
HETATM   20  N   UNL     1      -8.694   9.765  67.069  1.00  0.00    -0.134 N  
HETATM   21  H   UNL     1      -8.040   9.559  66.314  1.00  0.00     0.000 HD 
BRANCH  20  22
HETATM   22  C   UNL     1      -8.758   8.895  68.127  1.00  0.00    -0.134 C  
HETATM   23  O   UNL     1      -8.409   9.139  69.279  1.00  0.00    -0.116 OA 
BRANCH  22  24
HETATM   24  N   UNL     1      -9.269   7.644  67.803  1.00  0.00    -0.136 N  
HETATM   25  C   UNL     1     -10.675   7.450  67.496  1.00  0.00    -0.240 C  
HETATM   26  C   UNL     1     -10.966   6.055  68.017  1.00  0.00    -0.340 C  
HETATM   27  C   UNL     1      -9.661   5.293  67.806  1.00  0.00    -0.157 C  
HETATM   28  C   UNL     1      -8.562   6.359  67.829  1.00  0.00    -0.116 C  
BRANCH  28  29
HETATM   29  C   UNL     1      -7.641   6.213  66.604  1.00  0.00    -0.095 C  
HETATM   30  N   UNL     1      -6.370   6.698  66.736  1.00  0.00    -0.040 N  
HETATM   31  O   UNL     1      -8.048   5.801  65.521  1.00  0.00    -0.115 OA 
HETATM   32  H1  UNL     1      -5.761   6.601  65.924  1.00  0.00     0.000 HD 
HETATM   33  H2  UNL     1      -6.049   7.134  67.600  1.00  0.00     0.000 HD 
ENDBRANCH  28  29
ENDBRANCH  22  24
ENDBRANCH  20  22
ENDBRANCH   6  20
TORSDOF 6
ENDMDL
MODEL      205
REMARK 921   NORMALIZED FREE ENERGY PREDICTED BY IDOCK:   -5.02 KCAL/MOL
REMARK 922        TOTAL FREE ENERGY PREDICTED BY IDOCK:   -7.87 KCAL/MOL
REMARK 923 INTER-LIGAND FREE ENERGY PREDICTED BY IDOCK:   -6.95 KCAL/MOL
REMARK 924 INTRA-LIGAND FREE ENERGY PREDICTED BY IDOCK:   -0.92 KCAL/MOL
REMARK 927      BINDING AFFINITY PREDICTED BY RF-SCORE:    0.00 PKD
ROOT
HETATM    1  C   UNL     1     -12.735  11.041  71.050  1.00  0.00    -0.485 C  
HETATM    2  C   UNL     1     -11.569  10.852  70.147  1.00  0.00    -0.338 A  
HETATM    3  C   UNL     1     -10.891  11.786  69.361  1.00  0.00    -0.064 A  
HETATM    4  S   UNL     1      -9.673  10.944  68.460  1.00  0.00    -0.188 SA 
HETATM    5  N   UNL     1     -11.069   9.556  70.092  1.00  0.00    -0.247 NA 
HETATM    6  C   UNL     1     -10.071   9.496  69.259  1.00  0.00    -0.198 A  
ENDROOT
BRANCH   3   7
HETATM    7  C   UNL     1     -11.067  13.242  69.171  1.00  0.00    -0.259 A  
HETATM    8  C   UNL     1     -10.448  15.361  68.127  1.00  0.00    -0.247 A  
HETATM    9  C   UNL     1     -12.145  15.307  69.707  1.00  0.00    -0.328 A  
HETATM   10  C   UNL     1     -10.265  13.979  68.278  1.00  0.00    -0.249 A  
HETATM   11  N   UNL     1     -11.379  16.019  68.857  1.00  0.00    -0.357 NA 
HETATM   12  C   UNL     1     -12.038  13.940  69.886  1.00  0.00    -0.406 A  
BRANCH   8  13
HETATM   13  C   UNL     1      -9.577  16.202  67.183  1.00  0.00    -0.235 C  
HETATM   14  F   UNL     1      -9.020  18.502  67.601  1.00  0.00    -0.263 F  
HETATM   15  C   UNL     1      -8.634  15.301  66.344  1.00  0.00    -0.197 C  
HETATM   16  C   UNL     1     -10.498  16.925  66.174  1.00  0.00    -0.276 C  
HETATM   17  F   UNL     1      -7.389  17.074  67.721  1.00  0.00    -0.150 F  
HETATM   18  F   UNL     1      -8.875  17.163  69.299  1.00  0.00    -0.185 F  
HETATM   19  C   UNL     1      -8.715  17.227  67.957  1.00  0.00    -0.231 C  
ENDBRANCH   8  13
ENDBRANCH   3   7
BRANCH   6  20
HETATM   20  N   UNL     1      -9.272   8.442  68.913  1.00  0.00    -0.147 N  
HETATM   21  H   UNL     1      -8.348   8.641  68.531  1.00  0.00     0.000 HD 
BRANCH  20  22
HETATM   22  C   UNL     1      -9.648   7.130  69.053  1.00  0.00    -0.146 C  
HETATM   23  O   UNL     1     -10.152   6.431  68.178  1.00  0.00    -0.133 OA 
BRANCH  22  24
HETATM   24  N   UNL     1      -9.413   6.605  70.317  1.00  0.00    -0.162 N  
HETATM   25  C   UNL     1      -8.200   6.905  71.056  1.00  0.00    -0.118 C  
HETATM   26  C   UNL     1      -7.935   5.636  71.843  1.00  0.00    -0.111 C  
HETATM   27  C   UNL     1      -9.325   5.087  72.153  1.00  0.00    -0.163 C  
HETATM   28  C   UNL     1     -10.228   5.621  71.038  1.00  0.00    -0.220 C  
BRANCH  28  29
HETATM   29  C   UNL     1     -11.487   6.279  71.633  1.00  0.00    -0.296 C  
HETATM   30  N   UNL     1     -12.473   6.616  70.748  1.00  0.00    -0.368 N  
HETATM   31  O   UNL     1     -11.564   6.605  72.814  1.00  0.00    -0.187 OA 
HETATM   32  H1  UNL     1     -13.307   7.052  71.142  1.00  0.00     0.000 HD 
HETATM   33  H2  UNL     1     -12.380   6.441  69.748  1.00  0.00     0.000 HD 
ENDBRANCH  28  29
ENDBRANCH  22  24
ENDBRANCH  20  22
ENDBRANCH   6  20
TORSDOF 6
ENDMDL
MODEL      206
REMARK 921   NORMALIZED FREE ENERGY PREDICTED BY IDOCK:   -5.02 KCAL/MOL
REMARK 922        TOTAL FREE ENERGY PREDICTED BY IDOCK:   -7.87 KCAL/MOL
REMARK 923 INTER-LIGAND FREE ENERGY PREDICTED BY IDOCK:   -6.77 KCAL/MOL
REMARK 924 INTRA-LIGAND FREE ENERGY PREDICTED BY IDOCK:   -1.10 KCAL/MOL
REMARK 927      BINDING AFFINITY PREDICTED BY RF-SCORE:    0.00 PKD
ROOT
HETATM    1  C   UNL     1     -10.855  11.076  64.690  1.00  0.00    -0.248 C  
HETATM    2  C   UNL     1     -10.720  12.346  65.453  1.00  0.00    -0.282 A  
HETATM    3  C   UNL     1     -10.736  12.561  66.833  1.00  0.00    -0.243 A  
HETATM    4  S   UNL     1     -10.624  14.268  67.109  1.00  0.00    -0.281 SA 
HETATM    5  N   UNL     1     -10.533  13.484  64.677  1.00  0.00    -0.421 NA 
HETATM    6  C   UNL     1     -10.452  14.536  65.438  1.00  0.00    -0.380 A  
ENDROOT
BRANCH   3   7
HETATM    7  C   UNL     1     -10.863  11.640  67.982  1.00  0.00    -0.259 A  
HETATM    8  C   UNL     1      -9.994   9.862  69.414  1.00  0.00    -0.212 A  
HETATM    9  C   UNL     1     -12.107  10.734  69.811  1.00  0.00    -0.318 A  
HETATM   10  C   UNL     1      -9.842  10.731  68.324  1.00  0.00    -0.177 A  
HETATM   11  N   UNL     1     -11.136   9.859  70.141  1.00  0.00    -0.276 NA 
HETATM   12  C   UNL     1     -12.013  11.636  68.768  1.00  0.00    -0.326 A  
BRANCH   8  13
HETATM   13  C   UNL     1      -8.916   8.840  69.801  1.00  0.00    -0.146 C  
HETATM   14  F   UNL     1      -9.387   6.523  70.228  1.00  0.00    -0.154 F  
HETATM   15  C   UNL     1      -7.521   9.281  69.285  1.00  0.00    -0.075 C  
HETATM   16  C   UNL     1      -8.813   8.790  71.342  1.00  0.00    -0.292 C  
HETATM   17  F   UNL     1      -8.232   6.962  68.444  1.00  0.00    -0.114 F  
HETATM   18  F   UNL     1     -10.358   7.388  68.495  1.00  0.00    -0.180 F  
HETATM   19  C   UNL     1      -9.226   7.434  69.235  1.00  0.00    -0.147 C  
ENDBRANCH   8  13
ENDBRANCH   3   7
BRANCH   6  20
HETATM   20  N   UNL     1     -10.247  15.848  65.112  1.00  0.00    -0.255 N  
HETATM   21  H   UNL     1     -10.769  16.238  64.328  1.00  0.00     0.000 HD 
BRANCH  20  22
HETATM   22  C   UNL     1      -9.374  16.667  65.782  1.00  0.00    -0.032 C  
HETATM   23  O   UNL     1      -8.162  16.495  65.882  1.00  0.00    -0.345 OA 
BRANCH  22  24
HETATM   24  N   UNL     1      -9.975  17.766  66.382  1.00  0.00    -0.334 N  
HETATM   25  C   UNL     1     -10.839  18.665  65.637  1.00  0.00     0.030 C  
HETATM   26  C   UNL     1     -10.593  20.015  66.282  1.00  0.00    -0.462 C  
HETATM   27  C   UNL     1     -10.316  19.690  67.747  1.00  0.00    -0.586 C  
HETATM   28  C   UNL     1      -9.766  18.261  67.747  1.00  0.00    -0.297 C  
BRANCH  28  29
HETATM   29  C   UNL     1     -10.521  17.392  68.769  1.00  0.00    -0.333 C  
HETATM   30  N   UNL     1      -9.822  17.015  69.882  1.00  0.00     0.398 N  
HETATM   31  O   UNL     1     -11.645  16.948  68.553  1.00  0.00    -0.017 OA 
HETATM   32  H1  UNL     1     -10.322  16.438  70.559  1.00  0.00     0.000 HD 
HETATM   33  H2  UNL     1      -8.852  17.295  70.027  1.00  0.00     0.000 HD 
ENDBRANCH  28  29
ENDBRANCH  22  24
ENDBRANCH  20  22
ENDBRANCH   6  20
TORSDOF 6
ENDMDL
MODEL      207
REMARK 921   NORMALIZED FREE ENERGY PREDICTED BY IDOCK:   -5.00 KCAL/MOL
REMARK 922        TOTAL FREE ENERGY PREDICTED BY IDOCK:   -7.85 KCAL/MOL
REMARK 923 INTER-LIGAND FREE ENERGY PREDICTED BY IDOCK:   -6.91 KCAL/MOL
REMARK 924 INTRA-LIGAND FREE ENERGY PREDICTED BY IDOCK:   -0.95 KCAL/MOL
REMARK 927      BINDING AFFINITY PREDICTED BY RF-SCORE:    0.00 PKD
ROOT
HETATM    1  C   UNL     1      -9.932   6.889  66.528  1.00  0.00    -0.150 C  
HETATM    2  C   UNL     1      -9.118   7.859  67.309  1.00  0.00    -0.135 A  
HETATM    3  C   UNL     1      -8.878   9.214  67.070  1.00  0.00    -0.123 A  
HETATM    4  S   UNL     1      -7.777   9.783  68.282  1.00  0.00    -0.085 SA 
HETATM    5  N   UNL     1      -8.523   7.343  68.454  1.00  0.00    -0.125 NA 
HETATM    6  C   UNL     1      -7.818   8.263  69.045  1.00  0.00    -0.103 A  
ENDROOT
BRANCH   3   7
HETATM    7  C   UNL     1      -9.347  10.137  66.015  1.00  0.00    -0.216 A  
HETATM    8  C   UNL     1     -10.361  12.240  65.297  1.00  0.00    -0.281 A  
HETATM    9  C   UNL     1      -9.730  10.666  63.715  1.00  0.00    -0.327 A  
HETATM   10  C   UNL     1      -9.916  11.389  66.320  1.00  0.00    -0.259 A  
HETATM   11  N   UNL     1     -10.279  11.863  64.000  1.00  0.00    -0.331 NA 
HETATM   12  C   UNL     1      -9.246   9.790  64.669  1.00  0.00    -0.312 A  
BRANCH   8  13
HETATM   13  C   UNL     1     -11.011  13.600  65.591  1.00  0.00    -0.294 C  
HETATM   14  F   UNL     1     -12.436  14.745  64.032  1.00  0.00    -0.515 F  
HETATM   15  C   UNL     1     -11.170  13.822  67.118  1.00  0.00    -0.327 C  
HETATM   16  C   UNL     1     -10.070  14.716  65.085  1.00  0.00    -0.359 C  
HETATM   17  F   UNL     1     -13.385  13.982  65.829  1.00  0.00    -0.501 F  
HETATM   18  F   UNL     1     -12.783  12.618  64.254  1.00  0.00    -0.464 F  
HETATM   19  C   UNL     1     -12.403  13.726  64.929  1.00  0.00    -0.405 C  
ENDBRANCH   8  13
ENDBRANCH   3   7
BRANCH   6  20
HETATM   20  N   UNL     1      -7.092   8.212  70.202  1.00  0.00    -0.047 N  
HETATM   21  H   UNL     1      -6.548   9.032  70.468  1.00  0.00     0.000 HD 
BRANCH  20  22
HETATM   22  C   UNL     1      -7.056   7.114  71.025  1.00  0.00    -0.069 C  
HETATM   23  O   UNL     1      -6.173   6.261  71.043  1.00  0.00    -0.037 OA 
BRANCH  22  24
HETATM   24  N   UNL     1      -8.141   7.015  71.886  1.00  0.00    -0.099 N  
HETATM   25  C   UNL     1      -8.758   8.191  72.476  1.00  0.00    -0.203 C  
HETATM   26  C   UNL     1      -9.222   7.707  73.837  1.00  0.00    -0.303 C  
HETATM   27  C   UNL     1      -9.594   6.244  73.611  1.00  0.00    -0.168 C  
HETATM   28  C   UNL     1      -8.745   5.790  72.421  1.00  0.00    -0.128 C  
BRANCH  28  29
HETATM   29  C   UNL     1      -9.625   5.102  71.361  1.00  0.00    -0.161 C  
HETATM   30  N   UNL     1     -10.216   5.919  70.437  1.00  0.00    -0.199 N  
HETATM   31  O   UNL     1      -9.895   3.905  71.405  1.00  0.00    -0.182 OA 
HETATM   32  H1  UNL     1     -10.799   5.463  69.735  1.00  0.00     0.000 HD 
HETATM   33  H2  UNL     1     -10.080   6.929  70.449  1.00  0.00     0.000 HD 
ENDBRANCH  28  29
ENDBRANCH  22  24
ENDBRANCH  20  22
ENDBRANCH   6  20
TORSDOF 6
ENDMDL
MODEL      208
REMARK 921   NORMALIZED FREE ENERGY PREDICTED BY IDOCK:   -4.99 KCAL/MOL
REMARK 922        TOTAL FREE ENERGY PREDICTED BY IDOCK:   -7.83 KCAL/MOL
REMARK 923 INTER-LIGAND FREE ENERGY PREDICTED BY IDOCK:   -6.82 KCAL/MOL
REMARK 924 INTRA-LIGAND FREE ENERGY PREDICTED BY IDOCK:   -1.01 KCAL/MOL
REMARK 927      BINDING AFFINITY PREDICTED BY RF-SCORE:    0.00 PKD
ROOT
HETATM    1  C   UNL     1     -11.536  15.023  64.499  1.00  0.00    -0.346 C  
HETATM    2  C   UNL     1     -10.705  14.676  65.682  1.00  0.00    -0.332 A  
HETATM    3  C   UNL     1     -10.005  13.500  65.965  1.00  0.00    -0.299 A  
HETATM    4  S   UNL     1      -9.299  13.664  67.539  1.00  0.00    -0.234 SA 
HETATM    5  N   UNL     1     -10.595  15.677  66.640  1.00  0.00    -0.306 NA 
HETATM    6  C   UNL     1      -9.871  15.263  67.639  1.00  0.00    -0.217 A  
ENDROOT
BRANCH   3   7
HETATM    7  C   UNL     1      -9.827  12.242  65.210  1.00  0.00    -0.199 A  
HETATM    8  C   UNL     1      -9.148   9.900  65.068  1.00  0.00    -0.218 A  
HETATM    9  C   UNL     1      -9.941  10.987  63.178  1.00  0.00    -0.340 A  
HETATM   10  C   UNL     1      -9.315  11.077  65.813  1.00  0.00    -0.236 A  
HETATM   11  N   UNL     1      -9.447   9.870  63.749  1.00  0.00    -0.218 NA 
HETATM   12  C   UNL     1     -10.157  12.171  63.858  1.00  0.00    -0.387 A  
BRANCH   8  13
HETATM   13  C   UNL     1      -8.568   8.619  65.684  1.00  0.00    -0.191 C  
HETATM   14  F   UNL     1      -9.124   7.849  67.891  1.00  0.00    -0.131 F  
HETATM   15  C   UNL     1      -8.140   7.616  64.582  1.00  0.00    -0.112 C  
HETATM   16  C   UNL     1      -7.284   8.982  66.463  1.00  0.00    -0.085 C  
HETATM   17  F   UNL     1      -9.845   6.643  66.236  1.00  0.00    -0.201 F  
HETATM   18  F   UNL     1     -10.780   8.549  66.682  1.00  0.00    -0.350 F  
HETATM   19  C   UNL     1      -9.585   7.918  66.616  1.00  0.00    -0.226 C  
ENDBRANCH   8  13
ENDBRANCH   3   7
BRANCH   6  20
HETATM   20  N   UNL     1      -9.483  15.913  68.778  1.00  0.00    -0.209 N  
HETATM   21  H   UNL     1      -8.905  15.408  69.449  1.00  0.00     0.000 HD 
BRANCH  20  22
HETATM   22  C   UNL     1      -9.831  17.209  69.065  1.00  0.00    -0.240 C  
HETATM   23  O   UNL     1     -10.703  17.559  69.855  1.00  0.00     0.173 OA 
BRANCH  22  24
HETATM   24  N   UNL     1      -9.098  18.160  68.367  1.00  0.00    -0.302 N  
HETATM   25  C   UNL     1      -7.669  18.017  68.151  1.00  0.00    -0.272 C  
HETATM   26  C   UNL     1      -7.159  19.445  68.164  1.00  0.00    -0.310 C  
HETATM   27  C   UNL     1      -8.303  20.261  67.568  1.00  0.00    -0.365 C  
HETATM   28  C   UNL     1      -9.571  19.455  67.863  1.00  0.00    -0.343 C  
BRANCH  28  29
HETATM   29  C   UNL     1     -10.406  19.275  66.582  1.00  0.00    -0.438 C  
HETATM   30  N   UNL     1      -9.983  18.311  65.710  1.00  0.00    -0.056 N  
HETATM   31  O   UNL     1     -11.327  20.030  66.286  1.00  0.00     0.170 OA 
HETATM   32  H1  UNL     1     -10.536  18.192  64.861  1.00  0.00     0.000 HD 
HETATM   33  H2  UNL     1      -9.158  17.742  65.897  1.00  0.00     0.000 HD 
ENDBRANCH  28  29
ENDBRANCH  22  24
ENDBRANCH  20  22
ENDBRANCH   6  20
TORSDOF 6
ENDMDL
MODEL      209
REMARK 921   NORMALIZED FREE ENERGY PREDICTED BY IDOCK:   -4.96 KCAL/MOL
REMARK 922        TOTAL FREE ENERGY PREDICTED BY IDOCK:   -7.80 KCAL/MOL
REMARK 923 INTER-LIGAND FREE ENERGY PREDICTED BY IDOCK:   -6.69 KCAL/MOL
REMARK 924 INTRA-LIGAND FREE ENERGY PREDICTED BY IDOCK:   -1.11 KCAL/MOL
REMARK 927      BINDING AFFINITY PREDICTED BY RF-SCORE:    0.00 PKD
ROOT
HETATM    1  C   UNL     1      -7.551  12.658  68.503  1.00  0.00    -0.121 C  
HETATM    2  C   UNL     1      -8.665  11.685  68.665  1.00  0.00    -0.083 A  
HETATM    3  C   UNL     1      -9.999  11.909  69.014  1.00  0.00     0.100 A  
HETATM    4  S   UNL     1     -10.787  10.369  69.128  1.00  0.00    -0.252 SA 
HETATM    5  N   UNL     1      -8.330  10.359  68.416  1.00  0.00    -0.115 NA 
HETATM    6  C   UNL     1      -9.365   9.593  68.610  1.00  0.00    -0.143 A  
ENDROOT
BRANCH   3   7
HETATM    7  C   UNL     1     -10.757  13.143  69.309  1.00  0.00     0.022 A  
HETATM    8  C   UNL     1     -12.313  14.430  70.683  1.00  0.00    -0.351 A  
HETATM    9  C   UNL     1     -11.421  15.373  68.760  1.00  0.00    -0.341 A  
HETATM   10  C   UNL     1     -11.598  13.250  70.433  1.00  0.00    -0.018 A  
HETATM   11  N   UNL     1     -12.231  15.480  69.832  1.00  0.00    -0.357 NA 
HETATM   12  C   UNL     1     -10.667  14.251  68.469  1.00  0.00    -0.262 A  
BRANCH   8  13
HETATM   13  C   UNL     1     -13.259  14.575  71.883  1.00  0.00    -0.440 C  
HETATM   14  F   UNL     1     -12.597  14.117  74.147  1.00  0.00    -0.017 F  
HETATM   15  C   UNL     1     -14.390  15.592  71.581  1.00  0.00    -0.334 C  
HETATM   16  C   UNL     1     -13.952  13.216  72.132  1.00  0.00    -0.403 C  
HETATM   17  F   UNL     1     -13.010  16.192  73.661  1.00  0.00    -0.541 F  
HETATM   18  F   UNL     1     -11.188  15.250  72.954  1.00  0.00    -0.517 F  
HETATM   19  C   UNL     1     -12.509  15.039  73.154  1.00  0.00    -0.435 C  
ENDBRANCH   8  13
ENDBRANCH   3   7
BRANCH   6  20
HETATM   20  N   UNL     1      -9.502   8.241  68.460  1.00  0.00    -0.146 N  
HETATM   21  H   UNL     1     -10.373   7.884  68.069  1.00  0.00     0.000 HD 
BRANCH  20  22
HETATM   22  C   UNL     1      -8.529   7.339  68.809  1.00  0.00    -0.129 C  
HETATM   23  O   UNL     1      -7.367   7.348  68.411  1.00  0.00    -0.097 OA 
BRANCH  22  24
HETATM   24  N   UNL     1      -8.958   6.353  69.688  1.00  0.00    -0.137 N  
HETATM   25  C   UNL     1      -8.025   5.444  70.331  1.00  0.00    -0.100 C  
HETATM   26  C   UNL     1      -8.813   4.154  70.460  1.00  0.00    -0.133 C  
HETATM   27  C   UNL     1     -10.254   4.611  70.671  1.00  0.00    -0.211 C  
HETATM   28  C   UNL     1     -10.342   5.989  70.011  1.00  0.00    -0.229 C  
BRANCH  28  29
HETATM   29  C   UNL     1     -10.968   7.011  70.978  1.00  0.00    -0.251 C  
HETATM   30  N   UNL     1     -12.333   7.083  70.988  1.00  0.00    -0.454 N  
HETATM   31  O   UNL     1     -10.292   7.813  71.616  1.00  0.00    -0.194 OA 
HETATM   32  H1  UNL     1     -12.747   7.760  71.629  1.00  0.00     0.000 HD 
HETATM   33  H2  UNL     1     -12.906   6.490  70.388  1.00  0.00     0.000 HD 
ENDBRANCH  28  29
ENDBRANCH  22  24
ENDBRANCH  20  22
ENDBRANCH   6  20
TORSDOF 6
ENDMDL
MODEL      210
REMARK 921   NORMALIZED FREE ENERGY PREDICTED BY IDOCK:   -4.96 KCAL/MOL
REMARK 922        TOTAL FREE ENERGY PREDICTED BY IDOCK:   -7.79 KCAL/MOL
REMARK 923 INTER-LIGAND FREE ENERGY PREDICTED BY IDOCK:   -6.73 KCAL/MOL
REMARK 924 INTRA-LIGAND FREE ENERGY PREDICTED BY IDOCK:   -1.06 KCAL/MOL
REMARK 927      BINDING AFFINITY PREDICTED BY RF-SCORE:    0.00 PKD
ROOT
HETATM    1  C   UNL     1     -10.094   8.329  68.832  1.00  0.00    -0.208 C  
HETATM    2  C   UNL     1      -9.513   8.996  67.636  1.00  0.00    -0.140 A  
HETATM    3  C   UNL     1      -8.742   8.459  66.602  1.00  0.00    -0.131 A  
HETATM    4  S   UNL     1      -8.289   9.754  65.544  1.00  0.00    -0.143 SA 
HETATM    5  N   UNL     1      -9.795  10.353  67.523  1.00  0.00    -0.169 NA 
HETATM    6  C   UNL     1      -9.222  10.842  66.461  1.00  0.00    -0.168 A  
ENDROOT
BRANCH   3   7
HETATM    7  C   UNL     1      -8.268   7.086  66.325  1.00  0.00    -0.120 A  
HETATM    8  C   UNL     1      -8.271   5.043  64.986  1.00  0.00    -0.133 A  
HETATM    9  C   UNL     1      -6.953   5.172  66.891  1.00  0.00    -0.064 A  
HETATM   10  C   UNL     1      -8.731   6.348  65.219  1.00  0.00     0.012 A  
HETATM   11  N   UNL     1      -7.395   4.458  65.836  1.00  0.00    -0.076 NA 
HETATM   12  C   UNL     1      -7.343   6.470  67.165  1.00  0.00    -0.086 A  
BRANCH   8  13
HETATM   13  C   UNL     1      -8.772   4.198  63.807  1.00  0.00    -0.119 C  
HETATM   14  F   UNL     1     -10.253   2.324  64.062  1.00  0.00    -0.144 F  
HETATM   15  C   UNL     1      -8.752   5.015  62.488  1.00  0.00    -0.115 C  
HETATM   16  C   UNL     1      -7.801   3.015  63.599  1.00  0.00    -0.076 C  
HETATM   17  F   UNL     1     -11.068   4.071  63.066  1.00  0.00    -0.199 F  
HETATM   18  F   UNL     1     -10.749   4.093  65.211  1.00  0.00    -0.243 F  
HETATM   19  C   UNL     1     -10.211   3.681  64.040  1.00  0.00    -0.231 C  
ENDBRANCH   8  13
ENDBRANCH   3   7
BRANCH   6  20
HETATM   20  N   UNL     1      -9.248  12.109  65.948  1.00  0.00    -0.414 N  
HETATM   21  H   UNL     1      -8.650  12.319  65.149  1.00  0.00     0.000 HD 
BRANCH  20  22
HETATM   22  C   UNL     1     -10.036  13.113  66.452  1.00  0.00    -0.282 C  
HETATM   23  O   UNL     1     -10.253  13.325  67.642  1.00  0.00    -0.222 OA 
BRANCH  22  24
HETATM   24  N   UNL     1     -10.611  13.923  65.482  1.00  0.00    -0.298 N  
HETATM   25  C   UNL     1     -10.033  15.205  65.116  1.00  0.00    -0.231 C  
HETATM   26  C   UNL     1     -11.239  16.055  64.765  1.00  0.00    -0.348 C  
HETATM   27  C   UNL     1     -12.236  15.067  64.166  1.00  0.00    -0.234 C  
HETATM   28  C   UNL     1     -11.884  13.711  64.784  1.00  0.00    -0.387 C  
BRANCH  28  29
HETATM   29  C   UNL     1     -11.740  12.639  63.689  1.00  0.00    -0.522 C  
HETATM   30  N   UNL     1     -12.882  11.978  63.330  1.00  0.00    -0.818 N  
HETATM   31  O   UNL     1     -10.649  12.296  63.244  1.00  0.00    -0.421 OA 
HETATM   32  H1  UNL     1     -12.786  11.268  62.604  1.00  0.00     0.000 HD 
HETATM   33  H2  UNL     1     -13.780  12.185  63.765  1.00  0.00     0.000 HD 
ENDBRANCH  28  29
ENDBRANCH  22  24
ENDBRANCH  20  22
ENDBRANCH   6  20
TORSDOF 6
ENDMDL
MODEL      211
REMARK 921   NORMALIZED FREE ENERGY PREDICTED BY IDOCK:   -4.95 KCAL/MOL
REMARK 922        TOTAL FREE ENERGY PREDICTED BY IDOCK:   -7.78 KCAL/MOL
REMARK 923 INTER-LIGAND FREE ENERGY PREDICTED BY IDOCK:   -7.33 KCAL/MOL
REMARK 924 INTRA-LIGAND FREE ENERGY PREDICTED BY IDOCK:   -0.45 KCAL/MOL
REMARK 927      BINDING AFFINITY PREDICTED BY RF-SCORE:    0.00 PKD
ROOT
HETATM    1  C   UNL     1     -13.163  12.749  71.917  1.00  0.00    -0.511 C  
HETATM    2  C   UNL     1     -12.631  11.607  71.127  1.00  0.00    -0.335 A  
HETATM    3  C   UNL     1     -12.131  11.582  69.823  1.00  0.00    -0.306 A  
HETATM    4  S   UNL     1     -11.746   9.939  69.428  1.00  0.00     0.245 SA 
HETATM    5  N   UNL     1     -12.613  10.386  71.792  1.00  0.00    -0.404 NA 
HETATM    6  C   UNL     1     -12.155   9.455  71.007  1.00  0.00    -0.298 A  
ENDROOT
BRANCH   3   7
HETATM    7  C   UNL     1     -11.936  12.643  68.812  1.00  0.00    -0.279 A  
HETATM    8  C   UNL     1     -11.809  13.403  66.494  1.00  0.00    -0.396 A  
HETATM    9  C   UNL     1     -11.451  14.908  68.222  1.00  0.00    -0.324 A  
HETATM   10  C   UNL     1     -12.008  12.378  67.430  1.00  0.00    -0.246 A  
HETATM   11  N   UNL     1     -11.514  14.660  66.898  1.00  0.00    -0.357 NA 
HETATM   12  C   UNL     1     -11.663  13.953  69.199  1.00  0.00    -0.382 A  
BRANCH   8  13
HETATM   13  C   UNL     1     -11.854  13.147  64.981  1.00  0.00    -0.390 C  
HETATM   14  F   UNL     1      -9.888  12.815  63.640  1.00  0.00    -0.336 F  
HETATM   15  C   UNL     1     -13.211  12.523  64.562  1.00  0.00     0.195 C  
HETATM   16  C   UNL     1     -11.755  14.504  64.248  1.00  0.00    -0.312 C  
HETATM   17  F   UNL     1     -11.184  11.093  63.899  1.00  0.00    -0.447 F  
HETATM   18  F   UNL     1      -9.934  11.770  65.537  1.00  0.00    -0.234 F  
HETATM   19  C   UNL     1     -10.718  12.202  64.523  1.00  0.00    -0.310 C  
ENDBRANCH   8  13
ENDBRANCH   3   7
BRANCH   6  20
HETATM   20  N   UNL     1     -11.941   8.126  71.246  1.00  0.00    -0.291 N  
HETATM   21  H   UNL     1     -12.408   7.697  72.045  1.00  0.00     0.000 HD 
BRANCH  20  22
HETATM   22  C   UNL     1     -11.131   7.338  70.467  1.00  0.00    -0.267 C  
HETATM   23  O   UNL     1     -11.477   6.733  69.457  1.00  0.00    -0.264 OA 
BRANCH  22  24
HETATM   24  N   UNL     1      -9.819   7.256  70.916  1.00  0.00    -0.184 N  
HETATM   25  C   UNL     1      -8.941   8.414  70.925  1.00  0.00    -0.160 C  
HETATM   26  C   UNL     1      -7.570   7.827  70.650  1.00  0.00    -0.078 C  
HETATM   27  C   UNL     1      -7.611   6.449  71.306  1.00  0.00    -0.094 C  
HETATM   28  C   UNL     1      -9.088   6.049  71.317  1.00  0.00    -0.143 C  
BRANCH  28  29
HETATM   29  C   UNL     1      -9.513   5.591  72.724  1.00  0.00    -0.148 C  
HETATM   30  N   UNL     1      -9.044   6.331  73.773  1.00  0.00    -0.127 N  
HETATM   31  O   UNL     1     -10.133   4.548  72.917  1.00  0.00    -0.146 OA 
HETATM   32  H1  UNL     1      -9.326   6.026  74.705  1.00  0.00     0.000 HD 
HETATM   33  H2  UNL     1      -8.445   7.143  73.631  1.00  0.00     0.000 HD 
ENDBRANCH  28  29
ENDBRANCH  22  24
ENDBRANCH  20  22
ENDBRANCH   6  20
TORSDOF 6
ENDMDL
MODEL      212
REMARK 921   NORMALIZED FREE ENERGY PREDICTED BY IDOCK:   -4.94 KCAL/MOL
REMARK 922        TOTAL FREE ENERGY PREDICTED BY IDOCK:   -7.76 KCAL/MOL
REMARK 923 INTER-LIGAND FREE ENERGY PREDICTED BY IDOCK:   -6.63 KCAL/MOL
REMARK 924 INTRA-LIGAND FREE ENERGY PREDICTED BY IDOCK:   -1.13 KCAL/MOL
REMARK 927      BINDING AFFINITY PREDICTED BY RF-SCORE:    0.00 PKD
ROOT
HETATM    1  C   UNL     1      -7.785   9.797  64.020  1.00  0.00    -0.134 C  
HETATM    2  C   UNL     1      -8.725   9.621  65.159  1.00  0.00    -0.166 A  
HETATM    3  C   UNL     1      -8.988   8.485  65.930  1.00  0.00    -0.189 A  
HETATM    4  S   UNL     1     -10.249   8.880  67.051  1.00  0.00    -0.278 SA 
HETATM    5  N   UNL     1      -9.435  10.760  65.520  1.00  0.00    -0.197 NA 
HETATM    6  C   UNL     1     -10.243  10.491  66.505  1.00  0.00    -0.231 A  
ENDROOT
BRANCH   3   7
HETATM    7  C   UNL     1      -8.430   7.116  65.907  1.00  0.00    -0.151 A  
HETATM    8  C   UNL     1      -8.229   4.897  64.908  1.00  0.00    -0.124 A  
HETATM    9  C   UNL     1      -7.080   5.391  66.862  1.00  0.00    -0.066 A  
HETATM   10  C   UNL     1      -8.766   6.192  64.899  1.00  0.00     0.104 A  
HETATM   11  N   UNL     1      -7.400   4.500  65.902  1.00  0.00    -0.076 NA 
HETATM   12  C   UNL     1      -7.550   6.690  66.899  1.00  0.00    -0.095 A  
BRANCH   8  13
HETATM   13  C   UNL     1      -8.592   3.854  63.842  1.00  0.00    -0.096 C  
HETATM   14  F   UNL     1      -9.697   1.781  64.347  1.00  0.00    -0.133 F  
HETATM   15  C   UNL     1      -8.751   4.515  62.448  1.00  0.00    -0.111 C  
HETATM   16  C   UNL     1      -7.424   2.849  63.716  1.00  0.00    -0.066 C  
HETATM   17  F   UNL     1     -10.841   3.236  63.213  1.00  0.00    -0.197 F  
HETATM   18  F   UNL     1     -10.485   3.544  65.330  1.00  0.00    -0.021 F  
HETATM   19  C   UNL     1      -9.906   3.113  64.186  1.00  0.00    -0.163 C  
ENDBRANCH   8  13
ENDBRANCH   3   7
BRANCH   6  20
HETATM   20  N   UNL     1     -11.102  11.305  67.188  1.00  0.00    -0.294 N  
HETATM   21  H   UNL     1     -11.343  11.056  68.148  1.00  0.00     0.000 HD 
BRANCH  20  22
HETATM   22  C   UNL     1     -11.659  12.439  66.653  1.00  0.00    -0.385 C  
HETATM   23  O   UNL     1     -12.490  12.471  65.749  1.00  0.00    -0.626 OA 
BRANCH  22  24
HETATM   24  N   UNL     1     -11.199  13.620  67.221  1.00  0.00    -0.300 N  
HETATM   25  C   UNL     1     -10.520  13.635  68.506  1.00  0.00    -0.244 C  
HETATM   26  C   UNL     1     -10.932  14.963  69.113  1.00  0.00    -0.266 C  
HETATM   27  C   UNL     1     -11.078  15.897  67.915  1.00  0.00    -0.317 C  
HETATM   28  C   UNL     1     -11.406  14.986  66.729  1.00  0.00    -0.293 C  
BRANCH  28  29
HETATM   29  C   UNL     1     -10.476  15.290  65.541  1.00  0.00    -0.374 C  
HETATM   30  N   UNL     1      -9.685  14.262  65.108  1.00  0.00    -0.531 N  
HETATM   31  O   UNL     1     -10.348  16.420  65.078  1.00  0.00    -0.615 OA 
HETATM   32  H1  UNL     1      -9.069  14.464  64.321  1.00  0.00     0.000 HD 
HETATM   33  H2  UNL     1      -9.710  13.344  65.550  1.00  0.00     0.000 HD 
ENDBRANCH  28  29
ENDBRANCH  22  24
ENDBRANCH  20  22
ENDBRANCH   6  20
TORSDOF 6
ENDMDL
MODEL      213
REMARK 921   NORMALIZED FREE ENERGY PREDICTED BY IDOCK:   -4.93 KCAL/MOL
REMARK 922        TOTAL FREE ENERGY PREDICTED BY IDOCK:   -7.75 KCAL/MOL
REMARK 923 INTER-LIGAND FREE ENERGY PREDICTED BY IDOCK:   -6.83 KCAL/MOL
REMARK 924 INTRA-LIGAND FREE ENERGY PREDICTED BY IDOCK:   -0.92 KCAL/MOL
REMARK 927      BINDING AFFINITY PREDICTED BY RF-SCORE:    0.00 PKD
ROOT
HETATM    1  C   UNL     1      -5.980  11.021  70.255  1.00  0.00    -0.139 C  
HETATM    2  C   UNL     1      -6.984  11.428  69.237  1.00  0.00    -0.115 A  
HETATM    3  C   UNL     1      -8.085  10.725  68.741  1.00  0.00    -0.143 A  
HETATM    4  S   UNL     1      -8.823  11.690  67.505  1.00  0.00    -0.164 SA 
HETATM    5  N   UNL     1      -6.810  12.704  68.714  1.00  0.00    -0.092 NA 
HETATM    6  C   UNL     1      -7.723  12.949  67.818  1.00  0.00    -0.151 A  
ENDROOT
BRANCH   3   7
HETATM    7  C   UNL     1      -8.638   9.391  69.056  1.00  0.00    -0.135 A  
HETATM    8  C   UNL     1     -10.026   7.908  70.412  1.00  0.00    -0.192 A  
HETATM    9  C   UNL     1      -8.797   7.041  68.646  1.00  0.00    -0.128 A  
HETATM   10  C   UNL     1      -9.526   9.188  70.130  1.00  0.00    -0.235 A  
HETATM   11  N   UNL     1      -9.644   6.839  69.675  1.00  0.00    -0.149 NA 
HETATM   12  C   UNL     1      -8.287   8.277  68.296  1.00  0.00    -0.132 A  
BRANCH   8  13
HETATM   13  C   UNL     1     -10.975   7.643  71.590  1.00  0.00    -0.267 C  
HETATM   14  F   UNL     1     -12.494   9.290  72.457  1.00  0.00    -0.411 F  
HETATM   15  C   UNL     1     -11.292   6.130  71.719  1.00  0.00    -0.346 C  
HETATM   16  C   UNL     1     -10.263   8.051  72.899  1.00  0.00    -0.384 C  
HETATM   17  F   UNL     1     -13.386   7.590  71.446  1.00  0.00    -0.359 F  
HETATM   18  F   UNL     1     -12.388   9.136  70.298  1.00  0.00    -0.051 F  
HETATM   19  C   UNL     1     -12.309   8.412  71.438  1.00  0.00    -0.299 C  
ENDBRANCH   8  13
ENDBRANCH   3   7
BRANCH   6  20
HETATM   20  N   UNL     1      -7.949  14.073  67.074  1.00  0.00    -0.374 N  
HETATM   21  H   UNL     1      -7.600  14.097  66.116  1.00  0.00     0.000 HD 
BRANCH  20  22
HETATM   22  C   UNL     1      -8.621  15.171  67.548  1.00  0.00    -0.180 C  
HETATM   23  O   UNL     1      -8.353  15.788  68.575  1.00  0.00    -0.160 OA 
BRANCH  22  24
HETATM   24  N   UNL     1      -9.689  15.569  66.753  1.00  0.00    -0.231 N  
HETATM   25  C   UNL     1     -10.561  14.604  66.107  1.00  0.00    -0.312 C  
HETATM   26  C   UNL     1     -10.957  15.289  64.813  1.00  0.00    -0.403 C  
HETATM   27  C   UNL     1     -11.001  16.772  65.168  1.00  0.00    -0.109 C  
HETATM   28  C   UNL     1     -10.035  16.935  66.345  1.00  0.00    -0.309 C  
BRANCH  28  29
HETATM   29  C   UNL     1     -10.712  17.699  67.498  1.00  0.00    -0.290 C  
HETATM   30  N   UNL     1     -11.336  16.939  68.448  1.00  0.00    -0.122 N  
HETATM   31  O   UNL     1     -10.806  18.923  67.511  1.00  0.00    -0.450 OA 
HETATM   32  H1  UNL     1     -11.785  17.446  69.211  1.00  0.00     0.000 HD 
HETATM   33  H2  UNL     1     -11.352  15.921  68.396  1.00  0.00     0.000 HD 
ENDBRANCH  28  29
ENDBRANCH  22  24
ENDBRANCH  20  22
ENDBRANCH   6  20
TORSDOF 6
ENDMDL
MODEL      214
REMARK 921   NORMALIZED FREE ENERGY PREDICTED BY IDOCK:   -4.92 KCAL/MOL
REMARK 922        TOTAL FREE ENERGY PREDICTED BY IDOCK:   -7.74 KCAL/MOL
REMARK 923 INTER-LIGAND FREE ENERGY PREDICTED BY IDOCK:   -6.77 KCAL/MOL
REMARK 924 INTRA-LIGAND FREE ENERGY PREDICTED BY IDOCK:   -0.98 KCAL/MOL
REMARK 927      BINDING AFFINITY PREDICTED BY RF-SCORE:    0.00 PKD
ROOT
HETATM    1  C   UNL     1     -11.725  11.171  69.089  1.00  0.00    -0.408 C  
HETATM    2  C   UNL     1     -10.365  11.677  68.760  1.00  0.00    -0.195 A  
HETATM    3  C   UNL     1      -9.126  11.043  68.880  1.00  0.00    -0.123 A  
HETATM    4  S   UNL     1      -7.899  12.178  68.422  1.00  0.00    -0.139 SA 
HETATM    5  N   UNL     1     -10.325  12.966  68.241  1.00  0.00    -0.239 NA 
HETATM    6  C   UNL     1      -9.093  13.318  68.012  1.00  0.00    -0.202 A  
ENDROOT
BRANCH   3   7
HETATM    7  C   UNL     1      -8.740   9.690  69.334  1.00  0.00    -0.173 A  
HETATM    8  C   UNL     1      -9.177   7.298  69.567  1.00  0.00    -0.149 A  
HETATM    9  C   UNL     1      -7.232   8.207  70.446  1.00  0.00    -0.048 A  
HETATM   10  C   UNL     1      -9.564   8.569  69.116  1.00  0.00    -0.167 A  
HETATM   11  N   UNL     1      -8.017   7.130  70.245  1.00  0.00    -0.114 NA 
HETATM   12  C   UNL     1      -7.538   9.481  70.007  1.00  0.00    -0.134 A  
BRANCH   8  13
HETATM   13  C   UNL     1     -10.059   6.058  69.372  1.00  0.00    -0.243 C  
HETATM   14  F   UNL     1     -11.077   5.480  67.274  1.00  0.00    -0.280 F  
HETATM   15  C   UNL     1      -9.714   4.960  70.411  1.00  0.00    -0.284 C  
HETATM   16  C   UNL     1     -11.531   6.453  69.631  1.00  0.00    -0.446 C  
HETATM   17  F   UNL     1      -9.503   4.163  67.980  1.00  0.00    -0.161 F  
HETATM   18  F   UNL     1      -9.009   6.119  67.185  1.00  0.00    -0.113 F  
HETATM   19  C   UNL     1      -9.903   5.458  67.955  1.00  0.00    -0.144 C  
ENDBRANCH   8  13
ENDBRANCH   3   7
BRANCH   6  20
HETATM   20  N   UNL     1      -8.589  14.474  67.485  1.00  0.00    -0.177 N  
HETATM   21  H   UNL     1      -8.199  14.446  66.543  1.00  0.00     0.000 HD 
BRANCH  20  22
HETATM   22  C   UNL     1      -8.580  15.671  68.156  1.00  0.00    -0.159 C  
HETATM   23  O   UNL     1      -8.002  15.894  69.216  1.00  0.00    -0.222 OA 
BRANCH  22  24
HETATM   24  N   UNL     1      -9.307  16.676  67.533  1.00  0.00    -0.218 N  
HETATM   25  C   UNL     1     -10.583  16.410  66.891  1.00  0.00    -0.252 C  
HETATM   26  C   UNL     1     -10.610  17.384  65.728  1.00  0.00    -0.185 C  
HETATM   27  C   UNL     1      -9.850  18.604  66.241  1.00  0.00    -0.364 C  
HETATM   28  C   UNL     1      -8.897  18.067  67.312  1.00  0.00    -0.247 C  
BRANCH  28  29
HETATM   29  C   UNL     1      -9.023  18.890  68.608  1.00  0.00    -0.350 C  
HETATM   30  N   UNL     1     -10.291  19.201  69.011  1.00  0.00    -0.510 N  
HETATM   31  O   UNL     1      -8.047  19.355  69.188  1.00  0.00    -0.320 OA 
HETATM   32  H1  UNL     1     -10.374  19.746  69.869  1.00  0.00     0.000 HD 
HETATM   33  H2  UNL     1     -11.111  18.904  68.481  1.00  0.00     0.000 HD 
ENDBRANCH  28  29
ENDBRANCH  22  24
ENDBRANCH  20  22
ENDBRANCH   6  20
TORSDOF 6
ENDMDL
MODEL      215
REMARK 921   NORMALIZED FREE ENERGY PREDICTED BY IDOCK:   -4.92 KCAL/MOL
REMARK 922        TOTAL FREE ENERGY PREDICTED BY IDOCK:   -7.74 KCAL/MOL
REMARK 923 INTER-LIGAND FREE ENERGY PREDICTED BY IDOCK:   -6.77 KCAL/MOL
REMARK 924 INTRA-LIGAND FREE ENERGY PREDICTED BY IDOCK:   -0.97 KCAL/MOL
REMARK 927      BINDING AFFINITY PREDICTED BY RF-SCORE:    0.00 PKD
ROOT
HETATM    1  C   UNL     1     -11.327  10.932  68.130  1.00  0.00    -0.383 C  
HETATM    2  C   UNL     1     -10.705  12.096  67.443  1.00  0.00    -0.234 A  
HETATM    3  C   UNL     1      -9.915  12.133  66.291  1.00  0.00    -0.229 A  
HETATM    4  S   UNL     1      -9.415  13.772  66.038  1.00  0.00    -0.018 SA 
HETATM    5  N   UNL     1     -10.964  13.332  68.025  1.00  0.00    -0.237 NA 
HETATM    6  C   UNL     1     -10.357  14.274  67.363  1.00  0.00    -0.259 A  
ENDROOT
BRANCH   3   7
HETATM    7  C   UNL     1      -9.454  11.075  65.367  1.00  0.00    -0.257 A  
HETATM    8  C   UNL     1      -8.021   9.173  64.825  1.00  0.00    -0.126 A  
HETATM    9  C   UNL     1      -9.519   9.975  63.246  1.00  0.00    -0.182 A  
HETATM   10  C   UNL     1      -8.445  10.160  65.727  1.00  0.00    -0.153 A  
HETATM   11  N   UNL     1      -8.551   9.099  63.582  1.00  0.00    -0.193 NA 
HETATM   12  C   UNL     1     -10.004  10.954  64.093  1.00  0.00    -0.403 A  
BRANCH   8  13
HETATM   13  C   UNL     1      -6.906   8.175  65.171  1.00  0.00    -0.058 C  
HETATM   14  F   UNL     1      -7.046   6.624  67.000  1.00  0.00    -0.066 F  
HETATM   15  C   UNL     1      -6.043   7.851  63.923  1.00  0.00    -0.058 C  
HETATM   16  C   UNL     1      -5.956   8.832  66.197  1.00  0.00    -0.048 C  
HETATM   17  F   UNL     1      -7.094   5.772  65.004  1.00  0.00    -0.057 F  
HETATM   18  F   UNL     1      -8.826   6.821  65.781  1.00  0.00    -0.154 F  
HETATM   19  C   UNL     1      -7.475   6.850  65.732  1.00  0.00    -0.084 C  
ENDBRANCH   8  13
ENDBRANCH   3   7
BRANCH   6  20
HETATM   20  N   UNL     1     -10.351  15.626  67.559  1.00  0.00    -0.271 N  
HETATM   21  H   UNL     1     -10.728  15.989  68.435  1.00  0.00     0.000 HD 
BRANCH  20  22
HETATM   22  C   UNL     1      -9.864  16.522  66.641  1.00  0.00    -0.268 C  
HETATM   23  O   UNL     1     -10.325  16.722  65.521  1.00  0.00    -0.558 OA 
BRANCH  22  24
HETATM   24  N   UNL     1      -8.751  17.231  67.075  1.00  0.00    -0.224 N  
HETATM   25  C   UNL     1      -7.413  16.669  67.006  1.00  0.00    -0.204 C  
HETATM   26  C   UNL     1      -6.712  17.261  68.214  1.00  0.00    -0.177 C  
HETATM   27  C   UNL     1      -7.336  18.644  68.372  1.00  0.00    -0.309 C  
HETATM   28  C   UNL     1      -8.731  18.533  67.751  1.00  0.00    -0.275 C  
BRANCH  28  29
HETATM   29  C   UNL     1      -8.968  19.676  66.748  1.00  0.00    -0.354 C  
HETATM   30  N   UNL     1      -9.818  20.670  67.147  1.00  0.00    -0.564 N  
HETATM   31  O   UNL     1      -8.529  19.649  65.602  1.00  0.00    -0.369 OA 
HETATM   32  H1  UNL     1      -9.975  21.428  66.483  1.00  0.00     0.000 HD 
HETATM   33  H2  UNL     1     -10.270  20.655  68.061  1.00  0.00     0.000 HD 
ENDBRANCH  28  29
ENDBRANCH  22  24
ENDBRANCH  20  22
ENDBRANCH   6  20
TORSDOF 6
ENDMDL
MODEL      216
REMARK 921   NORMALIZED FREE ENERGY PREDICTED BY IDOCK:   -4.91 KCAL/MOL
REMARK 922        TOTAL FREE ENERGY PREDICTED BY IDOCK:   -7.73 KCAL/MOL
REMARK 923 INTER-LIGAND FREE ENERGY PREDICTED BY IDOCK:   -6.09 KCAL/MOL
REMARK 924 INTRA-LIGAND FREE ENERGY PREDICTED BY IDOCK:   -1.64 KCAL/MOL
REMARK 927      BINDING AFFINITY PREDICTED BY RF-SCORE:    0.00 PKD
ROOT
HETATM    1  C   UNL     1     -10.595   9.908  70.118  1.00  0.00    -0.350 C  
HETATM    2  C   UNL     1     -10.306   9.506  68.716  1.00  0.00    -0.208 A  
HETATM    3  C   UNL     1      -9.758  10.254  67.670  1.00  0.00    -0.164 A  
HETATM    4  S   UNL     1      -9.750   9.261  66.250  1.00  0.00    -0.289 SA 
HETATM    5  N   UNL     1     -10.611   8.186  68.405  1.00  0.00    -0.150 NA 
HETATM    6  C   UNL     1     -10.343   7.948  67.153  1.00  0.00    -0.328 A  
ENDROOT
BRANCH   3   7
HETATM    7  C   UNL     1      -9.266  11.646  67.594  1.00  0.00    -0.178 A  
HETATM    8  C   UNL     1      -9.646  14.047  67.358  1.00  0.00    -0.227 A  
HETATM    9  C   UNL     1      -7.482  13.236  67.555  1.00  0.00    -0.157 A  
HETATM   10  C   UNL     1     -10.142  12.737  67.437  1.00  0.00    -0.219 A  
HETATM   11  N   UNL     1      -8.314  14.285  67.401  1.00  0.00    -0.187 NA 
HETATM   12  C   UNL     1      -7.903  11.924  67.667  1.00  0.00    -0.142 A  
BRANCH   8  13
HETATM   13  C   UNL     1     -10.567  15.259  67.161  1.00  0.00    -0.302 C  
HETATM   14  F   UNL     1     -12.150  15.995  68.812  1.00  0.00    -0.390 F  
HETATM   15  C   UNL     1      -9.957  16.263  66.149  1.00  0.00    -0.355 C  
HETATM   16  C   UNL     1     -11.898  14.773  66.542  1.00  0.00    -0.238 C  
HETATM   17  F   UNL     1     -10.461  17.306  68.440  1.00  0.00    -0.303 F  
HETATM   18  F   UNL     1     -10.183  15.463  69.549  1.00  0.00    -0.207 F  
HETATM   19  C   UNL     1     -10.831  16.003  68.491  1.00  0.00    -0.304 C  
ENDBRANCH   8  13
ENDBRANCH   3   7
BRANCH   6  20
HETATM   20  N   UNL     1     -10.460   6.793  66.431  1.00  0.00    -0.480 N  
HETATM   21  H   UNL     1     -10.999   6.818  65.565  1.00  0.00     0.000 HD 
BRANCH  20  22
HETATM   22  C   UNL     1      -9.891   5.603  66.807  1.00  0.00    -0.164 C  
HETATM   23  O   UNL     1     -10.491   4.549  66.994  1.00  0.00    -0.085 OA 
BRANCH  22  24
HETATM   24  N   UNL     1      -8.514   5.663  66.979  1.00  0.00    -0.111 N  
HETATM   25  C   UNL     1      -7.626   6.068  65.903  1.00  0.00    -0.087 C  
HETATM   26  C   UNL     1      -6.370   5.254  66.148  1.00  0.00    -0.039 C  
HETATM   27  C   UNL     1      -6.297   5.121  67.667  1.00  0.00    -0.040 C  
HETATM   28  C   UNL     1      -7.743   5.239  68.154  1.00  0.00    -0.084 C  
BRANCH  28  29
HETATM   29  C   UNL     1      -7.849   6.278  69.285  1.00  0.00    -0.105 C  
HETATM   30  N   UNL     1      -7.340   7.519  69.022  1.00  0.00    -0.085 N  
HETATM   31  O   UNL     1      -8.250   5.989  70.409  1.00  0.00    -0.112 OA 
HETATM   32  H1  UNL     1      -7.410   8.207  69.772  1.00  0.00     0.000 HD 
HETATM   33  H2  UNL     1      -6.913   7.744  68.124  1.00  0.00     0.000 HD 
ENDBRANCH  28  29
ENDBRANCH  22  24
ENDBRANCH  20  22
ENDBRANCH   6  20
TORSDOF 6
ENDMDL
MODEL      217
REMARK 921   NORMALIZED FREE ENERGY PREDICTED BY IDOCK:   -4.91 KCAL/MOL
REMARK 922        TOTAL FREE ENERGY PREDICTED BY IDOCK:   -7.72 KCAL/MOL
REMARK 923 INTER-LIGAND FREE ENERGY PREDICTED BY IDOCK:   -6.67 KCAL/MOL
REMARK 924 INTRA-LIGAND FREE ENERGY PREDICTED BY IDOCK:   -1.05 KCAL/MOL
REMARK 927      BINDING AFFINITY PREDICTED BY RF-SCORE:    0.00 PKD
ROOT
HETATM    1  C   UNL     1      -7.347  10.758  68.769  1.00  0.00    -0.104 C  
HETATM    2  C   UNL     1      -8.467   9.796  68.951  1.00  0.00    -0.129 A  
HETATM    3  C   UNL     1      -9.845  10.005  68.856  1.00  0.00    -0.184 A  
HETATM    4  S   UNL     1     -10.641   8.521  69.263  1.00  0.00    -0.135 SA 
HETATM    5  N   UNL     1      -8.083   8.492  69.242  1.00  0.00    -0.111 NA 
HETATM    6  C   UNL     1      -9.135   7.742  69.405  1.00  0.00    -0.146 A  
ENDROOT
BRANCH   3   7
HETATM    7  C   UNL     1     -10.649  11.202  68.529  1.00  0.00    -0.219 A  
HETATM    8  C   UNL     1     -11.621  12.762  66.921  1.00  0.00    -0.366 A  
HETATM    9  C   UNL     1     -11.937  13.103  69.193  1.00  0.00    -0.281 A  
HETATM   10  C   UNL     1     -10.861  11.617  67.200  1.00  0.00    -0.306 A  
HETATM   11  N   UNL     1     -12.140  13.508  67.924  1.00  0.00    -0.323 NA 
HETATM   12  C   UNL     1     -11.223  11.971  69.540  1.00  0.00    -0.220 A  
BRANCH   8  13
HETATM   13  C   UNL     1     -11.851  13.260  65.487  1.00  0.00    -0.405 C  
HETATM   14  F   UNL     1     -10.876  15.277  64.619  1.00  0.00    -0.392 F  
HETATM   15  C   UNL     1     -12.211  12.085  64.541  1.00  0.00    -0.329 C  
HETATM   16  C   UNL     1     -13.071  14.209  65.484  1.00  0.00    -0.166 C  
HETATM   17  F   UNL     1     -10.149  13.412  63.779  1.00  0.00    -0.238 F  
HETATM   18  F   UNL     1      -9.560  14.007  65.780  1.00  0.00    -0.288 F  
HETATM   19  C   UNL     1     -10.605  13.981  64.922  1.00  0.00    -0.424 C  
ENDBRANCH   8  13
ENDBRANCH   3   7
BRANCH   6  20
HETATM   20  N   UNL     1      -9.232   6.406  69.675  1.00  0.00    -0.142 N  
HETATM   21  H   UNL     1      -9.713   5.810  69.001  1.00  0.00     0.000 HD 
BRANCH  20  22
HETATM   22  C   UNL     1      -8.717   5.823  70.805  1.00  0.00    -0.130 C  
HETATM   23  O   UNL     1      -7.555   5.911  71.192  1.00  0.00    -0.095 OA 
BRANCH  22  24
HETATM   24  N   UNL     1      -9.640   5.078  71.530  1.00  0.00    -0.152 N  
HETATM   25  C   UNL     1     -10.934   5.621  71.904  1.00  0.00    -0.235 C  
HETATM   26  C   UNL     1     -11.224   4.967  73.241  1.00  0.00    -0.411 C  
HETATM   27  C   UNL     1     -10.579   3.588  73.135  1.00  0.00    -0.269 C  
HETATM   28  C   UNL     1      -9.446   3.749  72.118  1.00  0.00    -0.133 C  
BRANCH  28  29
HETATM   29  C   UNL     1      -9.529   2.653  71.040  1.00  0.00    -0.154 C  
HETATM   30  N   UNL     1     -10.127   1.480  71.408  1.00  0.00    -0.102 N  
HETATM   31  O   UNL     1      -8.981   2.762  69.947  1.00  0.00    -0.080 OA 
HETATM   32  H1  UNL     1     -10.182   0.754  70.694  1.00  0.00     0.000 HD 
HETATM   33  H2  UNL     1     -10.499   1.339  72.347  1.00  0.00     0.000 HD 
ENDBRANCH  28  29
ENDBRANCH  22  24
ENDBRANCH  20  22
ENDBRANCH   6  20
TORSDOF 6
ENDMDL
MODEL      218
REMARK 921   NORMALIZED FREE ENERGY PREDICTED BY IDOCK:   -4.90 KCAL/MOL
REMARK 922        TOTAL FREE ENERGY PREDICTED BY IDOCK:   -7.72 KCAL/MOL
REMARK 923 INTER-LIGAND FREE ENERGY PREDICTED BY IDOCK:   -6.47 KCAL/MOL
REMARK 924 INTRA-LIGAND FREE ENERGY PREDICTED BY IDOCK:   -1.25 KCAL/MOL
REMARK 927      BINDING AFFINITY PREDICTED BY RF-SCORE:    0.00 PKD
ROOT
HETATM    1  C   UNL     1      -5.948  12.423  68.993  1.00  0.00    -0.071 C  
HETATM    2  C   UNL     1      -7.321  12.896  68.675  1.00  0.00    -0.099 A  
HETATM    3  C   UNL     1      -7.848  14.190  68.708  1.00  0.00    -0.114 A  
HETATM    4  S   UNL     1      -9.534  14.091  68.320  1.00  0.00    -0.217 SA 
HETATM    5  N   UNL     1      -8.207  11.905  68.269  1.00  0.00    -0.152 NA 
HETATM    6  C   UNL     1      -9.381  12.420  68.041  1.00  0.00    -0.204 A  
ENDROOT
BRANCH   3   7
HETATM    7  C   UNL     1      -7.246  15.501  69.032  1.00  0.00    -0.156 A  
HETATM    8  C   UNL     1      -6.989  17.899  68.647  1.00  0.00    -0.252 A  
HETATM    9  C   UNL     1      -5.743  16.857  70.304  1.00  0.00    -0.172 A  
HETATM   10  C   UNL     1      -7.583  16.671  68.324  1.00  0.00    -0.181 A  
HETATM   11  N   UNL     1      -6.058  17.979  69.627  1.00  0.00    -0.245 NA 
HETATM   12  C   UNL     1      -6.309  15.620  70.057  1.00  0.00    -0.116 A  
BRANCH   8  13
HETATM   13  C   UNL     1      -7.310  19.190  67.881  1.00  0.00    -0.279 C  
HETATM   14  F   UNL     1      -5.796  20.208  66.318  1.00  0.00    -0.175 F  
HETATM   15  C   UNL     1      -8.842  19.385  67.738  1.00  0.00    -0.359 C  
HETATM   16  C   UNL     1      -6.793  20.393  68.700  1.00  0.00    -0.205 C  
HETATM   17  F   UNL     1      -7.607  19.346  65.488  1.00  0.00    -0.301 F  
HETATM   18  F   UNL     1      -6.005  18.056  66.176  1.00  0.00    -0.169 F  
HETATM   19  C   UNL     1      -6.683  19.190  66.467  1.00  0.00    -0.192 C  
ENDBRANCH   8  13
ENDBRANCH   3   7
BRANCH   6  20
HETATM   20  N   UNL     1     -10.534  11.830  67.605  1.00  0.00    -0.194 N  
HETATM   21  H   UNL     1     -10.886  12.081  66.681  1.00  0.00     0.000 HD 
BRANCH  20  22
HETATM   22  C   UNL     1     -11.243  10.917  68.343  1.00  0.00    -0.285 C  
HETATM   23  O   UNL     1     -12.235  11.161  69.024  1.00  0.00    -0.469 OA 
BRANCH  22  24
HETATM   24  N   UNL     1     -10.745   9.622  68.275  1.00  0.00    -0.232 N  
HETATM   25  C   UNL     1     -10.276   9.049  67.025  1.00  0.00    -0.266 C  
HETATM   26  C   UNL     1     -10.622   7.578  67.154  1.00  0.00    -0.415 C  
HETATM   27  C   UNL     1     -10.473   7.283  68.644  1.00  0.00    -0.214 C  
HETATM   28  C   UNL     1     -10.716   8.621  69.347  1.00  0.00    -0.158 C  
BRANCH  28  29
HETATM   29  C   UNL     1      -9.585   8.919  70.348  1.00  0.00    -0.194 C  
HETATM   30  N   UNL     1      -8.327   9.045  69.826  1.00  0.00    -0.121 N  
HETATM   31  O   UNL     1      -9.764   8.920  71.562  1.00  0.00    -0.261 OA 
HETATM   32  H1  UNL     1      -7.578   9.242  70.489  1.00  0.00     0.000 HD 
HETATM   33  H2  UNL     1      -8.149   8.947  68.827  1.00  0.00     0.000 HD 
ENDBRANCH  28  29
ENDBRANCH  22  24
ENDBRANCH  20  22
ENDBRANCH   6  20
TORSDOF 6
ENDMDL
MODEL      219
REMARK 921   NORMALIZED FREE ENERGY PREDICTED BY IDOCK:   -4.90 KCAL/MOL
REMARK 922        TOTAL FREE ENERGY PREDICTED BY IDOCK:   -7.72 KCAL/MOL
REMARK 923 INTER-LIGAND FREE ENERGY PREDICTED BY IDOCK:   -6.84 KCAL/MOL
REMARK 924 INTRA-LIGAND FREE ENERGY PREDICTED BY IDOCK:   -0.87 KCAL/MOL
REMARK 927      BINDING AFFINITY PREDICTED BY RF-SCORE:    0.00 PKD
ROOT
HETATM    1  C   UNL     1      -8.946   6.592  67.236  1.00  0.00    -0.115 C  
HETATM    2  C   UNL     1      -8.594   8.015  67.492  1.00  0.00    -0.126 A  
HETATM    3  C   UNL     1      -8.251   8.646  68.690  1.00  0.00    -0.121 A  
HETATM    4  S   UNL     1      -8.036  10.334  68.362  1.00  0.00    -0.114 SA 
HETATM    5  N   UNL     1      -8.590   8.832  66.368  1.00  0.00    -0.123 NA 
HETATM    6  C   UNL     1      -8.295  10.054  66.704  1.00  0.00    -0.125 A  
ENDROOT
BRANCH   3   7
HETATM    7  C   UNL     1      -8.096   8.142  70.071  1.00  0.00    -0.114 A  
HETATM    8  C   UNL     1      -8.696   6.612  71.878  1.00  0.00    -0.128 A  
HETATM    9  C   UNL     1      -7.099   8.255  72.240  1.00  0.00    -0.095 A  
HETATM   10  C   UNL     1      -8.857   7.062  70.559  1.00  0.00    -0.154 A  
HETATM   11  N   UNL     1      -7.827   7.225  72.716  1.00  0.00    -0.093 NA 
HETATM   12  C   UNL     1      -7.187   8.733  70.946  1.00  0.00    -0.083 A  
BRANCH   8  13
HETATM   13  C   UNL     1      -9.525   5.456  72.454  1.00  0.00    -0.162 C  
HETATM   14  F   UNL     1     -10.759   5.614  74.510  1.00  0.00    -0.260 F  
HETATM   15  C   UNL     1      -9.978   4.483  71.334  1.00  0.00    -0.259 C  
HETATM   16  C   UNL     1      -8.630   4.633  73.408  1.00  0.00    -0.101 C  
HETATM   17  F   UNL     1     -11.930   5.455  72.689  1.00  0.00    -0.340 F  
HETATM   18  F   UNL     1     -10.917   7.311  73.171  1.00  0.00    -0.303 F  
HETATM   19  C   UNL     1     -10.782   5.965  73.198  1.00  0.00    -0.261 C  
ENDBRANCH   8  13
ENDBRANCH   3   7
BRANCH   6  20
HETATM   20  N   UNL     1      -8.153  11.173  65.931  1.00  0.00    -0.335 N  
HETATM   21  H   UNL     1      -7.471  11.153  65.173  1.00  0.00     0.000 HD 
BRANCH  20  22
HETATM   22  C   UNL     1      -8.880  12.321  66.121  1.00  0.00     0.067 C  
HETATM   23  O   UNL     1      -8.562  13.259  66.847  1.00  0.00    -0.191 OA 
BRANCH  22  24
HETATM   24  N   UNL     1     -10.069  12.364  65.405  1.00  0.00    -0.274 N  
HETATM   25  C   UNL     1     -10.369  11.398  64.362  1.00  0.00    -0.320 C  
HETATM   26  C   UNL     1     -11.186  12.192  63.362  1.00  0.00    -0.494 C  
HETATM   27  C   UNL     1     -11.962  13.192  64.216  1.00  0.00    -0.470 C  
HETATM   28  C   UNL     1     -11.114  13.392  65.475  1.00  0.00    -0.282 C  
BRANCH  28  29
HETATM   29  C   UNL     1     -11.975  13.216  66.739  1.00  0.00    -0.373 C  
HETATM   30  N   UNL     1     -12.380  14.362  67.364  1.00  0.00    -0.600 N  
HETATM   31  O   UNL     1     -12.189  12.117  67.242  1.00  0.00    -0.496 OA 
HETATM   32  H1  UNL     1     -12.950  14.246  68.202  1.00  0.00     0.000 HD 
HETATM   33  H2  UNL     1     -12.124  15.285  67.012  1.00  0.00     0.000 HD 
ENDBRANCH  28  29
ENDBRANCH  22  24
ENDBRANCH  20  22
ENDBRANCH   6  20
TORSDOF 6
ENDMDL
MODEL      220
REMARK 921   NORMALIZED FREE ENERGY PREDICTED BY IDOCK:   -4.89 KCAL/MOL
REMARK 922        TOTAL FREE ENERGY PREDICTED BY IDOCK:   -7.70 KCAL/MOL
REMARK 923 INTER-LIGAND FREE ENERGY PREDICTED BY IDOCK:   -6.87 KCAL/MOL
REMARK 924 INTRA-LIGAND FREE ENERGY PREDICTED BY IDOCK:   -0.83 KCAL/MOL
REMARK 927      BINDING AFFINITY PREDICTED BY RF-SCORE:    0.00 PKD
ROOT
HETATM    1  C   UNL     1     -12.510   9.504  72.056  1.00  0.00    -0.427 C  
HETATM    2  C   UNL     1     -11.941   9.934  70.751  1.00  0.00    -0.323 A  
HETATM    3  C   UNL     1     -11.153   9.221  69.844  1.00  0.00    -0.181 A  
HETATM    4  S   UNL     1     -10.728  10.291  68.549  1.00  0.00    -0.243 SA 
HETATM    5  N   UNL     1     -12.256  11.233  70.370  1.00  0.00    -0.351 NA 
HETATM    6  C   UNL     1     -11.692  11.515  69.231  1.00  0.00    -0.330 A  
ENDROOT
BRANCH   3   7
HETATM    7  C   UNL     1     -10.643   7.833  69.846  1.00  0.00    -0.239 A  
HETATM    8  C   UNL     1      -8.828   6.213  69.637  1.00  0.00    -0.134 A  
HETATM    9  C   UNL     1     -10.996   5.475  70.002  1.00  0.00    -0.135 A  
HETATM   10  C   UNL     1      -9.281   7.540  69.640  1.00  0.00    -0.146 A  
HETATM   11  N   UNL     1      -9.695   5.187  69.802  1.00  0.00    -0.173 NA 
HETATM   12  C   UNL     1     -11.507   6.759  70.044  1.00  0.00    -0.390 A  
BRANCH   8  13
HETATM   13  C   UNL     1      -7.356   5.852  69.391  1.00  0.00    -0.075 C  
HETATM   14  F   UNL     1      -6.616   4.530  67.527  1.00  0.00    -0.041 F  
HETATM   15  C   UNL     1      -6.411   6.894  70.045  1.00  0.00    -0.035 C  
HETATM   16  C   UNL     1      -7.057   4.501  70.078  1.00  0.00    -0.049 C  
HETATM   17  F   UNL     1      -6.033   6.620  67.521  1.00  0.00    -0.017 F  
HETATM   18  F   UNL     1      -8.082   6.062  67.084  1.00  0.00    -0.103 F  
HETATM   19  C   UNL     1      -7.028   5.774  67.881  1.00  0.00    -0.066 C  
ENDBRANCH   8  13
ENDBRANCH   3   7
BRANCH   6  20
HETATM   20  N   UNL     1     -11.748  12.653  68.476  1.00  0.00    -0.314 N  
HETATM   21  H   UNL     1     -12.664  13.040  68.251  1.00  0.00     0.000 HD 
BRANCH  20  22
HETATM   22  C   UNL     1     -10.636  13.304  68.005  1.00  0.00    -0.240 C  
HETATM   23  O   UNL     1      -9.490  13.160  68.422  1.00  0.00    -0.213 OA 
BRANCH  22  24
HETATM   24  N   UNL     1     -10.895  14.192  66.969  1.00  0.00    -0.292 N  
HETATM   25  C   UNL     1     -11.884  13.903  65.945  1.00  0.00    -0.382 C  
HETATM   26  C   UNL     1     -11.315  14.559  64.701  1.00  0.00    -0.372 C  
HETATM   27  C   UNL     1     -10.575  15.787  65.226  1.00  0.00    -0.446 C  
HETATM   28  C   UNL     1     -10.184  15.439  66.665  1.00  0.00    -0.277 C  
BRANCH  28  29
HETATM   29  C   UNL     1     -10.608  16.563  67.627  1.00  0.00    -0.321 C  
HETATM   30  N   UNL     1      -9.760  17.631  67.728  1.00  0.00    -0.272 N  
HETATM   31  O   UNL     1     -11.585  16.464  68.365  1.00  0.00    -0.286 OA 
HETATM   32  H1  UNL     1     -10.042  18.375  68.366  1.00  0.00     0.000 HD 
HETATM   33  H2  UNL     1      -8.893  17.679  67.194  1.00  0.00     0.000 HD 
ENDBRANCH  28  29
ENDBRANCH  22  24
ENDBRANCH  20  22
ENDBRANCH   6  20
TORSDOF 6
ENDMDL
MODEL      221
REMARK 921   NORMALIZED FREE ENERGY PREDICTED BY IDOCK:   -4.89 KCAL/MOL
REMARK 922        TOTAL FREE ENERGY PREDICTED BY IDOCK:   -7.70 KCAL/MOL
REMARK 923 INTER-LIGAND FREE ENERGY PREDICTED BY IDOCK:   -6.87 KCAL/MOL
REMARK 924 INTRA-LIGAND FREE ENERGY PREDICTED BY IDOCK:   -0.83 KCAL/MOL
REMARK 927      BINDING AFFINITY PREDICTED BY RF-SCORE:    0.00 PKD
ROOT
HETATM    1  C   UNL     1     -12.115  12.349  67.375  1.00  0.00    -0.075 C  
HETATM    2  C   UNL     1     -10.639  12.515  67.294  1.00  0.00    -0.227 A  
HETATM    3  C   UNL     1      -9.889  13.551  66.732  1.00  0.00    -0.267 A  
HETATM    4  S   UNL     1      -8.213  13.132  66.868  1.00  0.00     0.135 SA 
HETATM    5  N   UNL     1      -9.897  11.495  67.879  1.00  0.00    -0.180 NA 
HETATM    6  C   UNL     1      -8.625  11.725  67.731  1.00  0.00    -0.151 A  
ENDROOT
BRANCH   3   7
HETATM    7  C   UNL     1     -10.277  14.813  66.068  1.00  0.00    -0.320 A  
HETATM    8  C   UNL     1     -10.283  17.251  65.927  1.00  0.00    -0.261 A  
HETATM    9  C   UNL     1     -11.426  16.002  64.341  1.00  0.00    -0.242 A  
HETATM   10  C   UNL     1      -9.891  16.070  66.573  1.00  0.00    -0.284 A  
HETATM   11  N   UNL     1     -11.063  17.208  64.822  1.00  0.00    -0.925 NA 
HETATM   12  C   UNL     1     -11.054  14.799  64.911  1.00  0.00    -0.416 A  
BRANCH   8  13
HETATM   13  C   UNL     1      -9.904  18.639  66.461  1.00  0.00    -0.388 C  
HETATM   14  F   UNL     1     -11.191  19.811  68.117  1.00  0.00    -0.243 F  
HETATM   15  C   UNL     1      -8.380  18.894  66.320  1.00  0.00    -0.274 C  
HETATM   16  C   UNL     1     -10.606  19.711  65.597  1.00  0.00    -0.462 C  
HETATM   17  F   UNL     1      -9.229  19.116  68.732  1.00  0.00    -0.364 F  
HETATM   18  F   UNL     1     -10.857  17.703  68.488  1.00  0.00    -0.327 F  
HETATM   19  C   UNL     1     -10.292  18.808  67.949  1.00  0.00    -0.406 C  
ENDBRANCH   8  13
ENDBRANCH   3   7
BRANCH   6  20
HETATM   20  N   UNL     1      -7.543  11.011  68.164  1.00  0.00    -0.091 N  
HETATM   21  H   UNL     1      -6.847  10.724  67.476  1.00  0.00     0.000 HD 
BRANCH  20  22
HETATM   22  C   UNL     1      -7.343  10.660  69.475  1.00  0.00    -0.141 C  
HETATM   23  O   UNL     1      -6.789  11.351  70.326  1.00  0.00    -0.096 OA 
BRANCH  22  24
HETATM   24  N   UNL     1      -7.829   9.402  69.806  1.00  0.00    -0.100 N  
HETATM   25  C   UNL     1      -9.168   9.216  70.337  1.00  0.00    -0.233 C  
HETATM   26  C   UNL     1      -9.020   8.036  71.279  1.00  0.00    -0.166 C  
HETATM   27  C   UNL     1      -7.944   7.169  70.632  1.00  0.00    -0.101 C  
HETATM   28  C   UNL     1      -7.093   8.133  69.800  1.00  0.00    -0.060 C  
BRANCH  28  29
HETATM   29  C   UNL     1      -6.923   7.602  68.366  1.00  0.00    -0.072 C  
HETATM   30  N   UNL     1      -7.107   6.259  68.187  1.00  0.00    -0.080 N  
HETATM   31  O   UNL     1      -6.520   8.308  67.446  1.00  0.00    -0.055 OA 
HETATM   32  H1  UNL     1      -6.994   5.907  67.236  1.00  0.00     0.000 HD 
HETATM   33  H2  UNL     1      -7.345   5.642  68.963  1.00  0.00     0.000 HD 
ENDBRANCH  28  29
ENDBRANCH  22  24
ENDBRANCH  20  22
ENDBRANCH   6  20
TORSDOF 6
ENDMDL
MODEL      222
REMARK 921   NORMALIZED FREE ENERGY PREDICTED BY IDOCK:   -4.87 KCAL/MOL
REMARK 922        TOTAL FREE ENERGY PREDICTED BY IDOCK:   -7.68 KCAL/MOL
REMARK 923 INTER-LIGAND FREE ENERGY PREDICTED BY IDOCK:   -6.88 KCAL/MOL
REMARK 924 INTRA-LIGAND FREE ENERGY PREDICTED BY IDOCK:   -0.80 KCAL/MOL
REMARK 927      BINDING AFFINITY PREDICTED BY RF-SCORE:    0.00 PKD
ROOT
HETATM    1  C   UNL     1     -12.115  11.250  69.223  1.00  0.00    -0.372 C  
HETATM    2  C   UNL     1     -11.131  12.187  68.619  1.00  0.00    -0.251 A  
HETATM    3  C   UNL     1      -9.841  11.939  68.143  1.00  0.00    -0.192 A  
HETATM    4  S   UNL     1      -9.156  13.450  67.642  1.00  0.00    -0.215 SA 
HETATM    5  N   UNL     1     -11.566  13.502  68.497  1.00  0.00    -0.309 NA 
HETATM    6  C   UNL     1     -10.624  14.239  67.983  1.00  0.00    -0.238 A  
ENDROOT
BRANCH   3   7
HETATM    7  C   UNL     1      -9.036  10.703  68.049  1.00  0.00    -0.140 A  
HETATM    8  C   UNL     1      -8.836   8.269  68.014  1.00  0.00    -0.135 A  
HETATM    9  C   UNL     1      -6.931   9.585  67.868  1.00  0.00    -0.079 A  
HETATM   10  C   UNL     1      -9.626   9.425  68.096  1.00  0.00    -0.158 A  
HETATM   11  N   UNL     1      -7.488   8.359  67.917  1.00  0.00    -0.096 NA 
HETATM   12  C   UNL     1      -7.650  10.764  67.917  1.00  0.00    -0.091 A  
BRANCH   8  13
HETATM   13  C   UNL     1      -9.439   6.859  68.088  1.00  0.00    -0.122 C  
HETATM   14  F   UNL     1      -9.568   5.585  70.120  1.00  0.00    -0.172 F  
HETATM   15  C   UNL     1     -10.465   6.633  66.947  1.00  0.00    -0.349 C  
HETATM   16  C   UNL     1      -8.311   5.827  67.869  1.00  0.00    -0.104 C  
HETATM   17  F   UNL     1     -11.452   6.272  69.289  1.00  0.00    -0.435 F  
HETATM   18  F   UNL     1     -10.120   7.675  70.271  1.00  0.00    -0.192 F  
HETATM   19  C   UNL     1     -10.147   6.607  69.440  1.00  0.00    -0.173 C  
ENDBRANCH   8  13
ENDBRANCH   3   7
BRANCH   6  20
HETATM   20  N   UNL     1     -10.619  15.568  67.664  1.00  0.00    -0.283 N  
HETATM   21  H   UNL     1     -11.039  15.854  66.779  1.00  0.00     0.000 HD 
BRANCH  20  22
HETATM   22  C   UNL     1     -10.080  16.538  68.470  1.00  0.00    -0.255 C  
HETATM   23  O   UNL     1      -9.754  16.394  69.645  1.00  0.00    -0.147 OA 
BRANCH  22  24
HETATM   24  N   UNL     1      -9.917  17.768  67.846  1.00  0.00    -0.306 N  
HETATM   25  C   UNL     1     -10.482  18.986  68.401  1.00  0.00    -0.205 C  
HETATM   26  C   UNL     1     -10.827  19.812  67.176  1.00  0.00    -0.467 C  
HETATM   27  C   UNL     1      -9.754  19.441  66.156  1.00  0.00    -0.423 C  
HETATM   28  C   UNL     1      -9.298  18.031  66.543  1.00  0.00    -0.285 C  
BRANCH  28  29
HETATM   29  C   UNL     1      -7.763  17.967  66.640  1.00  0.00    -0.238 C  
HETATM   30  N   UNL     1      -7.141  19.058  67.181  1.00  0.00    -0.204 N  
HETATM   31  O   UNL     1      -7.110  17.051  66.148  1.00  0.00    -0.240 OA 
HETATM   32  H1  UNL     1      -6.124  19.015  67.245  1.00  0.00     0.000 HD 
HETATM   33  H2  UNL     1      -7.666  19.870  67.503  1.00  0.00     0.000 HD 
ENDBRANCH  28  29
ENDBRANCH  22  24
ENDBRANCH  20  22
ENDBRANCH   6  20
TORSDOF 6
ENDMDL
MODEL      223
REMARK 921   NORMALIZED FREE ENERGY PREDICTED BY IDOCK:   -4.86 KCAL/MOL
REMARK 922        TOTAL FREE ENERGY PREDICTED BY IDOCK:   -7.66 KCAL/MOL
REMARK 923 INTER-LIGAND FREE ENERGY PREDICTED BY IDOCK:   -6.56 KCAL/MOL
REMARK 924 INTRA-LIGAND FREE ENERGY PREDICTED BY IDOCK:   -1.10 KCAL/MOL
REMARK 927      BINDING AFFINITY PREDICTED BY RF-SCORE:    0.00 PKD
ROOT
HETATM    1  C   UNL     1      -7.551   9.385  69.549  1.00  0.00    -0.086 C  
HETATM    2  C   UNL     1      -8.234   9.208  68.240  1.00  0.00    -0.116 A  
HETATM    3  C   UNL     1      -8.739  10.170  67.362  1.00  0.00    -0.125 A  
HETATM    4  S   UNL     1      -9.501   9.343  66.043  1.00  0.00    -0.260 SA 
HETATM    5  N   UNL     1      -8.373   7.890  67.820  1.00  0.00    -0.128 NA 
HETATM    6  C   UNL     1      -9.002   7.847  66.681  1.00  0.00    -0.151 A  
ENDROOT
BRANCH   3   7
HETATM    7  C   UNL     1      -8.754  11.648  67.406  1.00  0.00    -0.155 A  
HETATM    8  C   UNL     1      -9.870  13.795  67.074  1.00  0.00    -0.251 A  
HETATM    9  C   UNL     1      -7.672  13.740  67.811  1.00  0.00    -0.168 A  
HETATM   10  C   UNL     1      -9.889  12.393  67.031  1.00  0.00    -0.214 A  
HETATM   11  N   UNL     1      -8.752  14.460  67.449  1.00  0.00    -0.192 NA 
HETATM   12  C   UNL     1      -7.629  12.359  67.819  1.00  0.00    -0.134 A  
BRANCH   8  13
HETATM   13  C   UNL     1     -11.078  14.641  66.647  1.00  0.00    -0.334 C  
HETATM   14  F   UNL     1     -10.911  16.521  65.159  1.00  0.00    -0.372 F  
HETATM   15  C   UNL     1     -12.392  13.824  66.744  1.00  0.00    -0.365 C  
HETATM   16  C   UNL     1     -11.226  15.822  67.633  1.00  0.00    -0.246 C  
HETATM   17  F   UNL     1     -11.955  14.776  64.400  1.00  0.00    -0.413 F  
HETATM   18  F   UNL     1      -9.795  14.753  64.589  1.00  0.00    -0.287 F  
HETATM   19  C   UNL     1     -10.931  15.163  65.198  1.00  0.00    -0.417 C  
ENDBRANCH   8  13
ENDBRANCH   3   7
BRANCH   6  20
HETATM   20  N   UNL     1      -9.333   6.779  65.896  1.00  0.00    -0.389 N  
HETATM   21  H   UNL     1      -9.044   6.791  64.917  1.00  0.00     0.000 HD 
BRANCH  20  22
HETATM   22  C   UNL     1     -10.032   5.691  66.353  1.00  0.00    -0.152 C  
HETATM   23  O   UNL     1     -11.046   5.730  67.045  1.00  0.00    -0.210 OA 
BRANCH  22  24
HETATM   24  N   UNL     1      -9.495   4.469  65.969  1.00  0.00    -0.158 N  
HETATM   25  C   UNL     1      -9.344   3.372  66.910  1.00  0.00    -0.175 C  
HETATM   26  C   UNL     1      -8.091   2.662  66.434  1.00  0.00    -0.083 C  
HETATM   27  C   UNL     1      -8.108   2.840  64.918  1.00  0.00    -0.086 C  
HETATM   28  C   UNL     1      -8.907   4.122  64.671  1.00  0.00    -0.136 C  
BRANCH  28  29
HETATM   29  C   UNL     1     -10.004   3.880  63.618  1.00  0.00    -0.174 C  
HETATM   30  N   UNL     1     -10.085   4.791  62.602  1.00  0.00    -0.359 N  
HETATM   31  O   UNL     1     -10.848   2.996  63.737  1.00  0.00    -0.223 OA 
HETATM   32  H1  UNL     1     -10.812   4.631  61.904  1.00  0.00     0.000 HD 
HETATM   33  H2  UNL     1      -9.452   5.589  62.545  1.00  0.00     0.000 HD 
ENDBRANCH  28  29
ENDBRANCH  22  24
ENDBRANCH  20  22
ENDBRANCH   6  20
TORSDOF 6
ENDMDL
MODEL      224
REMARK 921   NORMALIZED FREE ENERGY PREDICTED BY IDOCK:   -4.84 KCAL/MOL
REMARK 922        TOTAL FREE ENERGY PREDICTED BY IDOCK:   -7.63 KCAL/MOL
REMARK 923 INTER-LIGAND FREE ENERGY PREDICTED BY IDOCK:   -6.25 KCAL/MOL
REMARK 924 INTRA-LIGAND FREE ENERGY PREDICTED BY IDOCK:   -1.38 KCAL/MOL
REMARK 927      BINDING AFFINITY PREDICTED BY RF-SCORE:    0.00 PKD
ROOT
HETATM    1  C   UNL     1     -11.167  10.381  68.139  1.00  0.00    -0.333 C  
HETATM    2  C   UNL     1      -9.832   9.790  67.854  1.00  0.00    -0.149 A  
HETATM    3  C   UNL     1      -8.617  10.425  67.587  1.00  0.00    -0.118 A  
HETATM    4  S   UNL     1      -7.438   9.201  67.246  1.00  0.00    -0.088 SA 
HETATM    5  N   UNL     1      -9.786   8.401  67.872  1.00  0.00    -0.153 NA 
HETATM    6  C   UNL     1      -8.584   7.990  67.587  1.00  0.00    -0.130 A  
ENDROOT
BRANCH   3   7
HETATM    7  C   UNL     1      -8.232  11.851  67.521  1.00  0.00    -0.155 A  
HETATM    8  C   UNL     1      -8.716  14.182  66.976  1.00  0.00    -0.204 A  
HETATM    9  C   UNL     1      -6.634  13.603  67.820  1.00  0.00    -0.171 A  
HETATM   10  C   UNL     1      -9.113  12.838  67.037  1.00  0.00    -0.220 A  
HETATM   11  N   UNL     1      -7.470  14.552  67.354  1.00  0.00    -0.190 NA 
HETATM   12  C   UNL     1      -6.967  12.266  67.933  1.00  0.00    -0.104 A  
BRANCH   8  13
HETATM   13  C   UNL     1      -9.638  15.281  66.431  1.00  0.00    -0.317 C  
HETATM   14  F   UNL     1     -11.992  15.383  66.901  1.00  0.00    -0.124 F  
HETATM   15  C   UNL     1      -8.839  16.573  66.118  1.00  0.00    -0.342 C  
HETATM   16  C   UNL     1     -10.235  14.804  65.088  1.00  0.00    -0.410 C  
HETATM   17  F   UNL     1     -10.763  16.943  67.776  1.00  0.00    -0.315 F  
HETATM   18  F   UNL     1     -10.704  14.932  68.584  1.00  0.00    -0.226 F  
HETATM   19  C   UNL     1     -10.766  15.633  67.429  1.00  0.00    -0.309 C  
ENDBRANCH   8  13
ENDBRANCH   3   7
BRANCH   6  20
HETATM   20  N   UNL     1      -8.078   6.722  67.518  1.00  0.00    -0.114 N  
HETATM   21  H   UNL     1      -7.095   6.607  67.271  1.00  0.00     0.000 HD 
BRANCH  20  22
HETATM   22  C   UNL     1      -8.823   5.596  67.762  1.00  0.00    -0.105 C  
HETATM   23  O   UNL     1      -9.401   4.921  66.914  1.00  0.00    -0.121 OA 
BRANCH  22  24
HETATM   24  N   UNL     1      -8.893   5.242  69.103  1.00  0.00    -0.099 N  
HETATM   25  C   UNL     1      -7.705   5.159  69.934  1.00  0.00    -0.068 C  
HETATM   26  C   UNL     1      -8.025   4.040  70.907  1.00  0.00    -0.059 C  
HETATM   27  C   UNL     1      -9.532   4.145  71.120  1.00  0.00    -0.234 C  
HETATM   28  C   UNL     1     -10.077   4.797  69.846  1.00  0.00    -0.229 C  
BRANCH  28  29
HETATM   29  C   UNL     1     -10.987   5.988  70.196  1.00  0.00    -0.359 C  
HETATM   30  N   UNL     1     -11.771   6.473  69.186  1.00  0.00    -0.565 N  
HETATM   31  O   UNL     1     -10.932   6.563  71.279  1.00  0.00    -0.242 OA 
HETATM   32  H1  UNL     1     -12.373   7.262  69.418  1.00  0.00     0.000 HD 
HETATM   33  H2  UNL     1     -11.752   6.067  68.251  1.00  0.00     0.000 HD 
ENDBRANCH  28  29
ENDBRANCH  22  24
ENDBRANCH  20  22
ENDBRANCH   6  20
TORSDOF 6
ENDMDL
MODEL      225
REMARK 921   NORMALIZED FREE ENERGY PREDICTED BY IDOCK:   -4.83 KCAL/MOL
REMARK 922        TOTAL FREE ENERGY PREDICTED BY IDOCK:   -7.62 KCAL/MOL
REMARK 923 INTER-LIGAND FREE ENERGY PREDICTED BY IDOCK:   -6.49 KCAL/MOL
REMARK 924 INTRA-LIGAND FREE ENERGY PREDICTED BY IDOCK:   -1.12 KCAL/MOL
REMARK 927      BINDING AFFINITY PREDICTED BY RF-SCORE:    0.00 PKD
ROOT
HETATM    1  C   UNL     1     -12.379  11.825  70.697  1.00  0.00    -0.421 C  
HETATM    2  C   UNL     1     -11.630  10.974  69.734  1.00  0.00    -0.325 A  
HETATM    3  C   UNL     1     -11.125  11.292  68.470  1.00  0.00    -0.235 A  
HETATM    4  S   UNL     1     -10.428   9.856  67.797  1.00  0.00    -0.259 SA 
HETATM    5  N   UNL     1     -11.383   9.675  70.162  1.00  0.00    -0.243 NA 
HETATM    6  C   UNL     1     -10.747   9.013  69.239  1.00  0.00    -0.174 A  
ENDROOT
BRANCH   3   7
HETATM    7  C   UNL     1     -11.131  12.543  67.683  1.00  0.00    -0.301 A  
HETATM    8  C   UNL     1     -10.294  14.789  67.214  1.00  0.00    -0.247 A  
HETATM    9  C   UNL     1     -12.016  13.910  65.932  1.00  0.00    -0.407 A  
HETATM   10  C   UNL     1     -10.259  13.610  67.973  1.00  0.00    -0.248 A  
HETATM   11  N   UNL     1     -11.187  14.936  66.207  1.00  0.00    -0.342 NA 
HETATM   12  C   UNL     1     -12.017  12.711  66.620  1.00  0.00    -0.382 A  
BRANCH   8  13
HETATM   13  C   UNL     1      -9.378  15.983  67.516  1.00  0.00    -0.217 C  
HETATM   14  F   UNL     1     -10.038  18.270  67.183  1.00  0.00    -0.302 F  
HETATM   15  C   UNL     1      -8.319  15.615  68.588  1.00  0.00    -0.177 C  
HETATM   16  C   UNL     1      -8.593  16.341  66.234  1.00  0.00    -0.374 C  
HETATM   17  F   UNL     1      -9.768  17.631  69.240  1.00  0.00    -0.239 F  
HETATM   18  F   UNL     1     -11.507  16.982  68.119  1.00  0.00    -0.264 F  
HETATM   19  C   UNL     1     -10.177  17.209  68.019  1.00  0.00    -0.332 C  
ENDBRANCH   8  13
ENDBRANCH   3   7
BRANCH   6  20
HETATM   20  N   UNL     1     -10.282   7.728  69.237  1.00  0.00    -0.207 N  
HETATM   21  H   UNL     1     -10.707   7.062  68.592  1.00  0.00     0.000 HD 
BRANCH  20  22
HETATM   22  C   UNL     1      -9.275   7.286  70.057  1.00  0.00    -0.148 C  
HETATM   23  O   UNL     1      -9.239   7.410  71.279  1.00  0.00    -0.149 OA 
BRANCH  22  24
HETATM   24  N   UNL     1      -8.235   6.654  69.388  1.00  0.00    -0.122 N  
HETATM   25  C   UNL     1      -8.476   5.575  68.447  1.00  0.00    -0.101 C  
HETATM   26  C   UNL     1      -7.260   4.683  68.604  1.00  0.00    -0.057 C  
HETATM   27  C   UNL     1      -6.123   5.648  68.931  1.00  0.00    -0.025 C  
HETATM   28  C   UNL     1      -6.795   6.858  69.584  1.00  0.00    -0.051 C  
BRANCH  28  29
HETATM   29  C   UNL     1      -6.328   8.163  68.914  1.00  0.00    -0.040 C  
HETATM   30  N   UNL     1      -5.254   8.789  69.483  1.00  0.00    -0.030 N  
HETATM   31  O   UNL     1      -6.951   8.692  67.998  1.00  0.00    -0.072 OA 
HETATM   32  H1  UNL     1      -4.945   9.653  69.039  1.00  0.00     0.000 HD 
HETATM   33  H2  UNL     1      -4.788   8.411  70.307  1.00  0.00     0.000 HD 
ENDBRANCH  28  29
ENDBRANCH  22  24
ENDBRANCH  20  22
ENDBRANCH   6  20
TORSDOF 6
ENDMDL
MODEL      226
REMARK 921   NORMALIZED FREE ENERGY PREDICTED BY IDOCK:   -4.83 KCAL/MOL
REMARK 922        TOTAL FREE ENERGY PREDICTED BY IDOCK:   -7.62 KCAL/MOL
REMARK 923 INTER-LIGAND FREE ENERGY PREDICTED BY IDOCK:   -6.21 KCAL/MOL
REMARK 924 INTRA-LIGAND FREE ENERGY PREDICTED BY IDOCK:   -1.41 KCAL/MOL
REMARK 927      BINDING AFFINITY PREDICTED BY RF-SCORE:    0.00 PKD
ROOT
HETATM    1  C   UNL     1      -7.049  11.101  69.243  1.00  0.00    -0.123 C  
HETATM    2  C   UNL     1      -8.471  10.671  69.311  1.00  0.00    -0.091 A  
HETATM    3  C   UNL     1      -9.593  11.197  68.664  1.00  0.00    -0.196 A  
HETATM    4  S   UNL     1     -10.985  10.325  69.215  1.00  0.00    -0.251 SA 
HETATM    5  N   UNL     1      -8.717   9.572  70.125  1.00  0.00    -0.215 NA 
HETATM    6  C   UNL     1      -9.989   9.296  70.132  1.00  0.00    -0.215 A  
ENDROOT
BRANCH   3   7
HETATM    7  C   UNL     1      -9.757  12.308  67.702  1.00  0.00    -0.194 A  
HETATM    8  C   UNL     1      -9.792  14.688  67.157  1.00  0.00    -0.237 A  
HETATM    9  C   UNL     1     -10.244  13.120  65.508  1.00  0.00    -0.287 A  
HETATM   10  C   UNL     1      -9.621  13.655  68.090  1.00  0.00    -0.221 A  
HETATM   11  N   UNL     1     -10.120  14.412  65.873  1.00  0.00    -0.310 NA 
HETATM   12  C   UNL     1     -10.063  12.053  66.367  1.00  0.00    -0.242 A  
BRANCH   8  13
HETATM   13  C   UNL     1      -9.679  16.168  67.547  1.00  0.00    -0.233 C  
HETATM   14  F   UNL     1      -7.696  17.132  68.504  1.00  0.00    -0.204 F  
HETATM   15  C   UNL     1     -10.660  17.039  66.720  1.00  0.00    -0.191 C  
HETATM   16  C   UNL     1     -10.101  16.324  69.025  1.00  0.00    -0.259 C  
HETATM   17  F   UNL     1      -8.210  17.773  66.495  1.00  0.00    -0.241 F  
HETATM   18  F   UNL     1      -7.391  15.793  66.829  1.00  0.00    -0.242 F  
HETATM   19  C   UNL     1      -8.245  16.710  67.336  1.00  0.00    -0.169 C  
ENDBRANCH   8  13
ENDBRANCH   3   7
BRANCH   6  20
HETATM   20  N   UNL     1     -10.671   8.295  70.766  1.00  0.00    -0.214 N  
HETATM   21  H   UNL     1     -11.009   8.465  71.714  1.00  0.00     0.000 HD 
BRANCH  20  22
HETATM   22  C   UNL     1     -10.924   7.073  70.196  1.00  0.00    -0.272 C  
HETATM   23  O   UNL     1     -12.036   6.581  70.020  1.00  0.00    -0.358 OA 
BRANCH  22  24
HETATM   24  N   UNL     1      -9.785   6.380  69.810  1.00  0.00    -0.154 N  
HETATM   25  C   UNL     1      -8.924   5.724  70.779  1.00  0.00    -0.148 C  
HETATM   26  C   UNL     1      -7.539   5.852  70.174  1.00  0.00    -0.090 C  
HETATM   27  C   UNL     1      -7.778   5.788  68.668  1.00  0.00    -0.090 C  
HETATM   28  C   UNL     1      -9.209   6.291  68.463  1.00  0.00    -0.123 C  
BRANCH  28  29
HETATM   29  C   UNL     1     -10.007   5.308  67.588  1.00  0.00    -0.165 C  
HETATM   30  N   UNL     1      -9.627   3.996  67.644  1.00  0.00    -0.179 N  
HETATM   31  O   UNL     1     -10.855   5.683  66.783  1.00  0.00    -0.291 OA 
HETATM   32  H1  UNL     1     -10.156   3.345  67.063  1.00  0.00     0.000 HD 
HETATM   33  H2  UNL     1      -8.856   3.686  68.234  1.00  0.00     0.000 HD 
ENDBRANCH  28  29
ENDBRANCH  22  24
ENDBRANCH  20  22
ENDBRANCH   6  20
TORSDOF 6
ENDMDL
MODEL      227
REMARK 921   NORMALIZED FREE ENERGY PREDICTED BY IDOCK:   -4.80 KCAL/MOL
REMARK 922        TOTAL FREE ENERGY PREDICTED BY IDOCK:   -7.58 KCAL/MOL
REMARK 923 INTER-LIGAND FREE ENERGY PREDICTED BY IDOCK:   -6.30 KCAL/MOL
REMARK 924 INTRA-LIGAND FREE ENERGY PREDICTED BY IDOCK:   -1.28 KCAL/MOL
REMARK 927      BINDING AFFINITY PREDICTED BY RF-SCORE:    0.00 PKD
ROOT
HETATM    1  C   UNL     1     -11.741   8.113  72.417  1.00  0.00    -0.461 C  
HETATM    2  C   UNL     1     -11.324   8.900  71.226  1.00  0.00    -0.300 A  
HETATM    3  C   UNL     1     -10.266   8.682  70.340  1.00  0.00    -0.193 A  
HETATM    4  S   UNL     1     -10.239   9.992  69.206  1.00  0.00    -0.229 SA 
HETATM    5  N   UNL     1     -12.117  10.007  70.943  1.00  0.00    -0.329 NA 
HETATM    6  C   UNL     1     -11.652  10.635  69.902  1.00  0.00    -0.316 A  
ENDROOT
BRANCH   3   7
HETATM    7  C   UNL     1      -9.239   7.622  70.258  1.00  0.00    -0.157 A  
HETATM    8  C   UNL     1      -8.274   5.645  69.196  1.00  0.00    -0.100 A  
HETATM    9  C   UNL     1      -7.296   6.520  71.109  1.00  0.00    -0.080 A  
HETATM   10  C   UNL     1      -9.256   6.646  69.243  1.00  0.00    -0.140 A  
HETATM   11  N   UNL     1      -7.309   5.580  70.143  1.00  0.00    -0.067 NA 
HETATM   12  C   UNL     1      -8.215   7.549  71.200  1.00  0.00    -0.101 A  
BRANCH   8  13
HETATM   13  C   UNL     1      -8.275   4.549  68.121  1.00  0.00    -0.090 C  
HETATM   14  F   UNL     1      -8.346   5.014  65.765  1.00  0.00    -0.109 F  
HETATM   15  C   UNL     1      -7.615   3.250  68.651  1.00  0.00    -0.052 C  
HETATM   16  C   UNL     1      -9.739   4.187  67.786  1.00  0.00    -0.168 C  
HETATM   17  F   UNL     1      -6.499   4.167  66.528  1.00  0.00    -0.034 F  
HETATM   18  F   UNL     1      -6.995   6.238  66.936  1.00  0.00    -0.062 F  
HETATM   19  C   UNL     1      -7.523   4.996  66.845  1.00  0.00    -0.087 C  
ENDBRANCH   8  13
ENDBRANCH   3   7
BRANCH   6  20
HETATM   20  N   UNL     1     -12.122  11.747  69.261  1.00  0.00    -0.269 N  
HETATM   21  H   UNL     1     -12.561  11.629  68.347  1.00  0.00     0.000 HD 
BRANCH  20  22
HETATM   22  C   UNL     1     -12.035  13.014  69.780  1.00  0.00    -0.308 C  
HETATM   23  O   UNL     1     -12.433  13.364  70.887  1.00  0.00    -0.361 OA 
BRANCH  22  24
HETATM   24  N   UNL     1     -11.437  13.935  68.929  1.00  0.00    -0.279 N  
HETATM   25  C   UNL     1     -10.278  14.711  69.336  1.00  0.00    -0.085 C  
HETATM   26  C   UNL     1     -10.459  16.032  68.614  1.00  0.00    -0.251 C  
HETATM   27  C   UNL     1     -11.150  15.657  67.306  1.00  0.00    -0.238 C  
HETATM   28  C   UNL     1     -11.905  14.359  67.605  1.00  0.00    -0.378 C  
BRANCH  28  29
HETATM   29  C   UNL     1     -11.586  13.292  66.542  1.00  0.00    -0.350 C  
HETATM   30  N   UNL     1     -12.532  13.094  65.575  1.00  0.00    -0.470 N  
HETATM   31  O   UNL     1     -10.602  12.562  66.616  1.00  0.00    -0.234 OA 
HETATM   32  H1  UNL     1     -12.321  12.386  64.871  1.00  0.00     0.000 HD 
HETATM   33  H2  UNL     1     -13.402  13.625  65.559  1.00  0.00     0.000 HD 
ENDBRANCH  28  29
ENDBRANCH  22  24
ENDBRANCH  20  22
ENDBRANCH   6  20
TORSDOF 6
ENDMDL
MODEL      228
REMARK 921   NORMALIZED FREE ENERGY PREDICTED BY IDOCK:   -4.78 KCAL/MOL
REMARK 922        TOTAL FREE ENERGY PREDICTED BY IDOCK:   -7.55 KCAL/MOL
REMARK 923 INTER-LIGAND FREE ENERGY PREDICTED BY IDOCK:   -7.04 KCAL/MOL
REMARK 924 INTRA-LIGAND FREE ENERGY PREDICTED BY IDOCK:   -0.51 KCAL/MOL
REMARK 927      BINDING AFFINITY PREDICTED BY RF-SCORE:    0.00 PKD
ROOT
HETATM    1  C   UNL     1     -12.777  11.038  70.990  1.00  0.00    -0.485 C  
HETATM    2  C   UNL     1     -11.659  10.860  70.026  1.00  0.00    -0.341 A  
HETATM    3  C   UNL     1     -10.997  11.810  69.245  1.00  0.00    -0.175 A  
HETATM    4  S   UNL     1      -9.843  10.979  68.255  1.00  0.00    -0.185 SA 
HETATM    5  N   UNL     1     -11.193   9.557  69.897  1.00  0.00    -0.214 NA 
HETATM    6  C   UNL     1     -10.237   9.509  69.015  1.00  0.00    -0.200 A  
ENDROOT
BRANCH   3   7
HETATM    7  C   UNL     1     -11.147  13.276  69.121  1.00  0.00    -0.259 A  
HETATM    8  C   UNL     1     -10.549  15.417  68.110  1.00  0.00    -0.263 A  
HETATM    9  C   UNL     1     -12.130  15.344  69.806  1.00  0.00    -0.347 A  
HETATM   10  C   UNL     1     -10.392  14.026  68.199  1.00  0.00    -0.241 A  
HETATM   11  N   UNL     1     -11.407  16.069  68.929  1.00  0.00    -0.357 NA 
HETATM   12  C   UNL     1     -12.046  13.970  69.928  1.00  0.00    -0.406 A  
BRANCH   8  13
HETATM   13  C   UNL     1      -9.725  16.272  67.137  1.00  0.00    -0.240 C  
HETATM   14  F   UNL     1      -9.110  18.552  67.580  1.00  0.00    -0.271 F  
HETATM   15  C   UNL     1      -8.848  15.382  66.219  1.00  0.00    -0.302 C  
HETATM   16  C   UNL     1     -10.695  17.034  66.206  1.00  0.00    -0.086 C  
HETATM   17  F   UNL     1      -7.496  17.101  67.562  1.00  0.00    -0.156 F  
HETATM   18  F   UNL     1      -8.880  17.167  69.230  1.00  0.00    -0.185 F  
HETATM   19  C   UNL     1      -8.802  17.265  67.883  1.00  0.00    -0.235 C  
ENDBRANCH   8  13
ENDBRANCH   3   7
BRANCH   6  20
HETATM   20  N   UNL     1      -9.480   8.452  68.591  1.00  0.00    -0.146 N  
HETATM   21  H   UNL     1      -8.701   8.150  69.176  1.00  0.00     0.000 HD 
BRANCH  20  22
HETATM   22  C   UNL     1      -9.711   7.777  67.420  1.00  0.00    -0.163 C  
HETATM   23  O   UNL     1     -10.661   7.959  66.663  1.00  0.00    -0.223 OA 
BRANCH  22  24
HETATM   24  N   UNL     1      -8.756   6.814  67.121  1.00  0.00    -0.119 N  
HETATM   25  C   UNL     1      -7.657   6.523  68.026  1.00  0.00    -0.103 C  
HETATM   26  C   UNL     1      -6.516   6.153  67.098  1.00  0.00    -0.050 C  
HETATM   27  C   UNL     1      -7.198   5.475  65.913  1.00  0.00    -0.072 C  
HETATM   28  C   UNL     1      -8.614   6.056  65.874  1.00  0.00    -0.150 C  
BRANCH  28  29
HETATM   29  C   UNL     1      -9.658   4.928  65.794  1.00  0.00    -0.170 C  
HETATM   30  N   UNL     1     -10.970   5.313  65.767  1.00  0.00    -0.743 N  
HETATM   31  O   UNL     1      -9.354   3.741  65.878  1.00  0.00    -0.151 OA 
HETATM   32  H1  UNL     1     -11.662   4.565  65.714  1.00  0.00     0.000 HD 
HETATM   33  H2  UNL     1     -11.241   6.295  65.797  1.00  0.00     0.000 HD 
ENDBRANCH  28  29
ENDBRANCH  22  24
ENDBRANCH  20  22
ENDBRANCH   6  20
TORSDOF 6
ENDMDL
MODEL      229
REMARK 921   NORMALIZED FREE ENERGY PREDICTED BY IDOCK:   -4.78 KCAL/MOL
REMARK 922        TOTAL FREE ENERGY PREDICTED BY IDOCK:   -7.54 KCAL/MOL
REMARK 923 INTER-LIGAND FREE ENERGY PREDICTED BY IDOCK:   -6.40 KCAL/MOL
REMARK 924 INTRA-LIGAND FREE ENERGY PREDICTED BY IDOCK:   -1.14 KCAL/MOL
REMARK 927      BINDING AFFINITY PREDICTED BY RF-SCORE:    0.00 PKD
ROOT
HETATM    1  C   UNL     1      -5.146  13.689  70.191  1.00  0.00    -0.093 C  
HETATM    2  C   UNL     1      -6.138  13.651  69.084  1.00  0.00    -0.093 A  
HETATM    3  C   UNL     1      -6.864  14.693  68.501  1.00  0.00    -0.098 A  
HETATM    4  S   UNL     1      -7.926  14.008  67.316  1.00  0.00    -0.079 SA 
HETATM    5  N   UNL     1      -6.363  12.393  68.537  1.00  0.00    -0.060 NA 
HETATM    6  C   UNL     1      -7.262  12.468  67.598  1.00  0.00    -0.136 A  
ENDROOT
BRANCH   3   7
HETATM    7  C   UNL     1      -6.885  16.150  68.750  1.00  0.00    -0.144 A  
HETATM    8  C   UNL     1      -7.794  18.382  68.352  1.00  0.00    -0.306 A  
HETATM    9  C   UNL     1      -6.011  18.106  69.810  1.00  0.00    -0.231 A  
HETATM   10  C   UNL     1      -7.803  17.002  68.105  1.00  0.00    -0.196 A  
HETATM   11  N   UNL     1      -6.883  18.927  69.193  1.00  0.00    -0.304 NA 
HETATM   12  C   UNL     1      -5.981  16.735  69.634  1.00  0.00    -0.218 A  
BRANCH   8  13
HETATM   13  C   UNL     1      -8.760  19.345  67.649  1.00  0.00    -0.350 C  
HETATM   14  F   UNL     1     -11.144  19.043  67.634  1.00  0.00    -0.478 F  
HETATM   15  C   UNL     1      -8.143  20.763  67.526  1.00  0.00    -0.203 C  
HETATM   16  C   UNL     1      -8.993  18.846  66.206  1.00  0.00    -0.267 C  
HETATM   17  F   UNL     1     -10.391  20.736  68.765  1.00  0.00    -0.290 F  
HETATM   18  F   UNL     1     -10.156  18.722  69.535  1.00  0.00    -0.318 F  
HETATM   19  C   UNL     1     -10.106  19.461  68.403  1.00  0.00    -0.444 C  
ENDBRANCH   8  13
ENDBRANCH   3   7
BRANCH   6  20
HETATM   20  N   UNL     1      -7.768  11.495  66.783  1.00  0.00    -0.206 N  
HETATM   21  H   UNL     1      -8.333  11.780  65.982  1.00  0.00     0.000 HD 
BRANCH  20  22
HETATM   22  C   UNL     1      -7.559  10.154  66.983  1.00  0.00    -0.092 C  
HETATM   23  O   UNL     1      -6.710   9.468  66.420  1.00  0.00    -0.073 OA 
BRANCH  22  24
HETATM   24  N   UNL     1      -8.415   9.579  67.914  1.00  0.00    -0.119 N  
HETATM   25  C   UNL     1      -7.944   9.143  69.217  1.00  0.00    -0.097 C  
HETATM   26  C   UNL     1      -8.811   7.938  69.528  1.00  0.00    -0.142 C  
HETATM   27  C   UNL     1     -10.152   8.260  68.874  1.00  0.00    -0.208 C  
HETATM   28  C   UNL     1      -9.823   9.216  67.724  1.00  0.00    -0.174 C  
BRANCH  28  29
HETATM   29  C   UNL     1     -10.725  10.462  67.783  1.00  0.00    -0.279 C  
HETATM   30  N   UNL     1     -11.585  10.542  68.843  1.00  0.00    -0.457 N  
HETATM   31  O   UNL     1     -10.773  11.283  66.872  1.00  0.00    -0.247 OA 
HETATM   32  H1  UNL     1     -12.183  11.367  68.882  1.00  0.00     0.000 HD 
HETATM   33  H2  UNL     1     -11.626   9.815  69.557  1.00  0.00     0.000 HD 
ENDBRANCH  28  29
ENDBRANCH  22  24
ENDBRANCH  20  22
ENDBRANCH   6  20
TORSDOF 6
ENDMDL
MODEL      230
REMARK 921   NORMALIZED FREE ENERGY PREDICTED BY IDOCK:   -4.75 KCAL/MOL
REMARK 922        TOTAL FREE ENERGY PREDICTED BY IDOCK:   -7.51 KCAL/MOL
REMARK 923 INTER-LIGAND FREE ENERGY PREDICTED BY IDOCK:   -6.62 KCAL/MOL
REMARK 924 INTRA-LIGAND FREE ENERGY PREDICTED BY IDOCK:   -0.88 KCAL/MOL
REMARK 927      BINDING AFFINITY PREDICTED BY RF-SCORE:    0.00 PKD
ROOT
HETATM    1  C   UNL     1      -5.147  14.709  71.544  1.00  0.00    -0.153 C  
HETATM    2  C   UNL     1      -6.081  14.493  70.407  1.00  0.00    -0.176 A  
HETATM    3  C   UNL     1      -6.669  15.425  69.548  1.00  0.00    -0.174 A  
HETATM    4  S   UNL     1      -7.734  14.572  68.480  1.00  0.00    -0.136 SA 
HETATM    5  N   UNL     1      -6.404  13.165  70.152  1.00  0.00    -0.029 NA 
HETATM    6  C   UNL     1      -7.242  13.091  69.159  1.00  0.00     0.084 A  
ENDROOT
BRANCH   3   7
HETATM    7  C   UNL     1      -6.557  16.896  69.449  1.00  0.00    -0.228 A  
HETATM    8  C   UNL     1      -7.084  19.021  68.367  1.00  0.00    -0.273 A  
HETATM    9  C   UNL     1      -5.672  18.983  70.207  1.00  0.00    -0.235 A  
HETATM   10  C   UNL     1      -7.216  17.627  68.441  1.00  0.00    -0.236 A  
HETATM   11  N   UNL     1      -6.296  19.689  69.243  1.00  0.00    -0.296 NA 
HETATM   12  C   UNL     1      -5.780  17.613  70.356  1.00  0.00    -0.145 A  
BRANCH   8  13
HETATM   13  C   UNL     1      -7.765  19.849  67.268  1.00  0.00    -0.311 C  
HETATM   14  F   UNL     1     -10.027  19.478  66.549  1.00  0.00    -0.364 F  
HETATM   15  C   UNL     1      -7.117  21.253  67.146  1.00  0.00    -0.213 C  
HETATM   16  C   UNL     1      -7.540  19.148  65.910  1.00  0.00    -0.239 C  
HETATM   17  F   UNL     1      -9.641  21.333  67.609  1.00  0.00    -0.492 F  
HETATM   18  F   UNL     1      -9.692  19.453  68.689  1.00  0.00    -0.387 F  
HETATM   19  C   UNL     1      -9.277  20.029  67.538  1.00  0.00    -0.364 C  
ENDBRANCH   8  13
ENDBRANCH   3   7
BRANCH   6  20
HETATM   20  N   UNL     1      -7.802  11.999  68.556  1.00  0.00    -0.155 N  
HETATM   21  H   UNL     1      -8.337  11.351  69.134  1.00  0.00     0.000 HD 
BRANCH  20  22
HETATM   22  C   UNL     1      -7.681  11.729  67.217  1.00  0.00    -0.158 C  
HETATM   23  O   UNL     1      -6.659  11.857  66.548  1.00  0.00    -0.007 OA 
BRANCH  22  24
HETATM   24  N   UNL     1      -8.852  11.276  66.622  1.00  0.00    -0.169 N  
HETATM   25  C   UNL     1      -9.486  10.035  67.031  1.00  0.00    -0.164 C  
HETATM   26  C   UNL     1     -10.104   9.509  65.749  1.00  0.00    -0.223 C  
HETATM   27  C   UNL     1     -10.500  10.765  64.978  1.00  0.00    -0.307 C  
HETATM   28  C   UNL     1      -9.549  11.859  65.470  1.00  0.00    -0.182 C  
BRANCH  28  29
HETATM   29  C   UNL     1     -10.338  13.115  65.882  1.00  0.00    -0.290 C  
HETATM   30  N   UNL     1     -10.781  13.159  67.175  1.00  0.00    -0.254 N  
HETATM   31  O   UNL     1     -10.669  13.979  65.075  1.00  0.00    -0.347 OA 
HETATM   32  H1  UNL     1     -11.304  13.991  67.447  1.00  0.00     0.000 HD 
HETATM   33  H2  UNL     1     -10.599  12.400  67.831  1.00  0.00     0.000 HD 
ENDBRANCH  28  29
ENDBRANCH  22  24
ENDBRANCH  20  22
ENDBRANCH   6  20
TORSDOF 6
ENDMDL
MODEL      231
REMARK 921   NORMALIZED FREE ENERGY PREDICTED BY IDOCK:   -4.74 KCAL/MOL
REMARK 922        TOTAL FREE ENERGY PREDICTED BY IDOCK:   -7.49 KCAL/MOL
REMARK 923 INTER-LIGAND FREE ENERGY PREDICTED BY IDOCK:   -7.36 KCAL/MOL
REMARK 924 INTRA-LIGAND FREE ENERGY PREDICTED BY IDOCK:   -0.13 KCAL/MOL
REMARK 927      BINDING AFFINITY PREDICTED BY RF-SCORE:    0.00 PKD
ROOT
HETATM    1  C   UNL     1      -9.772  11.925  66.223  1.00  0.00    -0.247 C  
HETATM    2  C   UNL     1     -10.492  11.791  67.518  1.00  0.00    -0.202 A  
HETATM    3  C   UNL     1     -10.882  12.778  68.426  1.00  0.00    -0.249 A  
HETATM    4  S   UNL     1     -11.606  11.992  69.791  1.00  0.00    -0.235 SA 
HETATM    5  N   UNL     1     -10.843  10.492  67.866  1.00  0.00    -0.260 NA 
HETATM    6  C   UNL     1     -11.443  10.484  69.021  1.00  0.00    -0.237 A  
ENDROOT
BRANCH   3   7
HETATM    7  C   UNL     1     -10.748  14.250  68.415  1.00  0.00    -0.257 A  
HETATM    8  C   UNL     1      -9.425  16.283  68.122  1.00  0.00    -0.215 A  
HETATM    9  C   UNL     1     -11.660  16.437  68.725  1.00  0.00    -0.144 A  
HETATM   10  C   UNL     1      -9.526  14.884  68.116  1.00  0.00    -0.202 A  
HETATM   11  N   UNL     1     -10.493  17.050  68.444  1.00  0.00    -0.348 NA 
HETATM   12  C   UNL     1     -11.837  15.067  68.711  1.00  0.00    -0.331 A  
BRANCH   8  13
HETATM   13  C   UNL     1      -8.105  17.009  67.828  1.00  0.00    -0.196 C  
HETATM   14  F   UNL     1      -7.867  18.663  66.102  1.00  0.00    -0.267 F  
HETATM   15  C   UNL     1      -7.195  17.039  69.083  1.00  0.00    -0.209 C  
HETATM   16  C   UNL     1      -7.334  16.213  66.751  1.00  0.00    -0.220 C  
HETATM   17  F   UNL     1      -7.719  19.372  68.148  1.00  0.00    -0.297 F  
HETATM   18  F   UNL     1      -9.647  18.815  67.327  1.00  0.00    -0.289 F  
HETATM   19  C   UNL     1      -8.342  18.463  67.358  1.00  0.00    -0.252 C  
ENDBRANCH   8  13
ENDBRANCH   3   7
BRANCH   6  20
HETATM   20  N   UNL     1     -11.977   9.446  69.731  1.00  0.00    -0.268 N  
HETATM   21  H   UNL     1     -12.833   9.013  69.385  1.00  0.00     0.000 HD 
BRANCH  20  22
HETATM   22  C   UNL     1     -11.422   8.954  70.885  1.00  0.00    -0.288 C  
HETATM   23  O   UNL     1     -11.545   9.442  72.005  1.00  0.00    -0.342 OA 
BRANCH  22  24
HETATM   24  N   UNL     1     -10.664   7.804  70.705  1.00  0.00    -0.227 N  
HETATM   25  C   UNL     1     -10.708   7.047  69.466  1.00  0.00    -0.241 C  
HETATM   26  C   UNL     1     -10.503   5.612  69.915  1.00  0.00    -0.378 C  
HETATM   27  C   UNL     1      -9.579   5.723  71.124  1.00  0.00    -0.201 C  
HETATM   28  C   UNL     1      -9.833   7.119  71.701  1.00  0.00    -0.162 C  
BRANCH  28  29
HETATM   29  C   UNL     1      -8.504   7.865  71.916  1.00  0.00    -0.122 C  
HETATM   30  N   UNL     1      -7.490   7.565  71.050  1.00  0.00    -0.072 N  
HETATM   31  O   UNL     1      -8.309   8.595  72.884  1.00  0.00    -0.400 OA 
HETATM   32  H1  UNL     1      -6.610   8.060  71.193  1.00  0.00     0.000 HD 
HETATM   33  H2  UNL     1      -7.608   6.884  70.301  1.00  0.00     0.000 HD 
ENDBRANCH  28  29
ENDBRANCH  22  24
ENDBRANCH  20  22
ENDBRANCH   6  20
TORSDOF 6
ENDMDL
MODEL      232
REMARK 921   NORMALIZED FREE ENERGY PREDICTED BY IDOCK:   -4.73 KCAL/MOL
REMARK 922        TOTAL FREE ENERGY PREDICTED BY IDOCK:   -7.48 KCAL/MOL
REMARK 923 INTER-LIGAND FREE ENERGY PREDICTED BY IDOCK:   -6.34 KCAL/MOL
REMARK 924 INTRA-LIGAND FREE ENERGY PREDICTED BY IDOCK:   -1.14 KCAL/MOL
REMARK 927      BINDING AFFINITY PREDICTED BY RF-SCORE:    0.00 PKD
ROOT
HETATM    1  C   UNL     1      -8.197   9.348  68.685  1.00  0.00    -0.112 C  
HETATM    2  C   UNL     1      -9.557   9.775  69.110  1.00  0.00    -0.188 A  
HETATM    3  C   UNL     1     -10.387   9.246  70.103  1.00  0.00    -0.222 A  
HETATM    4  S   UNL     1     -11.886  10.114  70.065  1.00  0.00    -0.133 SA 
HETATM    5  N   UNL     1     -10.072  10.872  68.430  1.00  0.00    -0.176 NA 
HETATM    6  C   UNL     1     -11.269  11.144  68.860  1.00  0.00    -0.256 A  
ENDROOT
BRANCH   3   7
HETATM    7  C   UNL     1     -10.207   8.136  71.063  1.00  0.00    -0.221 A  
HETATM    8  C   UNL     1      -9.557   5.843  71.596  1.00  0.00    -0.152 A  
HETATM    9  C   UNL     1     -10.388   7.224  73.265  1.00  0.00    -0.342 A  
HETATM   10  C   UNL     1      -9.707   6.881  70.665  1.00  0.00    -0.180 A  
HETATM   11  N   UNL     1      -9.915   6.019  72.890  1.00  0.00    -0.171 NA 
HETATM   12  C   UNL     1     -10.537   8.298  72.407  1.00  0.00    -0.408 A  
BRANCH   8  13
HETATM   13  C   UNL     1      -9.041   4.454  71.196  1.00  0.00    -0.180 C  
HETATM   14  F   UNL     1      -6.964   4.101  70.041  1.00  0.00    -0.038 F  
HETATM   15  C   UNL     1      -9.629   3.355  72.119  1.00  0.00    -0.206 C  
HETATM   16  C   UNL     1      -9.539   4.135  69.768  1.00  0.00    -0.281 C  
HETATM   17  F   UNL     1      -7.062   3.396  72.092  1.00  0.00    -0.035 F  
HETATM   18  F   UNL     1      -6.914   5.520  71.677  1.00  0.00    -0.058 F  
HETATM   19  C   UNL     1      -7.497   4.373  71.260  1.00  0.00    -0.060 C  
ENDBRANCH   8  13
ENDBRANCH   3   7
BRANCH   6  20
HETATM   20  N   UNL     1     -12.131  12.142  68.499  1.00  0.00    -0.194 N  
HETATM   21  H   UNL     1     -13.130  11.991  68.636  1.00  0.00     0.000 HD 
BRANCH  20  22
HETATM   22  C   UNL     1     -11.723  13.337  67.961  1.00  0.00    -0.359 C  
HETATM   23  O   UNL     1     -11.580  13.573  66.765  1.00  0.00    -0.330 OA 
BRANCH  22  24
HETATM   24  N   UNL     1     -11.461  14.323  68.904  1.00  0.00    -0.267 N  
HETATM   25  C   UNL     1     -12.106  14.326  70.206  1.00  0.00    -0.335 C  
HETATM   26  C   UNL     1     -12.249  15.800  70.532  1.00  0.00    -0.399 C  
HETATM   27  C   UNL     1     -11.027  16.450  69.889  1.00  0.00    -0.339 C  
HETATM   28  C   UNL     1     -10.640  15.526  68.730  1.00  0.00    -0.242 C  
BRANCH  28  29
HETATM   29  C   UNL     1      -9.141  15.183  68.790  1.00  0.00    -0.200 C  
HETATM   30  N   UNL     1      -8.271  16.215  68.569  1.00  0.00    -0.176 N  
HETATM   31  O   UNL     1      -8.734  14.031  68.902  1.00  0.00    -0.079 OA 
HETATM   32  H1  UNL     1      -7.277  15.987  68.609  1.00  0.00     0.000 HD 
HETATM   33  H2  UNL     1      -8.598  17.160  68.376  1.00  0.00     0.000 HD 
ENDBRANCH  28  29
ENDBRANCH  22  24
ENDBRANCH  20  22
ENDBRANCH   6  20
TORSDOF 6
ENDMDL
MODEL      233
REMARK 921   NORMALIZED FREE ENERGY PREDICTED BY IDOCK:   -4.72 KCAL/MOL
REMARK 922        TOTAL FREE ENERGY PREDICTED BY IDOCK:   -7.47 KCAL/MOL
REMARK 923 INTER-LIGAND FREE ENERGY PREDICTED BY IDOCK:   -6.28 KCAL/MOL
REMARK 924 INTRA-LIGAND FREE ENERGY PREDICTED BY IDOCK:   -1.20 KCAL/MOL
REMARK 927      BINDING AFFINITY PREDICTED BY RF-SCORE:    0.00 PKD
ROOT
HETATM    1  C   UNL     1      -5.608  11.225  70.576  1.00  0.00    -0.141 C  
HETATM    2  C   UNL     1      -6.401  10.442  69.592  1.00  0.00    -0.068 A  
HETATM    3  C   UNL     1      -7.296  10.885  68.614  1.00  0.00    -0.101 A  
HETATM    4  S   UNL     1      -7.974   9.492  67.839  1.00  0.00    -0.098 SA 
HETATM    5  N   UNL     1      -6.211   9.066  69.642  1.00  0.00    -0.039 NA 
HETATM    6  C   UNL     1      -6.966   8.477  68.760  1.00  0.00    -0.063 A  
ENDROOT
BRANCH   3   7
HETATM    7  C   UNL     1      -7.737  12.237  68.209  1.00  0.00    -0.143 A  
HETATM    8  C   UNL     1      -9.488  13.858  67.690  1.00  0.00    -0.212 A  
HETATM    9  C   UNL     1      -7.259  14.473  67.512  1.00  0.00    -0.187 A  
HETATM   10  C   UNL     1      -9.100  12.570  68.086  1.00  0.00    -0.204 A  
HETATM   11  N   UNL     1      -8.561  14.797  67.389  1.00  0.00    -0.183 NA 
HETATM   12  C   UNL     1      -6.806  13.233  67.923  1.00  0.00    -0.140 A  
BRANCH   8  13
HETATM   13  C   UNL     1     -10.963  14.251  67.519  1.00  0.00    -0.297 C  
HETATM   14  F   UNL     1     -12.568  14.154  69.305  1.00  0.00    -0.344 F  
HETATM   15  C   UNL     1     -11.140  15.256  66.352  1.00  0.00    -0.273 C  
HETATM   16  C   UNL     1     -11.769  12.990  67.134  1.00  0.00    -0.439 C  
HETATM   17  F   UNL     1     -12.031  16.133  68.594  1.00  0.00    -0.378 F  
HETATM   18  F   UNL     1     -10.636  14.998  69.806  1.00  0.00    -0.235 F  
HETATM   19  C   UNL     1     -11.540  14.887  68.806  1.00  0.00    -0.323 C  
ENDBRANCH   8  13
ENDBRANCH   3   7
BRANCH   6  20
HETATM   20  N   UNL     1      -7.085   7.153  68.444  1.00  0.00    -0.082 N  
HETATM   21  H   UNL     1      -6.573   6.802  67.634  1.00  0.00     0.000 HD 
BRANCH  20  22
HETATM   22  C   UNL     1      -7.856   6.271  69.157  1.00  0.00    -0.105 C  
HETATM   23  O   UNL     1      -7.521   5.698  70.190  1.00  0.00    -0.073 OA 
BRANCH  22  24
HETATM   24  N   UNL     1      -9.113   6.045  68.610  1.00  0.00    -0.117 N  
HETATM   25  C   UNL     1      -9.486   4.753  68.060  1.00  0.00    -0.140 C  
HETATM   26  C   UNL     1     -10.425   5.105  66.922  1.00  0.00    -0.280 C  
HETATM   27  C   UNL     1     -11.141   6.365  67.400  1.00  0.00    -0.412 C  
HETATM   28  C   UNL     1     -10.177   7.029  68.387  1.00  0.00    -0.179 C  
BRANCH  28  29
HETATM   29  C   UNL     1     -10.900   7.367  69.703  1.00  0.00    -0.210 C  
HETATM   30  N   UNL     1     -12.047   6.671  69.965  1.00  0.00    -0.596 N  
HETATM   31  O   UNL     1     -10.548   8.294  70.428  1.00  0.00    -0.215 OA 
HETATM   32  H1  UNL     1     -12.525   6.895  70.837  1.00  0.00     0.000 HD 
HETATM   33  H2  UNL     1     -12.405   5.966  69.321  1.00  0.00     0.000 HD 
ENDBRANCH  28  29
ENDBRANCH  22  24
ENDBRANCH  20  22
ENDBRANCH   6  20
TORSDOF 6
ENDMDL
MODEL      234
REMARK 921   NORMALIZED FREE ENERGY PREDICTED BY IDOCK:   -4.69 KCAL/MOL
REMARK 922        TOTAL FREE ENERGY PREDICTED BY IDOCK:   -7.43 KCAL/MOL
REMARK 923 INTER-LIGAND FREE ENERGY PREDICTED BY IDOCK:   -6.22 KCAL/MOL
REMARK 924 INTRA-LIGAND FREE ENERGY PREDICTED BY IDOCK:   -1.21 KCAL/MOL
REMARK 927      BINDING AFFINITY PREDICTED BY RF-SCORE:    0.00 PKD
ROOT
HETATM    1  C   UNL     1      -6.374  10.887  70.078  1.00  0.00    -0.142 C  
HETATM    2  C   UNL     1      -7.267  10.460  68.967  1.00  0.00    -0.088 A  
HETATM    3  C   UNL     1      -7.939  11.234  68.018  1.00  0.00    -0.119 A  
HETATM    4  S   UNL     1      -8.895  10.169  67.040  1.00  0.00    -0.135 SA 
HETATM    5  N   UNL     1      -7.443   9.087  68.846  1.00  0.00    -0.074 NA 
HETATM    6  C   UNL     1      -8.257   8.825  67.864  1.00  0.00    -0.111 A  
ENDROOT
BRANCH   3   7
HETATM    7  C   UNL     1      -7.983  12.691  67.772  1.00  0.00    -0.158 A  
HETATM    8  C   UNL     1      -9.206  14.756  67.320  1.00  0.00    -0.203 A  
HETATM    9  C   UNL     1      -6.891  14.795  67.464  1.00  0.00    -0.155 A  
HETATM   10  C   UNL     1      -9.196  13.374  67.561  1.00  0.00    -0.219 A  
HETATM   11  N   UNL     1      -8.048  15.454  67.257  1.00  0.00    -0.183 NA 
HETATM   12  C   UNL     1      -6.810  13.441  67.733  1.00  0.00    -0.163 A  
BRANCH   8  13
HETATM   13  C   UNL     1     -10.506  15.531  67.059  1.00  0.00    -0.304 C  
HETATM   14  F   UNL     1     -11.023  16.568  64.954  1.00  0.00    -0.420 F  
HETATM   15  C   UNL     1     -11.639  15.051  68.003  1.00  0.00    -0.356 C  
HETATM   16  C   UNL     1     -10.267  17.021  67.390  1.00  0.00    -0.314 C  
HETATM   17  F   UNL     1     -12.237  14.858  65.513  1.00  0.00    -0.277 F  
HETATM   18  F   UNL     1     -10.191  14.570  64.852  1.00  0.00    -0.399 F  
HETATM   19  C   UNL     1     -10.986  15.372  65.597  1.00  0.00    -0.326 C  
ENDBRANCH   8  13
ENDBRANCH   3   7
BRANCH   6  20
HETATM   20  N   UNL     1      -8.690   7.624  67.374  1.00  0.00    -0.124 N  
HETATM   21  H   UNL     1      -8.067   7.100  66.761  1.00  0.00     0.000 HD 
BRANCH  20  22
HETATM   22  C   UNL     1      -9.919   7.088  67.664  1.00  0.00    -0.154 C  
HETATM   23  O   UNL     1     -10.921   7.168  66.958  1.00  0.00    -0.369 OA 
BRANCH  22  24
HETATM   24  N   UNL     1      -9.972   6.412  68.876  1.00  0.00    -0.143 N  
HETATM   25  C   UNL     1     -11.208   6.287  69.629  1.00  0.00    -0.437 C  
HETATM   26  C   UNL     1     -10.750   6.295  71.075  1.00  0.00    -0.313 C  
HETATM   27  C   UNL     1      -9.387   5.609  71.043  1.00  0.00    -0.181 C  
HETATM   28  C   UNL     1      -8.847   5.846  69.630  1.00  0.00    -0.131 C  
BRANCH  28  29
HETATM   29  C   UNL     1      -8.375   4.522  69.003  1.00  0.00    -0.079 C  
HETATM   30  N   UNL     1      -8.741   3.376  69.652  1.00  0.00    -0.069 N  
HETATM   31  O   UNL     1      -7.607   4.484  68.046  1.00  0.00    -0.075 OA 
HETATM   32  H1  UNL     1      -8.428   2.499  69.236  1.00  0.00     0.000 HD 
HETATM   33  H2  UNL     1      -9.298   3.397  70.506  1.00  0.00     0.000 HD 
ENDBRANCH  28  29
ENDBRANCH  22  24
ENDBRANCH  20  22
ENDBRANCH   6  20
TORSDOF 6
ENDMDL
MODEL      235
REMARK 921   NORMALIZED FREE ENERGY PREDICTED BY IDOCK:   -4.69 KCAL/MOL
REMARK 922        TOTAL FREE ENERGY PREDICTED BY IDOCK:   -7.43 KCAL/MOL
REMARK 923 INTER-LIGAND FREE ENERGY PREDICTED BY IDOCK:   -6.58 KCAL/MOL
REMARK 924 INTRA-LIGAND FREE ENERGY PREDICTED BY IDOCK:   -0.85 KCAL/MOL
REMARK 927      BINDING AFFINITY PREDICTED BY RF-SCORE:    0.00 PKD
ROOT
HETATM    1  C   UNL     1     -12.719   9.413  71.570  1.00  0.00    -0.444 C  
HETATM    2  C   UNL     1     -11.713   9.885  70.582  1.00  0.00    -0.323 A  
HETATM    3  C   UNL     1     -10.743   9.162  69.884  1.00  0.00    -0.231 A  
HETATM    4  S   UNL     1      -9.812  10.283  68.945  1.00  0.00    -0.205 SA 
HETATM    5  N   UNL     1     -11.757  11.246  70.299  1.00  0.00    -0.331 NA 
HETATM    6  C   UNL     1     -10.824  11.556  69.446  1.00  0.00    -0.126 A  
ENDROOT
BRANCH   3   7
HETATM    7  C   UNL     1     -10.400   7.724  69.859  1.00  0.00    -0.223 A  
HETATM    8  C   UNL     1      -9.607   5.726  68.701  1.00  0.00    -0.127 A  
HETATM    9  C   UNL     1     -10.257   5.588  70.923  1.00  0.00    -0.227 A  
HETATM   10  C   UNL     1      -9.915   7.094  68.697  1.00  0.00    -0.161 A  
HETATM   11  N   UNL     1      -9.797   4.978  69.813  1.00  0.00    -0.195 NA 
HETATM   12  C   UNL     1     -10.555   6.936  70.998  1.00  0.00    -0.244 A  
BRANCH   8  13
HETATM   13  C   UNL     1      -9.102   4.998  67.447  1.00  0.00    -0.120 C  
HETATM   14  F   UNL     1      -7.191   5.721  66.183  1.00  0.00    -0.069 F  
HETATM   15  C   UNL     1      -9.519   3.505  67.464  1.00  0.00    -0.233 C  
HETATM   16  C   UNL     1      -9.779   5.624  66.206  1.00  0.00    -0.162 C  
HETATM   17  F   UNL     1      -6.983   3.851  67.266  1.00  0.00    -0.051 F  
HETATM   18  F   UNL     1      -6.968   5.736  68.338  1.00  0.00    -0.059 F  
HETATM   19  C   UNL     1      -7.562   5.076  67.318  1.00  0.00    -0.091 C  
ENDBRANCH   8  13
ENDBRANCH   3   7
BRANCH   6  20
HETATM   20  N   UNL     1     -10.516  12.758  68.873  1.00  0.00    -0.416 N  
HETATM   21  H   UNL     1      -9.719  13.278  69.240  1.00  0.00     0.000 HD 
BRANCH  20  22
HETATM   22  C   UNL     1     -11.223  13.303  67.831  1.00  0.00    -0.272 C  
HETATM   23  O   UNL     1     -12.318  12.919  67.430  1.00  0.00    -0.286 OA 
BRANCH  22  24
HETATM   24  N   UNL     1     -10.591  14.376  67.217  1.00  0.00    -0.276 N  
HETATM   25  C   UNL     1     -11.071  14.928  65.961  1.00  0.00    -0.334 C  
HETATM   26  C   UNL     1      -9.804  15.389  65.265  1.00  0.00    -0.239 C  
HETATM   27  C   UNL     1      -8.888  15.831  66.403  1.00  0.00    -0.371 C  
HETATM   28  C   UNL     1      -9.341  15.026  67.624  1.00  0.00    -0.194 C  
BRANCH  28  29
HETATM   29  C   UNL     1      -9.570  15.955  68.829  1.00  0.00    -0.219 C  
HETATM   30  N   UNL     1     -10.632  16.812  68.744  1.00  0.00    -0.328 N  
HETATM   31  O   UNL     1      -8.781  16.024  69.767  1.00  0.00    -0.022 OA 
HETATM   32  H1  UNL     1     -10.784  17.428  69.543  1.00  0.00     0.000 HD 
HETATM   33  H2  UNL     1     -11.239  16.835  67.925  1.00  0.00     0.000 HD 
ENDBRANCH  28  29
ENDBRANCH  22  24
ENDBRANCH  20  22
ENDBRANCH   6  20
TORSDOF 6
ENDMDL
MODEL      236
REMARK 921   NORMALIZED FREE ENERGY PREDICTED BY IDOCK:   -4.68 KCAL/MOL
REMARK 922        TOTAL FREE ENERGY PREDICTED BY IDOCK:   -7.42 KCAL/MOL
REMARK 923 INTER-LIGAND FREE ENERGY PREDICTED BY IDOCK:   -6.27 KCAL/MOL
REMARK 924 INTRA-LIGAND FREE ENERGY PREDICTED BY IDOCK:   -1.14 KCAL/MOL
REMARK 927      BINDING AFFINITY PREDICTED BY RF-SCORE:    0.00 PKD
ROOT
HETATM    1  C   UNL     1      -6.516  12.022  69.078  1.00  0.00    -0.091 C  
HETATM    2  C   UNL     1      -7.400  13.117  68.598  1.00  0.00    -0.102 A  
HETATM    3  C   UNL     1      -8.345  13.112  67.569  1.00  0.00    -0.185 A  
HETATM    4  S   UNL     1      -8.991  14.715  67.428  1.00  0.00    -0.205 SA 
HETATM    5  N   UNL     1      -7.278  14.318  69.287  1.00  0.00    -0.113 NA 
HETATM    6  C   UNL     1      -8.074  15.211  68.772  1.00  0.00    -0.166 A  
ENDROOT
BRANCH   3   7
HETATM    7  C   UNL     1      -8.805  12.054  66.645  1.00  0.00    -0.191 A  
HETATM    8  C   UNL     1      -8.418  10.023  65.344  1.00  0.00    -0.151 A  
HETATM    9  C   UNL     1     -10.483  11.075  65.253  1.00  0.00    -0.251 A  
HETATM   10  C   UNL     1      -7.957  11.008  66.230  1.00  0.00    -0.148 A  
HETATM   11  N   UNL     1      -9.676  10.074  64.848  1.00  0.00    -0.313 NA 
HETATM   12  C   UNL     1     -10.104  12.062  66.143  1.00  0.00    -0.252 A  
BRANCH   8  13
HETATM   13  C   UNL     1      -7.516   8.884  64.849  1.00  0.00    -0.098 C  
HETATM   14  F   UNL     1      -6.619   7.188  66.296  1.00  0.00    -0.046 F  
HETATM   15  C   UNL     1      -7.765   8.589  63.347  1.00  0.00    -0.139 C  
HETATM   16  C   UNL     1      -6.042   9.334  64.965  1.00  0.00    -0.065 C  
HETATM   17  F   UNL     1      -8.109   6.541  64.856  1.00  0.00    -0.111 F  
HETATM   18  F   UNL     1      -8.705   7.690  66.596  1.00  0.00    -0.120 F  
HETATM   19  C   UNL     1      -7.747   7.579  65.649  1.00  0.00    -0.100 C  
ENDBRANCH   8  13
ENDBRANCH   3   7
BRANCH   6  20
HETATM   20  N   UNL     1      -8.301  16.508  69.142  1.00  0.00    -0.207 N  
HETATM   21  H   UNL     1      -9.180  16.731  69.608  1.00  0.00     0.000 HD 
BRANCH  20  22
HETATM   22  C   UNL     1      -7.408  17.526  68.918  1.00  0.00    -0.245 C  
HETATM   23  O   UNL     1      -6.386  17.737  69.565  1.00  0.00    -0.246 OA 
BRANCH  22  24
HETATM   24  N   UNL     1      -7.748  18.356  67.858  1.00  0.00    -0.246 N  
HETATM   25  C   UNL     1      -7.327  18.068  66.498  1.00  0.00    -0.238 C  
HETATM   26  C   UNL     1      -7.132  19.442  65.885  1.00  0.00    -0.307 C  
HETATM   27  C   UNL     1      -8.181  20.314  66.570  1.00  0.00    -0.260 C  
HETATM   28  C   UNL     1      -8.439  19.648  67.924  1.00  0.00    -0.317 C  
BRANCH  28  29
HETATM   29  C   UNL     1      -9.949  19.455  68.152  1.00  0.00    -0.413 C  
HETATM   30  N   UNL     1     -10.422  19.770  69.395  1.00  0.00    -0.505 N  
HETATM   31  O   UNL     1     -10.678  18.928  67.317  1.00  0.00    -0.445 OA 
HETATM   32  H1  UNL     1     -11.423  19.642  69.546  1.00  0.00     0.000 HD 
HETATM   33  H2  UNL     1      -9.808  20.116  70.132  1.00  0.00     0.000 HD 
ENDBRANCH  28  29
ENDBRANCH  22  24
ENDBRANCH  20  22
ENDBRANCH   6  20
TORSDOF 6
ENDMDL
MODEL      237
REMARK 921   NORMALIZED FREE ENERGY PREDICTED BY IDOCK:   -4.65 KCAL/MOL
REMARK 922        TOTAL FREE ENERGY PREDICTED BY IDOCK:   -7.38 KCAL/MOL
REMARK 923 INTER-LIGAND FREE ENERGY PREDICTED BY IDOCK:   -6.30 KCAL/MOL
REMARK 924 INTRA-LIGAND FREE ENERGY PREDICTED BY IDOCK:   -1.07 KCAL/MOL
REMARK 927      BINDING AFFINITY PREDICTED BY RF-SCORE:    0.00 PKD
ROOT
HETATM    1  C   UNL     1     -12.141   8.647  71.730  1.00  0.00    -0.403 C  
HETATM    2  C   UNL     1     -11.277   8.570  70.522  1.00  0.00    -0.242 A  
HETATM    3  C   UNL     1     -10.923   9.572  69.615  1.00  0.00    -0.212 A  
HETATM    4  S   UNL     1      -9.963   8.849  68.367  1.00  0.00    -0.184 SA 
HETATM    5  N   UNL     1     -10.725   7.319  70.270  1.00  0.00    -0.230 NA 
HETATM    6  C   UNL     1     -10.010   7.357  69.183  1.00  0.00    -0.173 A  
ENDROOT
BRANCH   3   7
HETATM    7  C   UNL     1     -11.248  11.013  69.547  1.00  0.00    -0.343 A  
HETATM    8  C   UNL     1     -11.068  13.207  68.489  1.00  0.00    -0.266 A  
HETATM    9  C   UNL     1     -12.308  12.963  70.434  1.00  0.00    -0.258 A  
HETATM   10  C   UNL     1     -10.751  11.841  68.521  1.00  0.00    -0.251 A  
HETATM   11  N   UNL     1     -11.833  13.762  69.458  1.00  0.00    -0.318 NA 
HETATM   12  C   UNL     1     -12.058  11.606  70.513  1.00  0.00    -0.458 A  
BRANCH   8  13
HETATM   13  C   UNL     1     -10.525  14.145  67.402  1.00  0.00    -0.271 C  
HETATM   14  F   UNL     1      -9.490  16.260  67.883  1.00  0.00    -0.211 F  
HETATM   15  C   UNL     1     -10.152  13.356  66.120  1.00  0.00    -0.304 C  
HETATM   16  C   UNL     1     -11.645  15.130  66.995  1.00  0.00    -0.179 C  
HETATM   17  F   UNL     1      -8.196  14.708  67.090  1.00  0.00    -0.187 F  
HETATM   18  F   UNL     1      -8.894  14.600  69.141  1.00  0.00    -0.172 F  
HETATM   19  C   UNL     1      -9.275  14.919  67.883  1.00  0.00    -0.183 C  
ENDBRANCH   8  13
ENDBRANCH   3   7
BRANCH   6  20
HETATM   20  N   UNL     1      -9.274   6.377  68.577  1.00  0.00    -0.125 N  
HETATM   21  H   UNL     1      -8.447   6.025  69.060  1.00  0.00     0.000 HD 
BRANCH  20  22
HETATM   22  C   UNL     1      -9.587   5.842  67.353  1.00  0.00    -0.113 C  
HETATM   23  O   UNL     1     -10.720   5.598  66.946  1.00  0.00    -0.283 OA 
BRANCH  22  24
HETATM   24  N   UNL     1      -8.485   5.573  66.553  1.00  0.00    -0.112 N  
HETATM   25  C   UNL     1      -8.203   4.234  66.066  1.00  0.00    -0.105 C  
HETATM   26  C   UNL     1      -6.688   4.180  66.018  1.00  0.00    -0.049 C  
HETATM   27  C   UNL     1      -6.271   5.607  65.670  1.00  0.00    -0.034 C  
HETATM   28  C   UNL     1      -7.408   6.497  66.180  1.00  0.00    -0.080 C  
BRANCH  28  29
HETATM   29  C   UNL     1      -7.871   7.465  65.077  1.00  0.00    -0.124 C  
HETATM   30  N   UNL     1      -8.171   6.909  63.864  1.00  0.00    -0.334 N  
HETATM   31  O   UNL     1      -7.856   8.684  65.223  1.00  0.00    -0.097 OA 
HETATM   32  H1  UNL     1      -8.478   7.552  63.134  1.00  0.00     0.000 HD 
HETATM   33  H2  UNL     1      -8.092   5.906  63.700  1.00  0.00     0.000 HD 
ENDBRANCH  28  29
ENDBRANCH  22  24
ENDBRANCH  20  22
ENDBRANCH   6  20
TORSDOF 6
ENDMDL
MODEL      238
REMARK 921   NORMALIZED FREE ENERGY PREDICTED BY IDOCK:   -4.64 KCAL/MOL
REMARK 922        TOTAL FREE ENERGY PREDICTED BY IDOCK:   -7.36 KCAL/MOL
REMARK 923 INTER-LIGAND FREE ENERGY PREDICTED BY IDOCK:   -6.44 KCAL/MOL
REMARK 924 INTRA-LIGAND FREE ENERGY PREDICTED BY IDOCK:   -0.92 KCAL/MOL
REMARK 927      BINDING AFFINITY PREDICTED BY RF-SCORE:    0.00 PKD
ROOT
HETATM    1  C   UNL     1      -7.179   9.748  69.672  1.00  0.00    -0.097 C  
HETATM    2  C   UNL     1      -8.008   9.721  68.438  1.00  0.00    -0.089 A  
HETATM    3  C   UNL     1      -8.325  10.757  67.555  1.00  0.00    -0.115 A  
HETATM    4  S   UNL     1      -9.403  10.125  66.355  1.00  0.00    -0.177 SA 
HETATM    5  N   UNL     1      -8.532   8.477  68.105  1.00  0.00    -0.133 NA 
HETATM    6  C   UNL     1      -9.257   8.570  67.029  1.00  0.00    -0.152 A  
ENDROOT
BRANCH   3   7
HETATM    7  C   UNL     1      -7.945  12.185  67.520  1.00  0.00    -0.163 A  
HETATM    8  C   UNL     1      -8.474  14.539  67.139  1.00  0.00    -0.212 A  
HETATM    9  C   UNL     1      -6.320  13.924  67.742  1.00  0.00    -0.158 A  
HETATM   10  C   UNL     1      -8.866  13.193  67.174  1.00  0.00    -0.222 A  
HETATM   11  N   UNL     1      -7.195  14.893  67.408  1.00  0.00    -0.200 NA 
HETATM   12  C   UNL     1      -6.644  12.583  67.823  1.00  0.00    -0.121 A  
BRANCH   8  13
HETATM   13  C   UNL     1      -9.442  15.662  66.741  1.00  0.00    -0.261 C  
HETATM   14  F   UNL     1     -11.702  15.800  67.544  1.00  0.00    -0.224 F  
HETATM   15  C   UNL     1      -8.670  16.943  66.330  1.00  0.00    -0.321 C  
HETATM   16  C   UNL     1     -10.234  15.213  65.493  1.00  0.00    -0.405 C  
HETATM   17  F   UNL     1     -10.330  17.328  68.250  1.00  0.00    -0.284 F  
HETATM   18  F   UNL     1     -10.196  15.305  69.021  1.00  0.00    -0.203 F  
HETATM   19  C   UNL     1     -10.409  16.022  67.894  1.00  0.00    -0.269 C  
ENDBRANCH   8  13
ENDBRANCH   3   7
BRANCH   6  20
HETATM   20  N   UNL     1      -9.934   7.606  66.334  1.00  0.00    -0.457 N  
HETATM   21  H   UNL     1     -10.215   7.809  65.375  1.00  0.00     0.000 HD 
BRANCH  20  22
HETATM   22  C   UNL     1     -10.254   6.380  66.859  1.00  0.00    -0.215 C  
HETATM   23  O   UNL     1     -11.236   6.132  67.554  1.00  0.00    -0.292 OA 
BRANCH  22  24
HETATM   24  N   UNL     1      -9.350   5.374  66.545  1.00  0.00    -0.139 N  
HETATM   25  C   UNL     1      -8.657   4.621  67.575  1.00  0.00    -0.103 C  
HETATM   26  C   UNL     1      -7.308   4.315  66.951  1.00  0.00    -0.077 C  
HETATM   27  C   UNL     1      -7.608   4.159  65.463  1.00  0.00    -0.085 C  
HETATM   28  C   UNL     1      -8.865   4.996  65.213  1.00  0.00    -0.153 C  
BRANCH  28  29
HETATM   29  C   UNL     1      -9.922   4.172  64.456  1.00  0.00    -0.161 C  
HETATM   30  N   UNL     1     -11.204   4.246  64.926  1.00  0.00    -0.839 N  
HETATM   31  O   UNL     1      -9.626   3.387  63.559  1.00  0.00    -0.109 OA 
HETATM   32  H1  UNL     1     -11.904   3.700  64.425  1.00  0.00     0.000 HD 
HETATM   33  H2  UNL     1     -11.446   4.818  65.735  1.00  0.00     0.000 HD 
ENDBRANCH  28  29
ENDBRANCH  22  24
ENDBRANCH  20  22
ENDBRANCH   6  20
TORSDOF 6
ENDMDL
MODEL      239
REMARK 921   NORMALIZED FREE ENERGY PREDICTED BY IDOCK:   -4.64 KCAL/MOL
REMARK 922        TOTAL FREE ENERGY PREDICTED BY IDOCK:   -7.36 KCAL/MOL
REMARK 923 INTER-LIGAND FREE ENERGY PREDICTED BY IDOCK:   -7.47 KCAL/MOL
REMARK 924 INTRA-LIGAND FREE ENERGY PREDICTED BY IDOCK:    0.11 KCAL/MOL
REMARK 927      BINDING AFFINITY PREDICTED BY RF-SCORE:    0.00 PKD
ROOT
HETATM    1  C   UNL     1     -11.035  13.341  65.420  1.00  0.00    -0.299 C  
HETATM    2  C   UNL     1     -10.445  12.448  66.452  1.00  0.00    -0.243 A  
HETATM    3  C   UNL     1     -10.295  12.653  67.826  1.00  0.00    -0.220 A  
HETATM    4  S   UNL     1      -9.454  11.286  68.482  1.00  0.00    -0.178 SA 
HETATM    5  N   UNL     1      -9.991  11.221  65.982  1.00  0.00    -0.222 NA 
HETATM    6  C   UNL     1      -9.474  10.531  66.958  1.00  0.00    -0.163 A  
ENDROOT
BRANCH   3   7
HETATM    7  C   UNL     1     -10.676  13.773  68.713  1.00  0.00    -0.267 A  
HETATM    8  C   UNL     1     -11.994  14.709  70.543  1.00  0.00    -0.310 A  
HETATM    9  C   UNL     1     -10.496  16.057  69.394  1.00  0.00    -0.271 A  
HETATM   10  C   UNL     1     -11.645  13.626  69.724  1.00  0.00    -0.322 A  
HETATM   11  N   UNL     1     -11.426  15.924  70.360  1.00  0.00    -0.352 NA 
HETATM   12  C   UNL     1     -10.085  15.027  68.569  1.00  0.00    -0.225 A  
BRANCH   8  13
HETATM   13  C   UNL     1     -13.064  14.595  71.637  1.00  0.00    -0.423 C  
HETATM   14  F   UNL     1     -12.545  14.395  73.975  1.00  0.00    -0.479 F  
HETATM   15  C   UNL     1     -14.401  15.232  71.177  1.00  0.00    -0.384 C  
HETATM   16  C   UNL     1     -13.359  13.098  71.886  1.00  0.00    -0.546 C  
HETATM   17  F   UNL     1     -13.484  16.249  73.348  1.00  0.00    -0.620 F  
HETATM   18  F   UNL     1     -11.403  15.867  72.869  1.00  0.00    -0.437 F  
HETATM   19  C   UNL     1     -12.620  15.283  72.950  1.00  0.00    -0.408 C  
ENDBRANCH   8  13
ENDBRANCH   3   7
BRANCH   6  20
HETATM   20  N   UNL     1      -8.936   9.275  66.961  1.00  0.00    -0.125 N  
HETATM   21  H   UNL     1      -8.637   8.880  67.853  1.00  0.00     0.000 HD 
BRANCH  20  22
HETATM   22  C   UNL     1      -8.776   8.517  65.829  1.00  0.00    -0.179 C  
HETATM   23  O   UNL     1      -8.962   8.900  64.677  1.00  0.00    -0.134 OA 
BRANCH  22  24
HETATM   24  N   UNL     1      -8.370   7.211  66.074  1.00  0.00    -0.128 N  
HETATM   25  C   UNL     1      -9.255   6.240  66.693  1.00  0.00    -0.146 C  
HETATM   26  C   UNL     1      -8.317   5.362  67.499  1.00  0.00    -0.103 C  
HETATM   27  C   UNL     1      -7.027   5.338  66.683  1.00  0.00    -0.064 C  
HETATM   28  C   UNL     1      -7.031   6.643  65.882  1.00  0.00    -0.061 C  
BRANCH  28  29
HETATM   29  C   UNL     1      -6.761   6.363  64.392  1.00  0.00    -0.034 C  
HETATM   30  N   UNL     1      -7.722   6.773  63.511  1.00  0.00    -0.110 N  
HETATM   31  O   UNL     1      -5.802   5.698  64.012  1.00  0.00    -0.020 OA 
HETATM   32  H1  UNL     1      -7.542   6.587  62.524  1.00  0.00     0.000 HD 
HETATM   33  H2  UNL     1      -8.573   7.239  63.824  1.00  0.00     0.000 HD 
ENDBRANCH  28  29
ENDBRANCH  22  24
ENDBRANCH  20  22
ENDBRANCH   6  20
TORSDOF 6
ENDMDL
MODEL      240
REMARK 921   NORMALIZED FREE ENERGY PREDICTED BY IDOCK:   -4.62 KCAL/MOL
REMARK 922        TOTAL FREE ENERGY PREDICTED BY IDOCK:   -7.34 KCAL/MOL
REMARK 923 INTER-LIGAND FREE ENERGY PREDICTED BY IDOCK:   -6.39 KCAL/MOL
REMARK 924 INTRA-LIGAND FREE ENERGY PREDICTED BY IDOCK:   -0.94 KCAL/MOL
REMARK 927      BINDING AFFINITY PREDICTED BY RF-SCORE:    0.00 PKD
ROOT
HETATM    1  C   UNL     1     -11.423  13.260  68.643  1.00  0.00    -0.339 C  
HETATM    2  C   UNL     1     -11.092  11.823  68.836  1.00  0.00    -0.243 A  
HETATM    3  C   UNL     1     -10.635  10.882  67.910  1.00  0.00    -0.207 A  
HETATM    4  S   UNL     1     -10.517   9.353  68.716  1.00  0.00    -0.201 SA 
HETATM    5  N   UNL     1     -11.245  11.352  70.135  1.00  0.00    -0.106 NA 
HETATM    6  C   UNL     1     -10.954  10.085  70.189  1.00  0.00    -0.310 A  
ENDROOT
BRANCH   3   7
HETATM    7  C   UNL     1     -10.306  10.980  66.472  1.00  0.00    -0.295 A  
HETATM    8  C   UNL     1      -8.857  10.505  64.565  1.00  0.00    -0.200 A  
HETATM    9  C   UNL     1     -10.775  11.776  64.268  1.00  0.00    -0.342 A  
HETATM   10  C   UNL     1      -9.149  10.387  65.931  1.00  0.00    -0.192 A  
HETATM   11  N   UNL     1      -9.667  11.215  63.744  1.00  0.00    -0.272 NA 
HETATM   12  C   UNL     1     -11.137  11.677  65.598  1.00  0.00    -0.308 A  
BRANCH   8  13
HETATM   13  C   UNL     1      -7.593   9.895  63.943  1.00  0.00    -0.141 C  
HETATM   14  F   UNL     1      -6.575   7.871  64.743  1.00  0.00    -0.047 F  
HETATM   15  C   UNL     1      -7.437  10.325  62.462  1.00  0.00    -0.151 C  
HETATM   16  C   UNL     1      -6.359  10.451  64.689  1.00  0.00    -0.066 C  
HETATM   17  F   UNL     1      -7.498   7.779  62.781  1.00  0.00    -0.086 F  
HETATM   18  F   UNL     1      -8.733   7.844  64.562  1.00  0.00    -0.054 F  
HETATM   19  C   UNL     1      -7.609   8.349  64.005  1.00  0.00    -0.126 C  
ENDBRANCH   8  13
ENDBRANCH   3   7
BRANCH   6  20
HETATM   20  N   UNL     1     -10.940   9.227  71.253  1.00  0.00    -0.323 N  
HETATM   21  H   UNL     1     -11.808   9.082  71.768  1.00  0.00     0.000 HD 
BRANCH  20  22
HETATM   22  C   UNL     1      -9.820   8.549  71.664  1.00  0.00    -0.247 C  
HETATM   23  O   UNL     1      -8.860   9.041  72.250  1.00  0.00    -0.363 OA 
BRANCH  22  24
HETATM   24  N   UNL     1      -9.833   7.195  71.359  1.00  0.00    -0.176 N  
HETATM   25  C   UNL     1      -8.713   6.551  70.693  1.00  0.00    -0.144 C  
HETATM   26  C   UNL     1      -9.369   5.476  69.848  1.00  0.00    -0.186 C  
HETATM   27  C   UNL     1     -10.583   5.041  70.664  1.00  0.00    -0.150 C  
HETATM   28  C   UNL     1     -10.946   6.254  71.526  1.00  0.00    -0.271 C  
BRANCH  28  29
HETATM   29  C   UNL     1     -11.101   5.841  73.001  1.00  0.00    -0.265 C  
HETATM   30  N   UNL     1     -11.776   4.677  73.240  1.00  0.00    -0.312 N  
HETATM   31  O   UNL     1     -10.755   6.569  73.928  1.00  0.00    -0.272 OA 
HETATM   32  H1  UNL     1     -11.878   4.404  74.218  1.00  0.00     0.000 HD 
HETATM   33  H2  UNL     1     -12.157   4.112  72.482  1.00  0.00     0.000 HD 
ENDBRANCH  28  29
ENDBRANCH  22  24
ENDBRANCH  20  22
ENDBRANCH   6  20
TORSDOF 6
ENDMDL
MODEL      241
REMARK 921   NORMALIZED FREE ENERGY PREDICTED BY IDOCK:   -4.62 KCAL/MOL
REMARK 922        TOTAL FREE ENERGY PREDICTED BY IDOCK:   -7.34 KCAL/MOL
REMARK 923 INTER-LIGAND FREE ENERGY PREDICTED BY IDOCK:   -6.27 KCAL/MOL
REMARK 924 INTRA-LIGAND FREE ENERGY PREDICTED BY IDOCK:   -1.06 KCAL/MOL
REMARK 927      BINDING AFFINITY PREDICTED BY RF-SCORE:    0.00 PKD
ROOT
HETATM    1  C   UNL     1      -6.372  14.552  67.897  1.00  0.00    -0.173 C  
HETATM    2  C   UNL     1      -7.469  13.561  67.727  1.00  0.00    -0.166 A  
HETATM    3  C   UNL     1      -8.852  13.742  67.806  1.00  0.00    -0.188 A  
HETATM    4  S   UNL     1      -9.606  12.194  67.603  1.00  0.00    -0.195 SA 
HETATM    5  N   UNL     1      -7.055  12.269  67.428  1.00  0.00    -0.141 NA 
HETATM    6  C   UNL     1      -8.087  11.481  67.324  1.00  0.00    -0.153 A  
ENDROOT
BRANCH   3   7
HETATM    7  C   UNL     1      -9.687  14.937  68.052  1.00  0.00    -0.212 A  
HETATM    8  C   UNL     1     -10.006  17.357  68.112  1.00  0.00    -0.308 A  
HETATM    9  C   UNL     1     -11.738  15.950  68.747  1.00  0.00    -0.349 A  
HETATM   10  C   UNL     1      -9.194  16.242  67.861  1.00  0.00    -0.201 A  
HETATM   11  N   UNL     1     -11.270  17.202  68.570  1.00  0.00    -0.098 NA 
HETATM   12  C   UNL     1     -11.002  14.807  68.493  1.00  0.00    -0.265 A  
BRANCH   8  13
HETATM   13  C   UNL     1      -9.496  18.795  67.941  1.00  0.00    -0.339 C  
HETATM   14  F   UNL     1      -8.660  19.659  65.861  1.00  0.00    -0.345 F  
HETATM   15  C   UNL     1     -10.137  19.742  68.990  1.00  0.00    -0.427 C  
HETATM   16  C   UNL     1      -7.975  18.815  68.211  1.00  0.00    -0.346 C  
HETATM   17  F   UNL     1     -10.540  20.485  66.566  1.00  0.00    -0.425 F  
HETATM   18  F   UNL     1     -10.474  18.480  65.742  1.00  0.00    -0.428 F  
HETATM   19  C   UNL     1      -9.801  19.349  66.530  1.00  0.00    -0.386 C  
ENDBRANCH   8  13
ENDBRANCH   3   7
BRANCH   6  20
HETATM   20  N   UNL     1      -8.154  10.150  67.020  1.00  0.00    -0.116 N  
HETATM   21  H   UNL     1      -7.388   9.547  67.321  1.00  0.00     0.000 HD 
BRANCH  20  22
HETATM   22  C   UNL     1      -9.196   9.583  66.331  1.00  0.00    -0.166 C  
HETATM   23  O   UNL     1     -10.048   8.838  66.807  1.00  0.00    -0.243 OA 
BRANCH  22  24
HETATM   24  N   UNL     1      -9.232   9.915  64.983  1.00  0.00    -0.221 N  
HETATM   25  C   UNL     1     -10.253  10.796  64.441  1.00  0.00    -0.364 C  
HETATM   26  C   UNL     1     -10.476  10.265  63.038  1.00  0.00     1.000 C  
HETATM   27  C   UNL     1      -9.107   9.744  62.609  1.00  0.00    -0.297 C  
HETATM   28  C   UNL     1      -8.387   9.381  63.910  1.00  0.00    -0.175 C  
BRANCH  28  29
HETATM   29  C   UNL     1      -6.985  10.016  63.946  1.00  0.00    -0.124 C  
HETATM   30  N   UNL     1      -6.703  10.926  62.966  1.00  0.00    -0.348 N  
HETATM   31  O   UNL     1      -6.114   9.644  64.728  1.00  0.00    -0.075 OA 
HETATM   32  H1  UNL     1      -5.774  11.347  62.991  1.00  0.00     0.000 HD 
HETATM   33  H2  UNL     1      -7.385  11.171  62.249  1.00  0.00     0.000 HD 
ENDBRANCH  28  29
ENDBRANCH  22  24
ENDBRANCH  20  22
ENDBRANCH   6  20
TORSDOF 6
ENDMDL
MODEL      242
REMARK 921   NORMALIZED FREE ENERGY PREDICTED BY IDOCK:   -4.61 KCAL/MOL
REMARK 922        TOTAL FREE ENERGY PREDICTED BY IDOCK:   -7.32 KCAL/MOL
REMARK 923 INTER-LIGAND FREE ENERGY PREDICTED BY IDOCK:   -7.09 KCAL/MOL
REMARK 924 INTRA-LIGAND FREE ENERGY PREDICTED BY IDOCK:   -0.23 KCAL/MOL
REMARK 927      BINDING AFFINITY PREDICTED BY RF-SCORE:    0.00 PKD
ROOT
HETATM    1  C   UNL     1     -12.705   9.460  71.808  1.00  0.00    -0.476 C  
HETATM    2  C   UNL     1     -11.699   9.835  70.779  1.00  0.00    -0.328 A  
HETATM    3  C   UNL     1     -10.644   9.087  70.250  1.00  0.00    -0.217 A  
HETATM    4  S   UNL     1      -9.769  10.101  69.150  1.00  0.00    -0.226 SA 
HETATM    5  N   UNL     1     -11.842  11.115  70.254  1.00  0.00    -0.342 NA 
HETATM    6  C   UNL     1     -10.901  11.349  69.385  1.00  0.00    -0.162 A  
ENDROOT
BRANCH   3   7
HETATM    7  C   UNL     1     -10.185   7.704  70.495  1.00  0.00    -0.201 A  
HETATM    8  C   UNL     1      -8.427   6.082  70.991  1.00  0.00    -0.124 A  
HETATM    9  C   UNL     1     -10.604   5.356  70.649  1.00  0.00    -0.232 A  
HETATM   10  C   UNL     1      -8.836   7.406  70.773  1.00  0.00    -0.149 A  
HETATM   11  N   UNL     1      -9.314   5.063  70.911  1.00  0.00    -0.145 NA 
HETATM   12  C   UNL     1     -11.081   6.638  70.450  1.00  0.00    -0.374 A  
BRANCH   8  13
HETATM   13  C   UNL     1      -6.963   5.715  71.271  1.00  0.00    -0.066 C  
HETATM   14  F   UNL     1      -5.152   6.312  69.810  1.00  0.00    -0.010 F  
HETATM   15  C   UNL     1      -6.720   5.513  72.789  1.00  0.00    -0.072 C  
HETATM   16  C   UNL     1      -6.657   4.358  70.598  1.00  0.00    -0.035 C  
HETATM   17  F   UNL     1      -5.200   7.298  71.743  1.00  0.00    -0.032 F  
HETATM   18  F   UNL     1      -6.613   7.864  70.198  1.00  0.00    -0.036 F  
HETATM   19  C   UNL     1      -5.990   6.803  70.759  1.00  0.00    -0.028 C  
ENDBRANCH   8  13
ENDBRANCH   3   7
BRANCH   6  20
HETATM   20  N   UNL     1     -10.669  12.453  68.613  1.00  0.00    -0.232 N  
HETATM   21  H   UNL     1      -9.997  13.143  68.947  1.00  0.00     0.000 HD 
BRANCH  20  22
HETATM   22  C   UNL     1     -11.291  12.681  67.412  1.00  0.00    -0.313 C  
HETATM   23  O   UNL     1     -12.156  11.971  66.906  1.00  0.00    -0.608 OA 
BRANCH  22  24
HETATM   24  N   UNL     1     -10.860  13.828  66.758  1.00  0.00    -0.283 N  
HETATM   25  C   UNL     1      -9.812  14.671  67.307  1.00  0.00    -0.231 C  
HETATM   26  C   UNL     1     -10.204  16.067  66.862  1.00  0.00    -0.280 C  
HETATM   27  C   UNL     1     -10.874  15.856  65.507  1.00  0.00    -0.325 C  
HETATM   28  C   UNL     1     -11.425  14.429  65.545  1.00  0.00    -0.340 C  
BRANCH  28  29
HETATM   29  C   UNL     1     -10.991  13.648  64.291  1.00  0.00    -0.300 C  
HETATM   30  N   UNL     1     -11.992  13.220  63.464  1.00  0.00    -0.715 N  
HETATM   31  O   UNL     1      -9.827  13.311  64.096  1.00  0.00    -0.202 OA 
HETATM   32  H1  UNL     1     -11.704  12.703  62.633  1.00  0.00     0.000 HD 
HETATM   33  H2  UNL     1     -12.973  13.408  63.667  1.00  0.00     0.000 HD 
ENDBRANCH  28  29
ENDBRANCH  22  24
ENDBRANCH  20  22
ENDBRANCH   6  20
TORSDOF 6
ENDMDL
MODEL      243
REMARK 921   NORMALIZED FREE ENERGY PREDICTED BY IDOCK:   -4.60 KCAL/MOL
REMARK 922        TOTAL FREE ENERGY PREDICTED BY IDOCK:   -7.31 KCAL/MOL
REMARK 923 INTER-LIGAND FREE ENERGY PREDICTED BY IDOCK:   -5.54 KCAL/MOL
REMARK 924 INTRA-LIGAND FREE ENERGY PREDICTED BY IDOCK:   -1.78 KCAL/MOL
REMARK 927      BINDING AFFINITY PREDICTED BY RF-SCORE:    0.00 PKD
ROOT
HETATM    1  C   UNL     1      -8.938  12.805  66.573  1.00  0.00    -0.098 C  
HETATM    2  C   UNL     1      -9.759  11.618  66.934  1.00  0.00    -0.195 A  
HETATM    3  C   UNL     1      -9.755  10.334  66.385  1.00  0.00    -0.201 A  
HETATM    4  S   UNL     1     -10.999   9.415  67.167  1.00  0.00     0.271 SA 
HETATM    5  N   UNL     1     -10.648  11.813  67.984  1.00  0.00    -0.199 NA 
HETATM    6  C   UNL     1     -11.330  10.725  68.200  1.00  0.00    -0.308 A  
ENDROOT
BRANCH   3   7
HETATM    7  C   UNL     1      -8.951   9.712  65.311  1.00  0.00    -0.246 A  
HETATM    8  C   UNL     1      -7.368   8.033  64.513  1.00  0.00    -0.089 A  
HETATM    9  C   UNL     1      -8.182   9.637  63.049  1.00  0.00    -0.152 A  
HETATM   10  C   UNL     1      -8.128   8.595  65.549  1.00  0.00    -0.114 A  
HETATM   11  N   UNL     1      -7.389   8.570  63.271  1.00  0.00    -0.100 NA 
HETATM   12  C   UNL     1      -8.977  10.224  64.015  1.00  0.00    -0.261 A  
BRANCH   8  13
HETATM   13  C   UNL     1      -6.439   6.832  64.740  1.00  0.00    -0.042 C  
HETATM   14  F   UNL     1      -7.148   4.798  65.805  1.00  0.00    -0.061 F  
HETATM   15  C   UNL     1      -5.282   6.821  63.707  1.00  0.00    -0.027 C  
HETATM   16  C   UNL     1      -5.780   6.973  66.130  1.00  0.00    -0.031 C  
HETATM   17  F   UNL     1      -6.683   4.670  63.689  1.00  0.00    -0.037 F  
HETATM   18  F   UNL     1      -8.512   5.633  64.343  1.00  0.00    -0.136 F  
HETATM   19  C   UNL     1      -7.200   5.489  64.637  1.00  0.00    -0.062 C  
ENDBRANCH   8  13
ENDBRANCH   3   7
BRANCH   6  20
HETATM   20  N   UNL     1     -12.285  10.455  69.140  1.00  0.00    -0.492 N  
HETATM   21  H   UNL     1     -13.203  10.146  68.820  1.00  0.00     0.000 HD 
BRANCH  20  22
HETATM   22  C   UNL     1     -12.075  10.577  70.490  1.00  0.00    -0.345 C  
HETATM   23  O   UNL     1     -12.325  11.571  71.167  1.00  0.00    -0.346 OA 
BRANCH  22  24
HETATM   24  N   UNL     1     -11.528   9.447  71.083  1.00  0.00    -0.321 N  
HETATM   25  C   UNL     1     -12.334   8.276  71.383  1.00  0.00    -0.299 C  
HETATM   26  C   UNL     1     -11.701   7.720  72.645  1.00  0.00    -0.364 C  
HETATM   27  C   UNL     1     -10.218   8.049  72.501  1.00  0.00    -0.361 C  
HETATM   28  C   UNL     1     -10.163   9.282  71.595  1.00  0.00    -0.201 C  
BRANCH  28  29
HETATM   29  C   UNL     1      -9.167   9.061  70.442  1.00  0.00    -0.209 C  
HETATM   30  N   UNL     1      -8.524  10.172  69.972  1.00  0.00    -0.364 N  
HETATM   31  O   UNL     1      -9.039   7.976  69.881  1.00  0.00    -0.144 OA 
HETATM   32  H1  UNL     1      -7.864  10.026  69.208  1.00  0.00     0.000 HD 
HETATM   33  H2  UNL     1      -8.696  11.098  70.364  1.00  0.00     0.000 HD 
ENDBRANCH  28  29
ENDBRANCH  22  24
ENDBRANCH  20  22
ENDBRANCH   6  20
TORSDOF 6
ENDMDL
MODEL      244
REMARK 921   NORMALIZED FREE ENERGY PREDICTED BY IDOCK:   -4.60 KCAL/MOL
REMARK 922        TOTAL FREE ENERGY PREDICTED BY IDOCK:   -7.31 KCAL/MOL
REMARK 923 INTER-LIGAND FREE ENERGY PREDICTED BY IDOCK:   -6.14 KCAL/MOL
REMARK 924 INTRA-LIGAND FREE ENERGY PREDICTED BY IDOCK:   -1.17 KCAL/MOL
REMARK 927      BINDING AFFINITY PREDICTED BY RF-SCORE:    0.00 PKD
ROOT
HETATM    1  C   UNL     1     -11.897  13.334  69.568  1.00  0.00    -0.388 C  
HETATM    2  C   UNL     1     -10.731  13.019  68.700  1.00  0.00    -0.248 A  
HETATM    3  C   UNL     1      -9.848  13.882  68.046  1.00  0.00    -0.234 A  
HETATM    4  S   UNL     1      -8.751  12.918  67.113  1.00  0.00    -0.192 SA 
HETATM    5  N   UNL     1     -10.474  11.664  68.527  1.00  0.00    -0.211 NA 
HETATM    6  C   UNL     1      -9.454  11.499  67.735  1.00  0.00    -0.168 A  
ENDROOT
BRANCH   3   7
HETATM    7  C   UNL     1      -9.744  15.356  68.006  1.00  0.00    -0.207 A  
HETATM    8  C   UNL     1      -8.439  17.419  68.077  1.00  0.00    -0.235 A  
HETATM    9  C   UNL     1     -10.748  17.522  67.877  1.00  0.00    -0.339 A  
HETATM   10  C   UNL     1      -8.506  16.018  68.108  1.00  0.00    -0.169 A  
HETATM   11  N   UNL     1      -9.566  18.162  67.978  1.00  0.00    -0.289 NA 
HETATM   12  C   UNL     1     -10.884  16.146  67.873  1.00  0.00    -0.332 A  
BRANCH   8  13
HETATM   13  C   UNL     1      -7.111  18.177  68.212  1.00  0.00    -0.249 C  
HETATM   14  F   UNL     1      -5.306  17.964  66.641  1.00  0.00    -0.137 F  
HETATM   15  C   UNL     1      -7.295  19.480  69.032  1.00  0.00    -0.392 C  
HETATM   16  C   UNL     1      -6.119  17.299  69.008  1.00  0.00    -0.199 C  
HETATM   17  F   UNL     1      -6.324  19.880  66.690  1.00  0.00    -0.186 F  
HETATM   18  F   UNL     1      -7.289  18.159  65.791  1.00  0.00    -0.293 F  
HETATM   19  C   UNL     1      -6.517  18.546  66.832  1.00  0.00    -0.183 C  
ENDBRANCH   8  13
ENDBRANCH   3   7
BRANCH   6  20
HETATM   20  N   UNL     1      -8.840  10.353  67.313  1.00  0.00    -0.132 N  
HETATM   21  H   UNL     1      -7.823  10.301  67.369  1.00  0.00     0.000 HD 
BRANCH  20  22
HETATM   22  C   UNL     1      -9.520   9.269  66.818  1.00  0.00    -0.175 C  
HETATM   23  O   UNL     1     -10.071   9.208  65.722  1.00  0.00    -0.229 OA 
BRANCH  22  24
HETATM   24  N   UNL     1      -9.553   8.179  67.678  1.00  0.00    -0.148 N  
HETATM   25  C   UNL     1     -10.764   7.804  68.388  1.00  0.00    -0.036 C  
HETATM   26  C   UNL     1     -10.250   7.243  69.701  1.00  0.00    -0.214 C  
HETATM   27  C   UNL     1      -8.920   6.590  69.337  1.00  0.00    -0.132 C  
HETATM   28  C   UNL     1      -8.426   7.340  68.098  1.00  0.00    -0.123 C  
BRANCH  28  29
HETATM   29  C   UNL     1      -8.035   6.349  66.987  1.00  0.00    -0.109 C  
HETATM   30  N   UNL     1      -6.700   6.241  66.709  1.00  0.00    -0.059 N  
HETATM   31  O   UNL     1      -8.869   5.775  66.293  1.00  0.00    -0.130 OA 
HETATM   32  H1  UNL     1      -6.442   5.584  65.972  1.00  0.00     0.000 HD 
HETATM   33  H2  UNL     1      -6.002   6.788  67.211  1.00  0.00     0.000 HD 
ENDBRANCH  28  29
ENDBRANCH  22  24
ENDBRANCH  20  22
ENDBRANCH   6  20
TORSDOF 6
ENDMDL
MODEL      245
REMARK 921   NORMALIZED FREE ENERGY PREDICTED BY IDOCK:   -4.55 KCAL/MOL
REMARK 922        TOTAL FREE ENERGY PREDICTED BY IDOCK:   -7.23 KCAL/MOL
REMARK 923 INTER-LIGAND FREE ENERGY PREDICTED BY IDOCK:   -5.90 KCAL/MOL
REMARK 924 INTRA-LIGAND FREE ENERGY PREDICTED BY IDOCK:   -1.34 KCAL/MOL
REMARK 927      BINDING AFFINITY PREDICTED BY RF-SCORE:    0.00 PKD
ROOT
HETATM    1  C   UNL     1      -9.986   8.841  71.998  1.00  0.00    -0.391 C  
HETATM    2  C   UNL     1      -9.967   9.150  70.543  1.00  0.00    -0.235 A  
HETATM    3  C   UNL     1      -9.302   8.496  69.503  1.00  0.00    -0.161 A  
HETATM    4  S   UNL     1      -9.594   9.381  68.042  1.00  0.00    -0.140 SA 
HETATM    5  N   UNL     1     -10.738  10.241  70.161  1.00  0.00    -0.289 NA 
HETATM    6  C   UNL     1     -10.631  10.438  68.879  1.00  0.00    -0.216 A  
ENDROOT
BRANCH   3   7
HETATM    7  C   UNL     1      -8.436   7.298  69.473  1.00  0.00    -0.133 A  
HETATM    8  C   UNL     1      -7.860   5.087  68.610  1.00  0.00    -0.078 A  
HETATM    9  C   UNL     1      -6.568   6.044  70.281  1.00  0.00    -0.044 A  
HETATM   10  C   UNL     1      -8.693   6.215  68.609  1.00  0.00    -0.112 A  
HETATM   11  N   UNL     1      -6.811   5.003  69.460  1.00  0.00    -0.051 NA 
HETATM   12  C   UNL     1      -7.331   7.197  70.314  1.00  0.00    -0.083 A  
BRANCH   8  13
HETATM   13  C   UNL     1      -8.123   3.877  67.702  1.00  0.00    -0.090 C  
HETATM   14  F   UNL     1      -8.282   4.033  65.309  1.00  0.00    -0.098 F  
HETATM   15  C   UNL     1      -7.656   2.562  68.379  1.00  0.00    -0.054 C  
HETATM   16  C   UNL     1      -9.647   3.739  67.490  1.00  0.00    -0.205 C  
HETATM   17  F   UNL     1      -6.555   2.979  66.097  1.00  0.00    -0.033 F  
HETATM   18  F   UNL     1      -6.664   5.141  66.230  1.00  0.00    -0.050 F  
HETATM   19  C   UNL     1      -7.399   4.011  66.341  1.00  0.00    -0.076 C  
ENDBRANCH   8  13
ENDBRANCH   3   7
BRANCH   6  20
HETATM   20  N   UNL     1     -11.227  11.371  68.077  1.00  0.00    -0.257 N  
HETATM   21  H   UNL     1     -12.245  11.375  68.014  1.00  0.00     0.000 HD 
BRANCH  20  22
HETATM   22  C   UNL     1     -10.528  12.302  67.351  1.00  0.00    -0.210 C  
HETATM   23  O   UNL     1      -9.522  12.897  67.728  1.00  0.00    -0.188 OA 
BRANCH  22  24
HETATM   24  N   UNL     1     -11.056  12.552  66.091  1.00  0.00    -0.286 N  
HETATM   25  C   UNL     1     -11.659  13.831  65.756  1.00  0.00    -0.331 C  
HETATM   26  C   UNL     1     -12.756  13.463  64.775  1.00  0.00    -0.310 C  
HETATM   27  C   UNL     1     -12.201  12.257  64.022  1.00  0.00    -0.569 C  
HETATM   28  C   UNL     1     -11.207  11.602  64.984  1.00  0.00    -0.210 C  
BRANCH  28  29
HETATM   29  C   UNL     1      -9.859  11.357  64.282  1.00  0.00    -0.261 C  
HETATM   30  N   UNL     1      -9.749  11.811  62.997  1.00  0.00    -0.546 N  
HETATM   31  O   UNL     1      -8.967  10.681  64.788  1.00  0.00    -0.190 OA 
HETATM   32  H1  UNL     1      -8.855  11.649  62.533  1.00  0.00     0.000 HD 
HETATM   33  H2  UNL     1     -10.519  12.288  62.529  1.00  0.00     0.000 HD 
ENDBRANCH  28  29
ENDBRANCH  22  24
ENDBRANCH  20  22
ENDBRANCH   6  20
TORSDOF 6
ENDMDL
MODEL      246
REMARK 921   NORMALIZED FREE ENERGY PREDICTED BY IDOCK:   -4.54 KCAL/MOL
REMARK 922        TOTAL FREE ENERGY PREDICTED BY IDOCK:   -7.23 KCAL/MOL
REMARK 923 INTER-LIGAND FREE ENERGY PREDICTED BY IDOCK:   -7.35 KCAL/MOL
REMARK 924 INTRA-LIGAND FREE ENERGY PREDICTED BY IDOCK:    0.12 KCAL/MOL
REMARK 927      BINDING AFFINITY PREDICTED BY RF-SCORE:    0.00 PKD
ROOT
HETATM    1  C   UNL     1     -12.885  13.927  65.446  1.00  0.00    -0.466 C  
HETATM    2  C   UNL     1     -11.572  13.353  65.842  1.00  0.00    -0.342 A  
HETATM    3  C   UNL     1     -10.777  13.633  66.957  1.00  0.00    -0.278 A  
HETATM    4  S   UNL     1      -9.319  12.708  66.820  1.00  0.00    -0.232 SA 
HETATM    5  N   UNL     1     -11.070  12.381  64.985  1.00  0.00    -0.295 NA 
HETATM    6  C   UNL     1      -9.912  11.965  65.409  1.00  0.00    -0.252 A  
ENDROOT
BRANCH   3   7
HETATM    7  C   UNL     1     -10.962  14.545  68.106  1.00  0.00    -0.261 A  
HETATM    8  C   UNL     1     -11.986  15.120  70.248  1.00  0.00    -0.319 A  
HETATM    9  C   UNL     1     -10.515  16.602  69.238  1.00  0.00    -0.333 A  
HETATM   10  C   UNL     1     -11.823  14.230  69.175  1.00  0.00    -0.368 A  
HETATM   11  N   UNL     1     -11.341  16.310  70.262  1.00  0.00    -0.340 NA 
HETATM   12  C   UNL     1     -10.287  15.762  68.164  1.00  0.00    -0.242 A  
BRANCH   8  13
HETATM   13  C   UNL     1     -12.935  14.824  71.417  1.00  0.00    -0.413 C  
HETATM   14  F   UNL     1     -12.223  14.764  73.711  1.00  0.00    -0.517 F  
HETATM   15  C   UNL     1     -14.398  15.190  71.053  1.00  0.00    -0.260 C  
HETATM   16  C   UNL     1     -12.924  13.303  71.691  1.00  0.00    -0.441 C  
HETATM   17  F   UNL     1     -13.537  16.398  73.149  1.00  0.00    -0.563 F  
HETATM   18  F   UNL     1     -11.462  16.406  72.520  1.00  0.00    -0.509 F  
HETATM   19  C   UNL     1     -12.538  15.605  72.692  1.00  0.00    -0.433 C  
ENDBRANCH   8  13
ENDBRANCH   3   7
BRANCH   6  20
HETATM   20  N   UNL     1      -9.077  11.010  64.901  1.00  0.00    -0.295 N  
HETATM   21  H   UNL     1      -9.105  10.828  63.897  1.00  0.00     0.000 HD 
BRANCH  20  22
HETATM   22  C   UNL     1      -8.203  10.282  65.668  1.00  0.00    -0.153 C  
HETATM   23  O   UNL     1      -8.448   9.797  66.769  1.00  0.00    -0.123 OA 
BRANCH  22  24
HETATM   24  N   UNL     1      -6.948  10.117  65.096  1.00  0.00    -0.134 N  
HETATM   25  C   UNL     1      -5.918  11.135  65.207  1.00  0.00     0.386 C  
HETATM   26  C   UNL     1      -5.155  11.018  63.901  1.00  0.00     0.087 C  
HETATM   27  C   UNL     1      -5.226   9.533  63.555  1.00  0.00    -0.066 C  
HETATM   28  C   UNL     1      -6.500   9.020  64.231  1.00  0.00    -0.079 C  
BRANCH  28  29
HETATM   29  C   UNL     1      -6.203   7.755  65.056  1.00  0.00    -0.038 C  
HETATM   30  N   UNL     1      -5.541   7.940  66.238  1.00  0.00    -0.028 N  
HETATM   31  O   UNL     1      -6.426   6.625  64.631  1.00  0.00    -0.040 OA 
HETATM   32  H1  UNL     1      -5.344   7.102  66.784  1.00  0.00     0.000 HD 
HETATM   33  H2  UNL     1      -5.261   8.867  66.556  1.00  0.00     0.000 HD 
ENDBRANCH  28  29
ENDBRANCH  22  24
ENDBRANCH  20  22
ENDBRANCH   6  20
TORSDOF 6
ENDMDL
MODEL      247
REMARK 921   NORMALIZED FREE ENERGY PREDICTED BY IDOCK:   -4.51 KCAL/MOL
REMARK 922        TOTAL FREE ENERGY PREDICTED BY IDOCK:   -7.18 KCAL/MOL
REMARK 923 INTER-LIGAND FREE ENERGY PREDICTED BY IDOCK:   -5.54 KCAL/MOL
REMARK 924 INTRA-LIGAND FREE ENERGY PREDICTED BY IDOCK:   -1.64 KCAL/MOL
REMARK 927      BINDING AFFINITY PREDICTED BY RF-SCORE:    0.00 PKD
ROOT
HETATM    1  C   UNL     1      -5.908  11.598  70.337  1.00  0.00    -0.156 C  
HETATM    2  C   UNL     1      -6.521  10.760  69.273  1.00  0.00    -0.067 A  
HETATM    3  C   UNL     1      -7.342  11.134  68.206  1.00  0.00    -0.090 A  
HETATM    4  S   UNL     1      -7.811   9.695  67.361  1.00  0.00    -0.095 SA 
HETATM    5  N   UNL     1      -6.219   9.405  69.341  1.00  0.00    -0.040 NA 
HETATM    6  C   UNL     1      -6.822   8.762  68.384  1.00  0.00    -0.065 A  
ENDROOT
BRANCH   3   7
HETATM    7  C   UNL     1      -7.852  12.447  67.756  1.00  0.00    -0.154 A  
HETATM    8  C   UNL     1      -9.648  13.886  66.937  1.00  0.00    -0.269 A  
HETATM    9  C   UNL     1      -7.517  14.755  67.232  1.00  0.00    -0.141 A  
HETATM   10  C   UNL     1      -9.194  12.631  67.369  1.00  0.00    -0.191 A  
HETATM   11  N   UNL     1      -8.798  14.937  66.856  1.00  0.00    -0.244 NA 
HETATM   12  C   UNL     1      -7.009  13.554  67.693  1.00  0.00    -0.176 A  
BRANCH   8  13
HETATM   13  C   UNL     1     -11.095  14.119  66.482  1.00  0.00    -0.318 C  
HETATM   14  F   UNL     1     -11.673  15.350  64.501  1.00  0.00    -0.395 F  
HETATM   15  C   UNL     1     -12.035  13.012  67.027  1.00  0.00    -0.409 C  
HETATM   16  C   UNL     1     -11.595  15.450  67.087  1.00  0.00    -0.058 C  
HETATM   17  F   UNL     1     -12.080  13.218  64.468  1.00  0.00    -0.380 F  
HETATM   18  F   UNL     1     -10.041  13.938  64.303  1.00  0.00    -0.419 F  
HETATM   19  C   UNL     1     -11.215  14.149  64.940  1.00  0.00    -0.373 C  
ENDBRANCH   8  13
ENDBRANCH   3   7
BRANCH   6  20
HETATM   20  N   UNL     1      -6.792   7.435  68.056  1.00  0.00    -0.067 N  
HETATM   21  H   UNL     1      -5.902   7.029  67.769  1.00  0.00     0.000 HD 
BRANCH  20  22
HETATM   22  C   UNL     1      -7.896   6.621  68.092  1.00  0.00    -0.110 C  
HETATM   23  O   UNL     1      -8.483   6.166  67.114  1.00  0.00    -0.106 OA 
BRANCH  22  24
HETATM   24  N   UNL     1      -8.341   6.325  69.374  1.00  0.00    -0.120 N  
HETATM   25  C   UNL     1      -7.629   5.395  70.234  1.00  0.00    -0.076 C  
HETATM   26  C   UNL     1      -8.732   4.741  71.044  1.00  0.00    -0.138 C  
HETATM   27  C   UNL     1      -9.780   5.838  71.210  1.00  0.00    -0.210 C  
HETATM   28  C   UNL     1      -9.587   6.767  70.009  1.00  0.00    -0.157 C  
BRANCH  28  29
HETATM   29  C   UNL     1      -9.482   8.231  70.470  1.00  0.00    -0.167 C  
HETATM   30  N   UNL     1      -8.596   8.490  71.479  1.00  0.00    -0.165 N  
HETATM   31  O   UNL     1     -10.233   9.108  70.054  1.00  0.00    -0.185 OA 
HETATM   32  H1  UNL     1      -8.526   9.461  71.785  1.00  0.00     0.000 HD 
HETATM   33  H2  UNL     1      -8.036   7.751  71.903  1.00  0.00     0.000 HD 
ENDBRANCH  28  29
ENDBRANCH  22  24
ENDBRANCH  20  22
ENDBRANCH   6  20
TORSDOF 6
ENDMDL
MODEL      248
REMARK 921   NORMALIZED FREE ENERGY PREDICTED BY IDOCK:   -4.51 KCAL/MOL
REMARK 922        TOTAL FREE ENERGY PREDICTED BY IDOCK:   -7.18 KCAL/MOL
REMARK 923 INTER-LIGAND FREE ENERGY PREDICTED BY IDOCK:   -6.62 KCAL/MOL
REMARK 924 INTRA-LIGAND FREE ENERGY PREDICTED BY IDOCK:   -0.56 KCAL/MOL
REMARK 927      BINDING AFFINITY PREDICTED BY RF-SCORE:    0.00 PKD
ROOT
HETATM    1  C   UNL     1      -8.616   9.258  69.485  1.00  0.00    -0.147 C  
HETATM    2  C   UNL     1      -9.343   9.502  68.210  1.00  0.00    -0.133 A  
HETATM    3  C   UNL     1      -9.562   8.642  67.131  1.00  0.00    -0.173 A  
HETATM    4  S   UNL     1     -10.398   9.531  65.900  1.00  0.00     0.220 SA 
HETATM    5  N   UNL     1      -9.900  10.769  68.082  1.00  0.00    -0.154 NA 
HETATM    6  C   UNL     1     -10.488  10.884  66.926  1.00  0.00    -0.249 A  
ENDROOT
BRANCH   3   7
HETATM    7  C   UNL     1      -9.187   7.232  66.891  1.00  0.00    -0.180 A  
HETATM    8  C   UNL     1      -8.790   4.953  67.674  1.00  0.00    -0.103 A  
HETATM    9  C   UNL     1      -8.460   5.479  65.439  1.00  0.00    -0.146 A  
HETATM   10  C   UNL     1      -9.159   6.282  67.930  1.00  0.00    -0.111 A  
HETATM   11  N   UNL     1      -8.426   4.565  66.429  1.00  0.00    -0.112 NA 
HETATM   12  C   UNL     1      -8.839   6.796  65.614  1.00  0.00    -0.043 A  
BRANCH   8  13
HETATM   13  C   UNL     1      -8.722   3.895  68.784  1.00  0.00    -0.135 C  
HETATM   14  F   UNL     1      -6.768   2.568  69.224  1.00  0.00    -0.032 F  
HETATM   15  C   UNL     1      -9.734   4.212  69.917  1.00  0.00    -0.280 C  
HETATM   16  C   UNL     1      -9.144   2.531  68.194  1.00  0.00    -0.229 C  
HETATM   17  F   UNL     1      -7.309   4.024  70.740  1.00  0.00    -0.038 F  
HETATM   18  F   UNL     1      -6.426   4.678  68.870  1.00  0.00    -0.032 F  
HETATM   19  C   UNL     1      -7.308   3.802  69.403  1.00  0.00    -0.052 C  
ENDBRANCH   8  13
ENDBRANCH   3   7
BRANCH   6  20
HETATM   20  N   UNL     1     -11.182  11.933  66.390  1.00  0.00    -0.321 N  
HETATM   21  H   UNL     1     -11.620  11.807  65.478  1.00  0.00     0.000 HD 
BRANCH  20  22
HETATM   22  C   UNL     1     -11.320  13.147  67.014  1.00  0.00    -0.312 C  
HETATM   23  O   UNL     1     -12.131  13.410  67.898  1.00  0.00    -0.338 OA 
BRANCH  22  24
HETATM   24  N   UNL     1     -10.442  14.122  66.559  1.00  0.00    -0.277 N  
HETATM   25  C   UNL     1      -9.002  13.931  66.600  1.00  0.00    -0.134 C  
HETATM   26  C   UNL     1      -8.462  15.327  66.846  1.00  0.00    -0.286 C  
HETATM   27  C   UNL     1      -9.448  16.245  66.129  1.00  0.00    -0.373 C  
HETATM   28  C   UNL     1     -10.772  15.477  66.103  1.00  0.00    -0.313 C  
BRANCH  28  29
HETATM   29  C   UNL     1     -11.354  15.451  64.678  1.00  0.00    -0.355 C  
HETATM   30  N   UNL     1     -11.503  14.219  64.104  1.00  0.00    -0.630 N  
HETATM   31  O   UNL     1     -11.558  16.474  64.032  1.00  0.00    -1.154 OA 
HETATM   32  H1  UNL     1     -11.889  14.202  63.160  1.00  0.00     0.000 HD 
HETATM   33  H2  UNL     1     -11.243  13.364  64.594  1.00  0.00     0.000 HD 
ENDBRANCH  28  29
ENDBRANCH  22  24
ENDBRANCH  20  22
ENDBRANCH   6  20
TORSDOF 6
ENDMDL
MODEL      249
REMARK 921   NORMALIZED FREE ENERGY PREDICTED BY IDOCK:   -4.45 KCAL/MOL
REMARK 922        TOTAL FREE ENERGY PREDICTED BY IDOCK:   -7.11 KCAL/MOL
REMARK 923 INTER-LIGAND FREE ENERGY PREDICTED BY IDOCK:   -6.23 KCAL/MOL
REMARK 924 INTRA-LIGAND FREE ENERGY PREDICTED BY IDOCK:   -0.88 KCAL/MOL
REMARK 927      BINDING AFFINITY PREDICTED BY RF-SCORE:    0.00 PKD
ROOT
HETATM    1  C   UNL     1      -6.424   9.856  65.672  1.00  0.00    -0.092 C  
HETATM    2  C   UNL     1      -7.210   9.672  66.921  1.00  0.00    -0.090 A  
HETATM    3  C   UNL     1      -7.819  10.627  67.739  1.00  0.00    -0.108 A  
HETATM    4  S   UNL     1      -8.510   9.804  69.098  1.00  0.00    -0.155 SA 
HETATM    5  N   UNL     1      -7.376   8.352  67.324  1.00  0.00    -0.084 NA 
HETATM    6  C   UNL     1      -8.053   8.305  68.435  1.00  0.00    -0.127 A  
ENDROOT
BRANCH   3   7
HETATM    7  C   UNL     1      -7.918  12.099  67.646  1.00  0.00    -0.157 A  
HETATM    8  C   UNL     1      -9.216  14.150  67.374  1.00  0.00    -0.204 A  
HETATM    9  C   UNL     1      -6.910  14.265  67.594  1.00  0.00    -0.182 A  
HETATM   10  C   UNL     1      -9.154  12.752  67.469  1.00  0.00    -0.193 A  
HETATM   11  N   UNL     1      -8.088  14.896  67.421  1.00  0.00    -0.182 NA 
HETATM   12  C   UNL     1      -6.778  12.895  67.722  1.00  0.00    -0.141 A  
BRANCH   8  13
HETATM   13  C   UNL     1     -10.540  14.896  67.156  1.00  0.00    -0.285 C  
HETATM   14  F   UNL     1     -12.155  15.254  68.899  1.00  0.00    -0.336 F  
HETATM   15  C   UNL     1     -10.434  15.881  65.963  1.00  0.00    -0.357 C  
HETATM   16  C   UNL     1     -11.629  13.868  66.775  1.00  0.00    -0.398 C  
HETATM   17  F   UNL     1     -11.122  17.014  68.161  1.00  0.00    -0.364 F  
HETATM   18  F   UNL     1     -10.084  15.599  69.434  1.00  0.00    -0.200 F  
HETATM   19  C   UNL     1     -10.965  15.692  68.412  1.00  0.00    -0.308 C  
ENDBRANCH   8  13
ENDBRANCH   3   7
BRANCH   6  20
HETATM   20  N   UNL     1      -8.468   7.231  69.171  1.00  0.00    -0.132 N  
HETATM   21  H   UNL     1      -8.594   6.338  68.694  1.00  0.00     0.000 HD 
BRANCH  20  22
HETATM   22  C   UNL     1      -8.724   7.289  70.518  1.00  0.00    -0.148 C  
HETATM   23  O   UNL     1      -7.966   7.738  71.373  1.00  0.00    -0.090 OA 
BRANCH  22  24
HETATM   24  N   UNL     1      -9.963   6.777  70.882  1.00  0.00    -0.186 N  
HETATM   25  C   UNL     1     -11.138   6.955  70.047  1.00  0.00    -0.299 C  
HETATM   26  C   UNL     1     -12.276   7.052  71.045  1.00  0.00    -0.419 C  
HETATM   27  C   UNL     1     -11.849   6.144  72.195  1.00  0.00    -0.339 C  
HETATM   28  C   UNL     1     -10.319   6.119  72.144  1.00  0.00    -0.197 C  
BRANCH  28  29
HETATM   29  C   UNL     1      -9.801   4.670  72.174  1.00  0.00    -0.175 C  
HETATM   30  N   UNL     1      -9.022   4.324  73.243  1.00  0.00    -0.104 N  
HETATM   31  O   UNL     1      -9.963   3.894  71.237  1.00  0.00    -0.179 OA 
HETATM   32  H1  UNL     1      -8.679   3.363  73.262  1.00  0.00     0.000 HD 
HETATM   33  H2  UNL     1      -8.796   4.990  73.980  1.00  0.00     0.000 HD 
ENDBRANCH  28  29
ENDBRANCH  22  24
ENDBRANCH  20  22
ENDBRANCH   6  20
TORSDOF 6
ENDMDL
MODEL      250
REMARK 921   NORMALIZED FREE ENERGY PREDICTED BY IDOCK:   -4.38 KCAL/MOL
REMARK 922        TOTAL FREE ENERGY PREDICTED BY IDOCK:   -7.01 KCAL/MOL
REMARK 923 INTER-LIGAND FREE ENERGY PREDICTED BY IDOCK:   -6.16 KCAL/MOL
REMARK 924 INTRA-LIGAND FREE ENERGY PREDICTED BY IDOCK:   -0.85 KCAL/MOL
REMARK 927      BINDING AFFINITY PREDICTED BY RF-SCORE:    0.00 PKD
ROOT
HETATM    1  C   UNL     1     -11.209   6.481  66.885  1.00  0.00    -0.205 C  
HETATM    2  C   UNL     1     -10.209   7.069  67.816  1.00  0.00    -0.180 A  
HETATM    3  C   UNL     1      -9.564   8.307  67.764  1.00  0.00    -0.148 A  
HETATM    4  S   UNL     1      -8.441   8.381  69.082  1.00  0.00    -0.123 SA 
HETATM    5  N   UNL     1      -9.880   6.273  68.907  1.00  0.00    -0.132 NA 
HETATM    6  C   UNL     1      -8.983   6.868  69.640  1.00  0.00    -0.144 A  
ENDROOT
BRANCH   3   7
HETATM    7  C   UNL     1      -9.660   9.440  66.819  1.00  0.00    -0.234 A  
HETATM    8  C   UNL     1     -10.106  11.789  66.323  1.00  0.00    -0.217 A  
HETATM    9  C   UNL     1      -9.545  10.334  64.605  1.00  0.00    -0.312 A  
HETATM   10  C   UNL     1     -10.013  10.736  67.244  1.00  0.00    -0.219 A  
HETATM   11  N   UNL     1      -9.887  11.576  65.004  1.00  0.00    -0.252 NA 
HETATM   12  C   UNL     1      -9.409   9.257  65.461  1.00  0.00    -0.303 A  
BRANCH   8  13
HETATM   13  C   UNL     1     -10.513  13.208  66.743  1.00  0.00    -0.262 C  
HETATM   14  F   UNL     1     -12.770  14.025  66.617  1.00  0.00    -0.435 F  
HETATM   15  C   UNL     1      -9.521  13.787  67.785  1.00  0.00    -0.216 C  
HETATM   16  C   UNL     1     -10.432  14.132  65.507  1.00  0.00    -0.352 C  
HETATM   17  F   UNL     1     -11.952  13.745  68.608  1.00  0.00    -0.345 F  
HETATM   18  F   UNL     1     -12.523  12.026  67.416  1.00  0.00    -0.008 F  
HETATM   19  C   UNL     1     -11.936  13.242  67.350  1.00  0.00    -0.335 C  
ENDBRANCH   8  13
ENDBRANCH   3   7
BRANCH   6  20
HETATM   20  N   UNL     1      -8.395   6.472  70.808  1.00  0.00    -0.128 N  
HETATM   21  H   UNL     1      -7.452   6.085  70.767  1.00  0.00     0.000 HD 
BRANCH  20  22
HETATM   22  C   UNL     1      -9.005   6.566  72.033  1.00  0.00    -0.140 C  
HETATM   23  O   UNL     1      -9.743   7.477  72.398  1.00  0.00    -0.150 OA 
BRANCH  22  24
HETATM   24  N   UNL     1      -8.721   5.512  72.891  1.00  0.00    -0.119 N  
HETATM   25  C   UNL     1      -7.688   5.611  73.908  1.00  0.00    -0.100 C  
HETATM   26  C   UNL     1      -7.139   4.200  74.001  1.00  0.00    -0.062 C  
HETATM   27  C   UNL     1      -8.343   3.307  73.714  1.00  0.00    -0.074 C  
HETATM   28  C   UNL     1      -9.281   4.157  72.854  1.00  0.00    -0.111 C  
BRANCH  28  29
HETATM   29  C   UNL     1     -10.709   4.135  73.429  1.00  0.00    -0.220 C  
HETATM   30  N   UNL     1     -11.228   5.340  73.816  1.00  0.00    -0.400 N  
HETATM   31  O   UNL     1     -11.313   3.090  73.653  1.00  0.00    -0.230 OA 
HETATM   32  H1  UNL     1     -12.174   5.325  74.197  1.00  0.00     0.000 HD 
HETATM   33  H2  UNL     1     -10.697   6.206  73.727  1.00  0.00     0.000 HD 
ENDBRANCH  28  29
ENDBRANCH  22  24
ENDBRANCH  20  22
ENDBRANCH   6  20
TORSDOF 6
ENDMDL
MODEL      251
REMARK 921   NORMALIZED FREE ENERGY PREDICTED BY IDOCK:   -4.35 KCAL/MOL
REMARK 922        TOTAL FREE ENERGY PREDICTED BY IDOCK:   -6.97 KCAL/MOL
REMARK 923 INTER-LIGAND FREE ENERGY PREDICTED BY IDOCK:   -6.16 KCAL/MOL
REMARK 924 INTRA-LIGAND FREE ENERGY PREDICTED BY IDOCK:   -0.80 KCAL/MOL
REMARK 927      BINDING AFFINITY PREDICTED BY RF-SCORE:    0.00 PKD
ROOT
HETATM    1  C   UNL     1      -8.678   9.937  63.432  1.00  0.00    -0.230 C  
HETATM    2  C   UNL     1      -9.045   9.595  64.833  1.00  0.00    -0.232 A  
HETATM    3  C   UNL     1      -9.798  10.321  65.758  1.00  0.00    -0.257 A  
HETATM    4  S   UNL     1      -9.803   9.442  67.251  1.00  0.00    -0.193 SA 
HETATM    5  N   UNL     1      -8.582   8.363  65.280  1.00  0.00    -0.171 NA 
HETATM    6  C   UNL     1      -8.935   8.175  66.518  1.00  0.00    -0.158 A  
ENDROOT
BRANCH   3   7
HETATM    7  C   UNL     1     -10.494  11.623  65.673  1.00  0.00    -0.314 A  
HETATM    8  C   UNL     1     -10.704  13.987  66.250  1.00  0.00    -0.289 A  
HETATM    9  C   UNL     1     -12.302  12.983  64.901  1.00  0.00    -0.459 A  
HETATM   10  C   UNL     1     -10.018  12.767  66.342  1.00  0.00    -0.268 A  
HETATM   11  N   UNL     1     -11.854  14.081  65.542  1.00  0.00    -0.351 NA 
HETATM   12  C   UNL     1     -11.662  11.758  64.925  1.00  0.00    -0.187 A  
BRANCH   8  13
HETATM   13  C   UNL     1     -10.231  15.248  66.986  1.00  0.00    -0.260 C  
HETATM   14  F   UNL     1      -8.676  16.819  66.043  1.00  0.00    -0.312 F  
HETATM   15  C   UNL     1     -11.276  15.705  68.037  1.00  0.00    -0.339 C  
HETATM   16  C   UNL     1      -8.944  14.908  67.771  1.00  0.00    -0.177 C  
HETATM   17  F   UNL     1     -10.714  17.516  66.306  1.00  0.00    -0.311 F  
HETATM   18  F   UNL     1     -10.239  16.116  64.719  1.00  0.00    -0.226 F  
HETATM   19  C   UNL     1      -9.973  16.420  66.010  1.00  0.00    -0.345 C  
ENDBRANCH   8  13
ENDBRANCH   3   7
BRANCH   6  20
HETATM   20  N   UNL     1      -8.723   7.106  67.344  1.00  0.00    -0.120 N  
HETATM   21  H   UNL     1      -7.878   7.097  67.914  1.00  0.00     0.000 HD 
BRANCH  20  22
HETATM   22  C   UNL     1      -9.587   6.045  67.445  1.00  0.00    -0.112 C  
HETATM   23  O   UNL     1     -10.740   6.016  67.023  1.00  0.00    -0.276 OA 
BRANCH  22  24
HETATM   24  N   UNL     1      -9.053   4.940  68.095  1.00  0.00    -0.110 N  
HETATM   25  C   UNL     1      -9.898   3.971  68.772  1.00  0.00     0.025 C  
HETATM   26  C   UNL     1      -9.047   3.509  69.941  1.00  0.00    -0.195 C  
HETATM   27  C   UNL     1      -7.616   3.569  69.414  1.00  0.00    -0.051 C  
HETATM   28  C   UNL     1      -7.635   4.632  68.312  1.00  0.00    -0.076 C  
BRANCH  28  29
HETATM   29  C   UNL     1      -6.988   4.088  67.026  1.00  0.00    -0.063 C  
HETATM   30  N   UNL     1      -5.621   4.060  66.997  1.00  0.00    -0.020 N  
HETATM   31  O   UNL     1      -7.643   3.811  66.025  1.00  0.00    -0.085 OA 
HETATM   32  H1  UNL     1      -5.193   3.699  66.144  1.00  0.00     0.000 HD 
HETATM   33  H2  UNL     1      -5.061   4.382  67.786  1.00  0.00     0.000 HD 
ENDBRANCH  28  29
ENDBRANCH  22  24
ENDBRANCH  20  22
ENDBRANCH   6  20
TORSDOF 6
ENDMDL
MODEL      252
REMARK 921   NORMALIZED FREE ENERGY PREDICTED BY IDOCK:   -4.34 KCAL/MOL
REMARK 922        TOTAL FREE ENERGY PREDICTED BY IDOCK:   -6.95 KCAL/MOL
REMARK 923 INTER-LIGAND FREE ENERGY PREDICTED BY IDOCK:   -7.03 KCAL/MOL
REMARK 924 INTRA-LIGAND FREE ENERGY PREDICTED BY IDOCK:    0.08 KCAL/MOL
REMARK 927      BINDING AFFINITY PREDICTED BY RF-SCORE:    0.00 PKD
ROOT
HETATM    1  C   UNL     1     -12.742   9.423  71.787  1.00  0.00    -0.476 C  
HETATM    2  C   UNL     1     -11.805   9.643  70.652  1.00  0.00    -0.256 A  
HETATM    3  C   UNL     1     -10.896   8.761  70.064  1.00  0.00    -0.223 A  
HETATM    4  S   UNL     1     -10.025   9.627  68.842  1.00  0.00    -0.187 SA 
HETATM    5  N   UNL     1     -11.856  10.910  70.083  1.00  0.00    -0.321 NA 
HETATM    6  C   UNL     1     -10.984  11.004  69.121  1.00  0.00    -0.237 A  
ENDROOT
BRANCH   3   7
HETATM    7  C   UNL     1     -10.570   7.344  70.331  1.00  0.00    -0.238 A  
HETATM    8  C   UNL     1      -9.329   5.298  69.843  1.00  0.00    -0.141 A  
HETATM    9  C   UNL     1     -10.910   5.310  71.540  1.00  0.00    -0.094 A  
HETATM   10  C   UNL     1      -9.610   6.645  69.574  1.00  0.00    -0.150 A  
HETATM   11  N   UNL     1      -9.995   4.634  70.817  1.00  0.00    -0.218 NA 
HETATM   12  C   UNL     1     -11.217   6.644  71.347  1.00  0.00    -0.318 A  
BRANCH   8  13
HETATM   13  C   UNL     1      -8.308   4.496  69.023  1.00  0.00    -0.086 C  
HETATM   14  F   UNL     1      -8.413   4.283  66.632  1.00  0.00    -0.107 F  
HETATM   15  C   UNL     1      -6.950   4.398  69.767  1.00  0.00    -0.042 C  
HETATM   16  C   UNL     1      -8.825   3.048  68.871  1.00  0.00    -0.158 C  
HETATM   17  F   UNL     1      -6.758   5.441  67.429  1.00  0.00    -0.051 F  
HETATM   18  F   UNL     1      -8.763   6.268  67.428  1.00  0.00    -0.109 F  
HETATM   19  C   UNL     1      -8.061   5.130  67.634  1.00  0.00    -0.099 C  
ENDBRANCH   8  13
ENDBRANCH   3   7
BRANCH   6  20
HETATM   20  N   UNL     1     -10.707  12.044  68.279  1.00  0.00    -0.215 N  
HETATM   21  H   UNL     1      -9.940  12.671  68.522  1.00  0.00     0.000 HD 
BRANCH  20  22
HETATM   22  C   UNL     1     -11.406  12.291  67.125  1.00  0.00    -0.335 C  
HETATM   23  O   UNL     1     -12.373  11.650  66.721  1.00  0.00     0.076 OA 
BRANCH  22  24
HETATM   24  N   UNL     1     -10.928  13.370  66.392  1.00  0.00    -0.288 N  
HETATM   25  C   UNL     1      -9.776  14.139  66.828  1.00  0.00    -0.277 C  
HETATM   26  C   UNL     1     -10.080  15.545  66.348  1.00  0.00    -0.301 C  
HETATM   27  C   UNL     1     -10.863  15.341  65.054  1.00  0.00    -0.457 C  
HETATM   28  C   UNL     1     -11.528  13.969  65.195  1.00  0.00    -0.328 C  
BRANCH  28  29
HETATM   29  C   UNL     1     -11.254  13.105  63.951  1.00  0.00    -0.336 C  
HETATM   30  N   UNL     1      -9.955  12.737  63.739  1.00  0.00    -0.526 N  
HETATM   31  O   UNL     1     -12.121  12.859  63.117  1.00  0.00    -0.538 OA 
HETATM   32  H1  UNL     1      -9.774  12.164  62.915  1.00  0.00     0.000 HD 
HETATM   33  H2  UNL     1      -9.207  13.019  64.373  1.00  0.00     0.000 HD 
ENDBRANCH  28  29
ENDBRANCH  22  24
ENDBRANCH  20  22
ENDBRANCH   6  20
TORSDOF 6
ENDMDL
MODEL      253
REMARK 921   NORMALIZED FREE ENERGY PREDICTED BY IDOCK:   -4.33 KCAL/MOL
REMARK 922        TOTAL FREE ENERGY PREDICTED BY IDOCK:   -6.95 KCAL/MOL
REMARK 923 INTER-LIGAND FREE ENERGY PREDICTED BY IDOCK:   -6.42 KCAL/MOL
REMARK 924 INTRA-LIGAND FREE ENERGY PREDICTED BY IDOCK:   -0.53 KCAL/MOL
REMARK 927      BINDING AFFINITY PREDICTED BY RF-SCORE:    0.00 PKD
ROOT
HETATM    1  C   UNL     1      -5.179  13.803  70.309  1.00  0.00    -0.099 C  
HETATM    2  C   UNL     1      -6.385  13.723  69.442  1.00  0.00    -0.111 A  
HETATM    3  C   UNL     1      -7.165  14.750  68.905  1.00  0.00    -0.126 A  
HETATM    4  S   UNL     1      -8.488  14.026  68.051  1.00  0.00    -0.183 SA 
HETATM    5  N   UNL     1      -6.783  12.436  69.101  1.00  0.00    -0.102 NA 
HETATM    6  C   UNL     1      -7.855  12.479  68.365  1.00  0.00    -0.141 A  
ENDROOT
BRANCH   3   7
HETATM    7  C   UNL     1      -7.062  16.223  68.983  1.00  0.00    -0.196 A  
HETATM    8  C   UNL     1      -7.810  18.464  68.362  1.00  0.00    -0.306 A  
HETATM    9  C   UNL     1      -5.992  18.207  69.780  1.00  0.00    -0.231 A  
HETATM   10  C   UNL     1      -7.938  17.069  68.276  1.00  0.00    -0.222 A  
HETATM   11  N   UNL     1      -6.824  19.022  69.102  1.00  0.00    -0.309 NA 
HETATM   12  C   UNL     1      -6.078  16.827  69.763  1.00  0.00    -0.224 A  
BRANCH   8  13
HETATM   13  C   UNL     1      -8.728  19.418  67.585  1.00  0.00    -0.350 C  
HETATM   14  F   UNL     1     -11.123  19.225  67.573  1.00  0.00    -0.544 F  
HETATM   15  C   UNL     1      -8.045  20.793  67.366  1.00  0.00    -0.238 C  
HETATM   16  C   UNL     1      -8.977  18.828  66.179  1.00  0.00    -0.150 C  
HETATM   17  F   UNL     1     -10.297  20.957  68.588  1.00  0.00    -0.215 F  
HETATM   18  F   UNL     1     -10.159  18.995  69.500  1.00  0.00    -0.365 F  
HETATM   19  C   UNL     1     -10.070  19.648  68.319  1.00  0.00    -0.449 C  
ENDBRANCH   8  13
ENDBRANCH   3   7
BRANCH   6  20
HETATM   20  N   UNL     1      -8.571  11.467  67.788  1.00  0.00    -0.125 N  
HETATM   21  H   UNL     1      -8.944  10.734  68.392  1.00  0.00     0.000 HD 
BRANCH  20  22
HETATM   22  C   UNL     1      -8.813  11.383  66.441  1.00  0.00    -0.192 C  
HETATM   23  O   UNL     1      -9.678  12.003  65.828  1.00  0.00    -0.240 OA 
BRANCH  22  24
HETATM   24  N   UNL     1      -7.976  10.503  65.767  1.00  0.00    -0.156 N  
HETATM   25  C   UNL     1      -6.531  10.643  65.805  1.00  0.00    -0.107 C  
HETATM   26  C   UNL     1      -6.086  10.152  64.441  1.00  0.00    -0.137 C  
HETATM   27  C   UNL     1      -7.095   9.062  64.085  1.00  0.00    -0.094 C  
HETATM   28  C   UNL     1      -8.367   9.422  64.857  1.00  0.00    -0.150 C  
BRANCH  28  29
HETATM   29  C   UNL     1      -8.886   8.203  65.641  1.00  0.00    -0.120 C  
HETATM   30  N   UNL     1      -8.484   6.975  65.194  1.00  0.00    -0.314 N  
HETATM   31  O   UNL     1      -9.716   8.303  66.540  1.00  0.00    -0.225 OA 
HETATM   32  H1  UNL     1      -8.828   6.168  65.714  1.00  0.00     0.000 HD 
HETATM   33  H2  UNL     1      -7.873   6.872  64.384  1.00  0.00     0.000 HD 
ENDBRANCH  28  29
ENDBRANCH  22  24
ENDBRANCH  20  22
ENDBRANCH   6  20
TORSDOF 6
ENDMDL
MODEL      254
REMARK 921   NORMALIZED FREE ENERGY PREDICTED BY IDOCK:   -4.33 KCAL/MOL
REMARK 922        TOTAL FREE ENERGY PREDICTED BY IDOCK:   -6.95 KCAL/MOL
REMARK 923 INTER-LIGAND FREE ENERGY PREDICTED BY IDOCK:   -5.65 KCAL/MOL
REMARK 924 INTRA-LIGAND FREE ENERGY PREDICTED BY IDOCK:   -1.29 KCAL/MOL
REMARK 927      BINDING AFFINITY PREDICTED BY RF-SCORE:    0.00 PKD
ROOT
HETATM    1  C   UNL     1      -7.790   9.633  70.093  1.00  0.00    -0.185 C  
HETATM    2  C   UNL     1      -8.587   9.487  68.846  1.00  0.00    -0.128 A  
HETATM    3  C   UNL     1      -8.839   8.347  68.079  1.00  0.00    -0.142 A  
HETATM    4  S   UNL     1      -9.759   8.828  66.692  1.00  0.00    -0.264 SA 
HETATM    5  N   UNL     1      -9.182  10.656  68.385  1.00  0.00    -0.152 NA 
HETATM    6  C   UNL     1      -9.831  10.422  67.282  1.00  0.00    -0.178 A  
ENDROOT
BRANCH   3   7
HETATM    7  C   UNL     1      -8.442   6.932  68.240  1.00  0.00    -0.125 A  
HETATM    8  C   UNL     1      -8.462   4.823  69.472  1.00  0.00    -0.082 A  
HETATM    9  C   UNL     1      -7.245   4.997  67.505  1.00  0.00    -0.070 A  
HETATM   10  C   UNL     1      -8.862   6.161  69.341  1.00  0.00    -0.126 A  
HETATM   11  N   UNL     1      -7.640   4.255  68.559  1.00  0.00    -0.063 NA 
HETATM   12  C   UNL     1      -7.623   6.311  67.299  1.00  0.00    -0.093 A  
BRANCH   8  13
HETATM   13  C   UNL     1      -8.878   3.960  70.671  1.00  0.00    -0.135 C  
HETATM   14  F   UNL     1      -7.334   2.606  71.920  1.00  0.00    -0.036 F  
HETATM   15  C   UNL     1     -10.160   4.518  71.341  1.00  0.00    -0.230 C  
HETATM   16  C   UNL     1      -9.234   2.545  70.161  1.00  0.00    -0.199 C  
HETATM   17  F   UNL     1      -8.172   4.321  72.954  1.00  0.00    -0.088 F  
HETATM   18  F   UNL     1      -6.662   4.605  71.424  1.00  0.00    -0.026 F  
HETATM   19  C   UNL     1      -7.761   3.883  71.739  1.00  0.00    -0.065 C  
ENDBRANCH   8  13
ENDBRANCH   3   7
BRANCH   6  20
HETATM   20  N   UNL     1     -10.577  11.262  66.503  1.00  0.00    -0.257 N  
HETATM   21  H   UNL     1     -10.616  11.083  65.499  1.00  0.00     0.000 HD 
BRANCH  20  22
HETATM   22  C   UNL     1     -11.276  12.333  66.999  1.00  0.00    -0.310 C  
HETATM   23  O   UNL     1     -12.274  12.270  67.712  1.00  0.00    -0.425 OA 
BRANCH  22  24
HETATM   24  N   UNL     1     -10.762  13.568  66.624  1.00  0.00    -0.281 N  
HETATM   25  C   UNL     1     -11.602  14.598  66.037  1.00  0.00    -0.328 C  
HETATM   26  C   UNL     1     -10.671  15.316  65.078  1.00  0.00    -0.461 C  
HETATM   27  C   UNL     1      -9.303  15.237  65.750  1.00  0.00    -0.233 C  
HETATM   28  C   UNL     1      -9.357  13.989  66.634  1.00  0.00    -0.277 C  
BRANCH  28  29
HETATM   29  C   UNL     1      -8.892  14.319  68.064  1.00  0.00    -0.178 C  
HETATM   30  N   UNL     1      -9.665  13.837  69.083  1.00  0.00    -0.394 N  
HETATM   31  O   UNL     1      -7.953  15.076  68.292  1.00  0.00    -0.120 OA 
HETATM   32  H1  UNL     1      -9.357  14.056  70.030  1.00  0.00     0.000 HD 
HETATM   33  H2  UNL     1     -10.506  13.289  68.904  1.00  0.00     0.000 HD 
ENDBRANCH  28  29
ENDBRANCH  22  24
ENDBRANCH  20  22
ENDBRANCH   6  20
TORSDOF 6
ENDMDL
MODEL      255
REMARK 921   NORMALIZED FREE ENERGY PREDICTED BY IDOCK:   -4.33 KCAL/MOL
REMARK 922        TOTAL FREE ENERGY PREDICTED BY IDOCK:   -6.95 KCAL/MOL
REMARK 923 INTER-LIGAND FREE ENERGY PREDICTED BY IDOCK:   -5.96 KCAL/MOL
REMARK 924 INTRA-LIGAND FREE ENERGY PREDICTED BY IDOCK:   -0.99 KCAL/MOL
REMARK 927      BINDING AFFINITY PREDICTED BY RF-SCORE:    0.00 PKD
ROOT
HETATM    1  C   UNL     1     -11.065   6.579  66.938  1.00  0.00    -0.342 C  
HETATM    2  C   UNL     1      -9.997   6.907  67.920  1.00  0.00    -0.147 A  
HETATM    3  C   UNL     1      -9.133   8.004  67.961  1.00  0.00    -0.129 A  
HETATM    4  S   UNL     1      -8.050   7.781  69.296  1.00  0.00    -0.129 SA 
HETATM    5  N   UNL     1      -9.850   5.996  68.958  1.00  0.00    -0.142 NA 
HETATM    6  C   UNL     1      -8.877   6.363  69.742  1.00  0.00    -0.142 A  
ENDROOT
BRANCH   3   7
HETATM    7  C   UNL     1      -8.993   9.194  67.095  1.00  0.00    -0.137 A  
HETATM    8  C   UNL     1      -9.766  11.367  66.291  1.00  0.00    -0.212 A  
HETATM    9  C   UNL     1      -7.858  10.413  65.381  1.00  0.00    -0.143 A  
HETATM   10  C   UNL     1      -9.919  10.255  67.132  1.00  0.00    -0.243 A  
HETATM   11  N   UNL     1      -8.742  11.429  65.408  1.00  0.00    -0.001 NA 
HETATM   12  C   UNL     1      -7.932   9.301  66.199  1.00  0.00    -0.107 A  
BRANCH   8  13
HETATM   13  C   UNL     1     -10.768  12.530  66.284  1.00  0.00    -0.288 C  
HETATM   14  F   UNL     1     -12.103  13.132  68.189  1.00  0.00    -0.360 F  
HETATM   15  C   UNL     1     -10.380  13.593  65.223  1.00  0.00    -0.362 C  
HETATM   16  C   UNL     1     -12.153  11.986  65.868  1.00  0.00     0.029 C  
HETATM   17  F   UNL     1     -10.565  14.546  67.600  1.00  0.00    -0.244 F  
HETATM   18  F   UNL     1     -10.019  12.694  68.587  1.00  0.00    -0.218 F  
HETATM   19  C   UNL     1     -10.854  13.224  67.664  1.00  0.00    -0.258 C  
ENDBRANCH   8  13
ENDBRANCH   3   7
BRANCH   6  20
HETATM   20  N   UNL     1      -8.402   5.789  70.888  1.00  0.00    -0.123 N  
HETATM   21  H   UNL     1      -7.816   4.958  70.805  1.00  0.00     0.000 HD 
BRANCH  20  22
HETATM   22  C   UNL     1      -8.672   6.270  72.144  1.00  0.00    -0.133 C  
HETATM   23  O   UNL     1      -7.971   7.057  72.775  1.00  0.00    -0.102 OA 
BRANCH  22  24
HETATM   24  N   UNL     1      -9.851   5.787  72.695  1.00  0.00    -0.164 N  
HETATM   25  C   UNL     1      -9.872   5.109  73.980  1.00  0.00    -0.169 C  
HETATM   26  C   UNL     1     -10.986   4.091  73.830  1.00  0.00    -0.289 C  
HETATM   27  C   UNL     1     -11.995   4.768  72.907  1.00  0.00     0.049 C  
HETATM   28  C   UNL     1     -11.180   5.761  72.074  1.00  0.00    -0.247 C  
BRANCH  28  29
HETATM   29  C   UNL     1     -11.830   7.155  72.107  1.00  0.00    -0.277 C  
HETATM   30  N   UNL     1     -12.749   7.422  71.129  1.00  0.00    -0.519 N  
HETATM   31  O   UNL     1     -11.464   8.035  72.881  1.00  0.00    -0.411 OA 
HETATM   32  H1  UNL     1     -13.179   8.347  71.151  1.00  0.00     0.000 HD 
HETATM   33  H2  UNL     1     -12.989   6.733  70.417  1.00  0.00     0.000 HD 
ENDBRANCH  28  29
ENDBRANCH  22  24
ENDBRANCH  20  22
ENDBRANCH   6  20
TORSDOF 6
ENDMDL
MODEL      256
REMARK 921   NORMALIZED FREE ENERGY PREDICTED BY IDOCK:   -4.30 KCAL/MOL
REMARK 922        TOTAL FREE ENERGY PREDICTED BY IDOCK:   -6.90 KCAL/MOL
REMARK 923 INTER-LIGAND FREE ENERGY PREDICTED BY IDOCK:   -5.53 KCAL/MOL
REMARK 924 INTRA-LIGAND FREE ENERGY PREDICTED BY IDOCK:   -1.38 KCAL/MOL
REMARK 927      BINDING AFFINITY PREDICTED BY RF-SCORE:    0.00 PKD
ROOT
HETATM    1  C   UNL     1      -5.774  10.604  68.403  1.00  0.00    -0.043 C  
HETATM    2  C   UNL     1      -6.774   9.512  68.544  1.00  0.00    -0.053 A  
HETATM    3  C   UNL     1      -7.981   9.317  67.868  1.00  0.00    -0.100 A  
HETATM    4  S   UNL     1      -8.746   7.912  68.535  1.00  0.00    -0.130 SA 
HETATM    5  N   UNL     1      -6.449   8.532  69.474  1.00  0.00    -0.040 NA 
HETATM    6  C   UNL     1      -7.397   7.642  69.536  1.00  0.00    -0.086 A  
ENDROOT
BRANCH   3   7
HETATM    7  C   UNL     1      -8.657  10.081  66.798  1.00  0.00    -0.129 A  
HETATM    8  C   UNL     1     -10.118  11.887  66.044  1.00  0.00    -0.231 A  
HETATM    9  C   UNL     1      -9.181  10.438  64.493  1.00  0.00    -0.246 A  
HETATM   10  C   UNL     1      -9.482  11.187  67.080  1.00  0.00    -0.193 A  
HETATM   11  N   UNL     1      -9.975  11.495  64.756  1.00  0.00    -0.251 NA 
HETATM   12  C   UNL     1      -8.503   9.720  65.461  1.00  0.00    -0.150 A  
BRANCH   8  13
HETATM   13  C   UNL     1     -11.045  13.080  66.313  1.00  0.00    -0.314 C  
HETATM   14  F   UNL     1     -10.313  15.104  67.382  1.00  0.00    -0.235 F  
HETATM   15  C   UNL     1     -12.233  13.098  65.316  1.00  0.00    -0.502 C  
HETATM   16  C   UNL     1     -11.662  12.919  67.721  1.00  0.00    -0.412 C  
HETATM   17  F   UNL     1     -10.842  15.256  65.282  1.00  0.00    -0.307 F  
HETATM   18  F   UNL     1      -8.990  14.293  65.869  1.00  0.00    -0.123 F  
HETATM   19  C   UNL     1     -10.293  14.428  66.204  1.00  0.00    -0.298 C  
ENDBRANCH   8  13
ENDBRANCH   3   7
BRANCH   6  20
HETATM   20  N   UNL     1      -7.491   6.503  70.286  1.00  0.00    -0.092 N  
HETATM   21  H   UNL     1      -7.685   5.624  69.806  1.00  0.00     0.000 HD 
BRANCH  20  22
HETATM   22  C   UNL     1      -7.337   6.479  71.649  1.00  0.00    -0.087 C  
HETATM   23  O   UNL     1      -6.376   6.924  72.270  1.00  0.00    -0.048 OA 
BRANCH  22  24
HETATM   24  N   UNL     1      -8.393   5.884  72.328  1.00  0.00    -0.117 N  
HETATM   25  C   UNL     1      -8.186   4.769  73.235  1.00  0.00    -0.100 C  
HETATM   26  C   UNL     1      -9.451   3.945  73.086  1.00  0.00    -0.137 C  
HETATM   27  C   UNL     1     -10.543   4.976  72.813  1.00  0.00    -0.274 C  
HETATM   28  C   UNL     1      -9.824   6.167  72.173  1.00  0.00    -0.157 C  
BRANCH  28  29
HETATM   29  C   UNL     1     -10.207   7.476  72.888  1.00  0.00    -0.278 C  
HETATM   30  N   UNL     1     -10.345   8.583  72.098  1.00  0.00    -0.322 N  
HETATM   31  O   UNL     1     -10.264   7.566  74.111  1.00  0.00    -0.069 OA 
HETATM   32  H1  UNL     1     -10.598   9.450  72.571  1.00  0.00     0.000 HD 
HETATM   33  H2  UNL     1     -10.201   8.544  71.089  1.00  0.00     0.000 HD 
ENDBRANCH  28  29
ENDBRANCH  22  24
ENDBRANCH  20  22
ENDBRANCH   6  20
TORSDOF 6
ENDMDL
MODEL      257
REMARK 921   NORMALIZED FREE ENERGY PREDICTED BY IDOCK:   -4.26 KCAL/MOL
REMARK 922        TOTAL FREE ENERGY PREDICTED BY IDOCK:   -6.85 KCAL/MOL
REMARK 923 INTER-LIGAND FREE ENERGY PREDICTED BY IDOCK:   -6.10 KCAL/MOL
REMARK 924 INTRA-LIGAND FREE ENERGY PREDICTED BY IDOCK:   -0.76 KCAL/MOL
REMARK 927      BINDING AFFINITY PREDICTED BY RF-SCORE:    0.00 PKD
ROOT
HETATM    1  C   UNL     1     -11.238   6.659  67.168  1.00  0.00    -0.306 C  
HETATM    2  C   UNL     1      -9.976   6.711  67.954  1.00  0.00    -0.132 A  
HETATM    3  C   UNL     1      -8.927   7.633  67.894  1.00  0.00    -0.128 A  
HETATM    4  S   UNL     1      -7.694   7.111  68.994  1.00  0.00    -0.111 SA 
HETATM    5  N   UNL     1      -9.827   5.702  68.898  1.00  0.00    -0.137 NA 
HETATM    6  C   UNL     1      -8.684   5.826  69.508  1.00  0.00    -0.111 A  
ENDROOT
BRANCH   3   7
HETATM    7  C   UNL     1      -8.717   8.849  67.081  1.00  0.00    -0.126 A  
HETATM    8  C   UNL     1      -9.502  10.957  66.128  1.00  0.00    -0.200 A  
HETATM    9  C   UNL     1      -7.357  10.208  65.661  1.00  0.00    -0.144 A  
HETATM   10  C   UNL     1      -9.727   9.816  66.913  1.00  0.00    -0.243 A  
HETATM   11  N   UNL     1      -8.320  11.135  65.493  1.00  0.00    -0.025 NA 
HETATM   12  C   UNL     1      -7.500   9.076  66.442  1.00  0.00    -0.092 A  
BRANCH   8  13
HETATM   13  C   UNL     1     -10.587  12.019  65.900  1.00  0.00    -0.302 C  
HETATM   14  F   UNL     1     -10.988  13.059  63.772  1.00  0.00    -0.394 F  
HETATM   15  C   UNL     1     -11.730  11.879  66.939  1.00  0.00    -0.291 C  
HETATM   16  C   UNL     1      -9.965  13.416  66.124  1.00  0.00    -0.299 C  
HETATM   17  F   UNL     1     -12.540  11.732  64.508  1.00  0.00    -0.301 F  
HETATM   18  F   UNL     1     -10.684  10.914  63.741  1.00  0.00    -0.425 F  
HETATM   19  C   UNL     1     -11.198  11.921  64.483  1.00  0.00    -0.319 C  
ENDBRANCH   8  13
ENDBRANCH   3   7
BRANCH   6  20
HETATM   20  N   UNL     1      -8.137   5.082  70.516  1.00  0.00    -0.091 N  
HETATM   21  H   UNL     1      -7.895   4.110  70.322  1.00  0.00     0.000 HD 
BRANCH  20  22
HETATM   22  C   UNL     1      -7.895   5.573  71.774  1.00  0.00    -0.112 C  
HETATM   23  O   UNL     1      -6.806   5.946  72.201  1.00  0.00    -0.069 OA 
BRANCH  22  24
HETATM   24  N   UNL     1      -9.019   5.624  72.588  1.00  0.00    -0.132 N  
HETATM   25  C   UNL     1      -9.024   5.045  73.920  1.00  0.00    -0.113 C  
HETATM   26  C   UNL     1     -10.452   4.563  74.097  1.00  0.00    -0.321 C  
HETATM   27  C   UNL     1     -11.289   5.570  73.312  1.00  0.00    -0.210 C  
HETATM   28  C   UNL     1     -10.352   6.125  72.236  1.00  0.00    -0.192 C  
BRANCH  28  29
HETATM   29  C   UNL     1     -10.380   7.664  72.237  1.00  0.00    -0.224 C  
HETATM   30  N   UNL     1      -9.171   8.295  72.141  1.00  0.00    -0.198 N  
HETATM   31  O   UNL     1     -11.409   8.303  72.439  1.00  0.00    -0.347 OA 
HETATM   32  H1  UNL     1      -9.190   9.315  72.141  1.00  0.00     0.000 HD 
HETATM   33  H2  UNL     1      -8.298   7.773  72.072  1.00  0.00     0.000 HD 
ENDBRANCH  28  29
ENDBRANCH  22  24
ENDBRANCH  20  22
ENDBRANCH   6  20
TORSDOF 6
ENDMDL
MODEL      258
REMARK 921   NORMALIZED FREE ENERGY PREDICTED BY IDOCK:   -4.26 KCAL/MOL
REMARK 922        TOTAL FREE ENERGY PREDICTED BY IDOCK:   -6.85 KCAL/MOL
REMARK 923 INTER-LIGAND FREE ENERGY PREDICTED BY IDOCK:   -6.89 KCAL/MOL
REMARK 924 INTRA-LIGAND FREE ENERGY PREDICTED BY IDOCK:    0.04 KCAL/MOL
REMARK 927      BINDING AFFINITY PREDICTED BY RF-SCORE:    0.00 PKD
ROOT
HETATM    1  C   UNL     1      -6.449  10.842  67.301  1.00  0.00    -0.070 C  
HETATM    2  C   UNL     1      -7.524   9.822  67.438  1.00  0.00    -0.091 A  
HETATM    3  C   UNL     1      -8.787   9.774  66.843  1.00  0.00    -0.138 A  
HETATM    4  S   UNL     1      -9.617   8.385  67.463  1.00  0.00    -0.163 SA 
HETATM    5  N   UNL     1      -7.218   8.750  68.269  1.00  0.00    -0.081 NA 
HETATM    6  C   UNL     1      -8.230   7.935  68.337  1.00  0.00    -0.124 A  
ENDROOT
BRANCH   3   7
HETATM    7  C   UNL     1      -9.470  10.669  65.885  1.00  0.00    -0.239 A  
HETATM    8  C   UNL     1     -10.762  12.676  65.367  1.00  0.00    -0.280 A  
HETATM    9  C   UNL     1     -10.185  11.206  63.668  1.00  0.00    -0.387 A  
HETATM   10  C   UNL     1     -10.114  11.851  66.298  1.00  0.00    -0.249 A  
HETATM   11  N   UNL     1     -10.807  12.336  64.058  1.00  0.00    -0.352 NA 
HETATM   12  C   UNL     1      -9.505  10.362  64.526  1.00  0.00    -0.342 A  
BRANCH   8  13
HETATM   13  C   UNL     1     -11.497  13.958  65.783  1.00  0.00    -0.324 C  
HETATM   14  F   UNL     1     -12.451  14.282  67.965  1.00  0.00    -0.307 F  
HETATM   15  C   UNL     1     -11.023  15.170  64.940  1.00  0.00    -0.434 C  
HETATM   16  C   UNL     1     -13.003  13.783  65.484  1.00  0.00    -0.363 C  
HETATM   17  F   UNL     1     -10.732  15.512  67.468  1.00  0.00    -0.272 F  
HETATM   18  F   UNL     1     -10.470  13.405  67.912  1.00  0.00    -0.223 F  
HETATM   19  C   UNL     1     -11.279  14.286  67.279  1.00  0.00    -0.318 C  
ENDBRANCH   8  13
ENDBRANCH   3   7
BRANCH   6  20
HETATM   20  N   UNL     1      -8.365   6.751  69.008  1.00  0.00    -0.124 N  
HETATM   21  H   UNL     1      -8.387   5.888  68.464  1.00  0.00     0.000 HD 
BRANCH  20  22
HETATM   22  C   UNL     1      -8.471   6.662  70.373  1.00  0.00    -0.135 C  
HETATM   23  O   UNL     1      -7.566   6.863  71.177  1.00  0.00    -0.085 OA 
BRANCH  22  24
HETATM   24  N   UNL     1      -9.737   6.307  70.820  1.00  0.00    -0.179 N  
HETATM   25  C   UNL     1     -10.942   6.828  70.198  1.00  0.00    -0.292 C  
HETATM   26  C   UNL     1     -11.925   6.931  71.348  1.00  0.00    -0.393 C  
HETATM   27  C   UNL     1     -11.554   5.769  72.266  1.00  0.00    -0.300 C  
HETATM   28  C   UNL     1     -10.072   5.498  71.998  1.00  0.00    -0.186 C  
BRANCH  28  29
HETATM   29  C   UNL     1      -9.837   4.002  71.722  1.00  0.00    -0.179 C  
HETATM   30  N   UNL     1      -9.511   3.228  72.801  1.00  0.00    -0.100 N  
HETATM   31  O   UNL     1      -9.815   3.538  70.586  1.00  0.00    -0.165 OA 
HETATM   32  H1  UNL     1      -9.355   2.237  72.618  1.00  0.00     0.000 HD 
HETATM   33  H2  UNL     1      -9.428   3.621  73.738  1.00  0.00     0.000 HD 
ENDBRANCH  28  29
ENDBRANCH  22  24
ENDBRANCH  20  22
ENDBRANCH   6  20
TORSDOF 6
ENDMDL
MODEL      259
REMARK 921   NORMALIZED FREE ENERGY PREDICTED BY IDOCK:   -4.26 KCAL/MOL
REMARK 922        TOTAL FREE ENERGY PREDICTED BY IDOCK:   -6.85 KCAL/MOL
REMARK 923 INTER-LIGAND FREE ENERGY PREDICTED BY IDOCK:   -5.87 KCAL/MOL
REMARK 924 INTRA-LIGAND FREE ENERGY PREDICTED BY IDOCK:   -0.98 KCAL/MOL
REMARK 927      BINDING AFFINITY PREDICTED BY RF-SCORE:    0.00 PKD
ROOT
HETATM    1  C   UNL     1     -12.719   9.413  71.570  1.00  0.00    -0.444 C  
HETATM    2  C   UNL     1     -11.713   9.885  70.582  1.00  0.00    -0.323 A  
HETATM    3  C   UNL     1     -10.743   9.162  69.884  1.00  0.00    -0.231 A  
HETATM    4  S   UNL     1      -9.812  10.283  68.945  1.00  0.00    -0.205 SA 
HETATM    5  N   UNL     1     -11.757  11.246  70.299  1.00  0.00    -0.331 NA 
HETATM    6  C   UNL     1     -10.824  11.556  69.446  1.00  0.00    -0.126 A  
ENDROOT
BRANCH   3   7
HETATM    7  C   UNL     1     -10.400   7.724  69.859  1.00  0.00    -0.223 A  
HETATM    8  C   UNL     1      -8.781   5.901  69.999  1.00  0.00    -0.133 A  
HETATM    9  C   UNL     1     -11.016   5.430  69.596  1.00  0.00     0.098 A  
HETATM   10  C   UNL     1      -9.078   7.271  70.038  1.00  0.00    -0.148 A  
HETATM   11  N   UNL     1      -9.753   4.989  69.762  1.00  0.00    -0.176 NA 
HETATM   12  C   UNL     1     -11.384   6.761  69.649  1.00  0.00    -0.326 A  
BRANCH   8  13
HETATM   13  C   UNL     1      -7.350   5.370  70.163  1.00  0.00    -0.068 C  
HETATM   14  F   UNL     1      -5.946   5.919  72.034  1.00  0.00    -0.030 F  
HETATM   15  C   UNL     1      -7.160   4.035  69.398  1.00  0.00    -0.046 C  
HETATM   16  C   UNL     1      -6.372   6.381  69.522  1.00  0.00    -0.035 C  
HETATM   17  F   UNL     1      -6.619   3.859  71.901  1.00  0.00    -0.014 F  
HETATM   18  F   UNL     1      -8.002   5.419  72.501  1.00  0.00    -0.098 F  
HETATM   19  C   UNL     1      -6.989   5.139  71.649  1.00  0.00    -0.057 C  
ENDBRANCH   8  13
ENDBRANCH   3   7
BRANCH   6  20
HETATM   20  N   UNL     1     -10.516  12.758  68.873  1.00  0.00    -0.416 N  
HETATM   21  H   UNL     1      -9.719  13.278  69.240  1.00  0.00     0.000 HD 
BRANCH  20  22
HETATM   22  C   UNL     1     -11.223  13.303  67.831  1.00  0.00    -0.272 C  
HETATM   23  O   UNL     1     -12.318  12.919  67.430  1.00  0.00    -0.286 OA 
BRANCH  22  24
HETATM   24  N   UNL     1     -10.591  14.376  67.217  1.00  0.00    -0.276 N  
HETATM   25  C   UNL     1     -11.071  14.928  65.961  1.00  0.00    -0.334 C  
HETATM   26  C   UNL     1      -9.804  15.389  65.265  1.00  0.00    -0.239 C  
HETATM   27  C   UNL     1      -8.888  15.831  66.403  1.00  0.00    -0.371 C  
HETATM   28  C   UNL     1      -9.341  15.026  67.624  1.00  0.00    -0.194 C  
BRANCH  28  29
HETATM   29  C   UNL     1      -9.570  15.955  68.829  1.00  0.00    -0.219 C  
HETATM   30  N   UNL     1     -10.632  16.812  68.744  1.00  0.00    -0.328 N  
HETATM   31  O   UNL     1      -8.781  16.024  69.767  1.00  0.00    -0.022 OA 
HETATM   32  H1  UNL     1     -10.784  17.428  69.543  1.00  0.00     0.000 HD 
HETATM   33  H2  UNL     1     -11.239  16.835  67.925  1.00  0.00     0.000 HD 
ENDBRANCH  28  29
ENDBRANCH  22  24
ENDBRANCH  20  22
ENDBRANCH   6  20
TORSDOF 6
ENDMDL
MODEL      260
REMARK 921   NORMALIZED FREE ENERGY PREDICTED BY IDOCK:   -4.26 KCAL/MOL
REMARK 922        TOTAL FREE ENERGY PREDICTED BY IDOCK:   -6.84 KCAL/MOL
REMARK 923 INTER-LIGAND FREE ENERGY PREDICTED BY IDOCK:   -5.53 KCAL/MOL
REMARK 924 INTRA-LIGAND FREE ENERGY PREDICTED BY IDOCK:   -1.32 KCAL/MOL
REMARK 927      BINDING AFFINITY PREDICTED BY RF-SCORE:    0.00 PKD
ROOT
HETATM    1  C   UNL     1      -5.618   9.601  71.090  1.00  0.00    -0.071 C  
HETATM    2  C   UNL     1      -6.618   8.821  70.314  1.00  0.00    -0.040 A  
HETATM    3  C   UNL     1      -7.456   9.233  69.275  1.00  0.00    -0.075 A  
HETATM    4  S   UNL     1      -8.461   7.891  68.835  1.00  0.00    -0.128 SA 
HETATM    5  N   UNL     1      -6.721   7.480  70.664  1.00  0.00    -0.043 NA 
HETATM    6  C   UNL     1      -7.636   6.899  69.944  1.00  0.00    -0.099 A  
ENDROOT
BRANCH   3   7
HETATM    7  C   UNL     1      -7.624  10.530  68.586  1.00  0.00    -0.099 A  
HETATM    8  C   UNL     1      -8.978  12.456  67.936  1.00  0.00    -0.184 A  
HETATM    9  C   UNL     1      -6.777  12.299  67.220  1.00  0.00    -0.143 A  
HETATM   10  C   UNL     1      -8.845  11.231  68.606  1.00  0.00    -0.141 A  
HETATM   11  N   UNL     1      -7.944  12.973  67.231  1.00  0.00    -0.164 NA 
HETATM   12  C   UNL     1      -6.568  11.103  67.880  1.00  0.00    -0.062 A  
BRANCH   8  13
HETATM   13  C   UNL     1     -10.300  13.236  67.913  1.00  0.00    -0.239 C  
HETATM   14  F   UNL     1     -11.098  14.531  69.772  1.00  0.00    -0.256 F  
HETATM   15  C   UNL     1     -10.704  13.605  66.462  1.00  0.00    -0.284 C  
HETATM   16  C   UNL     1     -11.421  12.323  68.458  1.00  0.00    -0.349 C  
HETATM   17  F   UNL     1     -10.493  15.643  68.009  1.00  0.00    -0.242 F  
HETATM   18  F   UNL     1      -8.996  14.746  69.296  1.00  0.00    -0.181 F  
HETATM   19  C   UNL     1     -10.213  14.538  68.743  1.00  0.00    -0.244 C  
ENDBRANCH   8  13
ENDBRANCH   3   7
BRANCH   6  20
HETATM   20  N   UNL     1      -8.053   5.597  69.930  1.00  0.00    -0.094 N  
HETATM   21  H   UNL     1      -7.373   4.875  69.692  1.00  0.00     0.000 HD 
BRANCH  20  22
HETATM   22  C   UNL     1      -9.337   5.210  70.217  1.00  0.00    -0.156 C  
HETATM   23  O   UNL     1     -10.155   4.781  69.408  1.00  0.00    -0.218 OA 
BRANCH  22  24
HETATM   24  N   UNL     1      -9.683   5.342  71.556  1.00  0.00    -0.157 N  
HETATM   25  C   UNL     1      -8.764   4.980  72.621  1.00  0.00    -0.119 C  
HETATM   26  C   UNL     1      -9.674   4.473  73.724  1.00  0.00    -0.155 C  
HETATM   27  C   UNL     1     -10.944   5.307  73.579  1.00  0.00    -0.353 C  
HETATM   28  C   UNL     1     -10.988   5.724  72.106  1.00  0.00    -0.257 C  
BRANCH  28  29
HETATM   29  C   UNL     1     -11.215   7.241  71.981  1.00  0.00    -0.250 C  
HETATM   30  N   UNL     1     -11.249   7.951  73.149  1.00  0.00    -0.449 N  
HETATM   31  O   UNL     1     -11.480   7.781  70.910  1.00  0.00    -0.277 OA 
HETATM   32  H1  UNL     1     -11.400   8.956  73.065  1.00  0.00     0.000 HD 
HETATM   33  H2  UNL     1     -11.130   7.498  74.055  1.00  0.00     0.000 HD 
ENDBRANCH  28  29
ENDBRANCH  22  24
ENDBRANCH  20  22
ENDBRANCH   6  20
TORSDOF 6
ENDMDL
MODEL      261
REMARK 921   NORMALIZED FREE ENERGY PREDICTED BY IDOCK:   -4.24 KCAL/MOL
REMARK 922        TOTAL FREE ENERGY PREDICTED BY IDOCK:   -6.83 KCAL/MOL
REMARK 923 INTER-LIGAND FREE ENERGY PREDICTED BY IDOCK:   -5.92 KCAL/MOL
REMARK 924 INTRA-LIGAND FREE ENERGY PREDICTED BY IDOCK:   -0.91 KCAL/MOL
REMARK 927      BINDING AFFINITY PREDICTED BY RF-SCORE:    0.00 PKD
ROOT
HETATM    1  C   UNL     1      -5.465  12.123  70.935  1.00  0.00    -0.127 C  
HETATM    2  C   UNL     1      -6.307  11.023  70.393  1.00  0.00    -0.060 A  
HETATM    3  C   UNL     1      -7.281  11.058  69.393  1.00  0.00    -0.114 A  
HETATM    4  S   UNL     1      -7.977   9.476  69.270  1.00  0.00    -0.102 SA 
HETATM    5  N   UNL     1      -6.076   9.773  70.955  1.00  0.00    -0.088 NA 
HETATM    6  C   UNL     1      -6.878   8.892  70.430  1.00  0.00    -0.049 A  
ENDROOT
BRANCH   3   7
HETATM    7  C   UNL     1      -7.786  12.149  68.533  1.00  0.00    -0.122 A  
HETATM    8  C   UNL     1      -9.350  13.027  66.875  1.00  0.00    -0.241 A  
HETATM    9  C   UNL     1      -7.645  14.378  67.680  1.00  0.00    -0.179 A  
HETATM   10  C   UNL     1      -8.899  11.976  67.687  1.00  0.00    -0.172 A  
HETATM   11  N   UNL     1      -8.706  14.218  66.866  1.00  0.00    -0.208 NA 
HETATM   12  C   UNL     1      -7.164  13.396  68.526  1.00  0.00    -0.110 A  
BRANCH   8  13
HETATM   13  C   UNL     1     -10.542  12.869  65.921  1.00  0.00    -0.287 C  
HETATM   14  F   UNL     1     -10.310  12.262  63.608  1.00  0.00    -0.350 F  
HETATM   15  C   UNL     1     -11.837  12.525  66.702  1.00  0.00    -0.422 C  
HETATM   16  C   UNL     1     -10.801  14.224  65.225  1.00  0.00    -0.363 C  
HETATM   17  F   UNL     1     -11.241  10.792  64.904  1.00  0.00    -0.161 F  
HETATM   18  F   UNL     1      -9.103  11.138  65.013  1.00  0.00    -0.201 F  
HETATM   19  C   UNL     1     -10.295  11.761  64.870  1.00  0.00    -0.289 C  
ENDBRANCH   8  13
ENDBRANCH   3   7
BRANCH   6  20
HETATM   20  N   UNL     1      -6.985   7.549  70.659  1.00  0.00    -0.051 N  
HETATM   21  H   UNL     1      -6.739   6.909  69.903  1.00  0.00     0.000 HD 
BRANCH  20  22
HETATM   22  C   UNL     1      -7.405   7.015  71.851  1.00  0.00    -0.086 C  
HETATM   23  O   UNL     1      -6.802   7.082  72.918  1.00  0.00    -0.068 OA 
BRANCH  22  24
HETATM   24  N   UNL     1      -8.623   6.352  71.777  1.00  0.00    -0.128 N  
HETATM   25  C   UNL     1      -8.786   4.996  72.271  1.00  0.00    -0.125 C  
HETATM   26  C   UNL     1      -9.817   4.394  71.335  1.00  0.00    -0.262 C  
HETATM   27  C   UNL     1     -10.723   5.566  70.968  1.00  0.00    -0.275 C  
HETATM   28  C   UNL     1      -9.852   6.815  71.123  1.00  0.00    -0.177 C  
BRANCH  28  29
HETATM   29  C   UNL     1     -10.569   7.871  71.983  1.00  0.00    -0.238 C  
HETATM   30  N   UNL     1     -11.663   7.445  72.684  1.00  0.00    -0.522 N  
HETATM   31  O   UNL     1     -10.266   9.061  71.953  1.00  0.00    -0.343 OA 
HETATM   32  H1  UNL     1     -12.138   8.145  73.254  1.00  0.00     0.000 HD 
HETATM   33  H2  UNL     1     -11.985   6.479  72.640  1.00  0.00     0.000 HD 
ENDBRANCH  28  29
ENDBRANCH  22  24
ENDBRANCH  20  22
ENDBRANCH   6  20
TORSDOF 6
ENDMDL
MODEL      262
REMARK 921   NORMALIZED FREE ENERGY PREDICTED BY IDOCK:   -4.22 KCAL/MOL
REMARK 922        TOTAL FREE ENERGY PREDICTED BY IDOCK:   -6.80 KCAL/MOL
REMARK 923 INTER-LIGAND FREE ENERGY PREDICTED BY IDOCK:   -5.87 KCAL/MOL
REMARK 924 INTRA-LIGAND FREE ENERGY PREDICTED BY IDOCK:   -0.92 KCAL/MOL
REMARK 927      BINDING AFFINITY PREDICTED BY RF-SCORE:    0.00 PKD
ROOT
HETATM    1  C   UNL     1      -9.480   9.507  65.306  1.00  0.00    -0.326 C  
HETATM    2  C   UNL     1      -9.435   9.491  66.792  1.00  0.00    -0.167 A  
HETATM    3  C   UNL     1      -9.908  10.435  67.707  1.00  0.00    -0.168 A  
HETATM    4  S   UNL     1      -9.484   9.896  69.299  1.00  0.00    -0.222 SA 
HETATM    5  N   UNL     1      -8.852   8.361  67.353  1.00  0.00    -0.134 NA 
HETATM    6  C   UNL     1      -8.842   8.460  68.651  1.00  0.00    -0.136 A  
ENDROOT
BRANCH   3   7
HETATM    7  C   UNL     1     -10.615  11.722  67.534  1.00  0.00    -0.247 A  
HETATM    8  C   UNL     1     -11.149  13.992  68.258  1.00  0.00    -0.254 A  
HETATM    9  C   UNL     1     -12.145  13.126  66.351  1.00  0.00    -0.382 A  
HETATM   10  C   UNL     1     -10.457  12.786  68.443  1.00  0.00    -0.253 A  
HETATM   11  N   UNL     1     -12.003  14.147  67.219  1.00  0.00    -0.416 NA 
HETATM   12  C   UNL     1     -11.475  11.921  66.457  1.00  0.00    -0.381 A  
BRANCH   8  13
HETATM   13  C   UNL     1     -11.024  15.165  69.242  1.00  0.00    -0.260 C  
HETATM   14  F   UNL     1     -12.826  15.905  70.648  1.00  0.00    -0.472 F  
HETATM   15  C   UNL     1      -9.548  15.376  69.671  1.00  0.00    -0.233 C  
HETATM   16  C   UNL     1     -11.456  16.462  68.521  1.00  0.00    -0.209 C  
HETATM   17  F   UNL     1     -11.137  14.977  71.648  1.00  0.00    -0.398 F  
HETATM   18  F   UNL     1     -12.536  13.761  70.521  1.00  0.00    -0.364 F  
HETATM   19  C   UNL     1     -11.877  14.943  70.513  1.00  0.00    -0.303 C  
ENDBRANCH   8  13
ENDBRANCH   3   7
BRANCH   6  20
HETATM   20  N   UNL     1      -8.395   7.582  69.599  1.00  0.00    -0.129 N  
HETATM   21  H   UNL     1      -9.070   7.202  70.262  1.00  0.00     0.000 HD 
BRANCH  20  22
HETATM   22  C   UNL     1      -7.086   7.186  69.706  1.00  0.00    -0.073 C  
HETATM   23  O   UNL     1      -6.317   7.490  70.615  1.00  0.00    -0.038 OA 
BRANCH  22  24
HETATM   24  N   UNL     1      -6.651   6.377  68.665  1.00  0.00    -0.049 N  
HETATM   25  C   UNL     1      -5.643   6.824  67.719  1.00  0.00    -0.015 C  
HETATM   26  C   UNL     1      -6.044   6.150  66.421  1.00  0.00    -0.032 C  
HETATM   27  C   UNL     1      -6.654   4.822  66.858  1.00  0.00    -0.050 C  
HETATM   28  C   UNL     1      -7.178   5.064  68.276  1.00  0.00    -0.063 C  
BRANCH  28  29
HETATM   29  C   UNL     1      -6.678   3.966  69.232  1.00  0.00    -0.044 C  
HETATM   30  N   UNL     1      -5.626   4.295  70.041  1.00  0.00    -0.012 N  
HETATM   31  O   UNL     1      -7.106   2.816  69.194  1.00  0.00    -0.043 OA 
HETATM   32  H1  UNL     1      -5.295   3.567  70.674  1.00  0.00     0.000 HD 
HETATM   33  H2  UNL     1      -5.195   5.218  70.012  1.00  0.00     0.000 HD 
ENDBRANCH  28  29
ENDBRANCH  22  24
ENDBRANCH  20  22
ENDBRANCH   6  20
TORSDOF 6
ENDMDL
MODEL      263
REMARK 921   NORMALIZED FREE ENERGY PREDICTED BY IDOCK:   -4.22 KCAL/MOL
REMARK 922        TOTAL FREE ENERGY PREDICTED BY IDOCK:   -6.79 KCAL/MOL
REMARK 923 INTER-LIGAND FREE ENERGY PREDICTED BY IDOCK:   -6.16 KCAL/MOL
REMARK 924 INTRA-LIGAND FREE ENERGY PREDICTED BY IDOCK:   -0.63 KCAL/MOL
REMARK 927      BINDING AFFINITY PREDICTED BY RF-SCORE:    0.00 PKD
ROOT
HETATM    1  C   UNL     1      -5.493  11.958  70.542  1.00  0.00    -0.154 C  
HETATM    2  C   UNL     1      -6.391  11.353  69.523  1.00  0.00    -0.113 A  
HETATM    3  C   UNL     1      -7.230  11.975  68.594  1.00  0.00    -0.110 A  
HETATM    4  S   UNL     1      -8.092  10.737  67.740  1.00  0.00    -0.112 SA 
HETATM    5  N   UNL     1      -6.382   9.964  69.477  1.00  0.00    -0.044 NA 
HETATM    6  C   UNL     1      -7.216   9.540  68.573  1.00  0.00    -0.071 A  
ENDROOT
BRANCH   3   7
HETATM    7  C   UNL     1      -7.494  13.396  68.287  1.00  0.00    -0.129 A  
HETATM    8  C   UNL     1      -8.994  15.207  67.626  1.00  0.00    -0.180 A  
HETATM    9  C   UNL     1      -6.750  15.652  68.013  1.00  0.00    -0.136 A  
HETATM   10  C   UNL     1      -8.775  13.854  67.921  1.00  0.00    -0.184 A  
HETATM   11  N   UNL     1      -7.973  16.095  67.658  1.00  0.00    -0.141 NA 
HETATM   12  C   UNL     1      -6.469  14.339  68.343  1.00  0.00    -0.106 A  
BRANCH   8  13
HETATM   13  C   UNL     1     -10.369  15.738  67.198  1.00  0.00    -0.291 C  
HETATM   14  F   UNL     1     -10.678  17.827  66.050  1.00  0.00    -0.349 F  
HETATM   15  C   UNL     1     -11.381  14.578  67.013  1.00  0.00    -0.359 C  
HETATM   16  C   UNL     1     -10.930  16.627  68.332  1.00  0.00    -0.345 C  
HETATM   17  F   UNL     1     -11.097  16.026  64.913  1.00  0.00    -0.397 F  
HETATM   18  F   UNL     1      -9.047  16.585  65.347  1.00  0.00    -0.093 F  
HETATM   19  C   UNL     1     -10.292  16.537  65.876  1.00  0.00    -0.350 C  
ENDBRANCH   8  13
ENDBRANCH   3   7
BRANCH   6  20
HETATM   20  N   UNL     1      -7.510   8.267  68.171  1.00  0.00    -0.095 N  
HETATM   21  H   UNL     1      -7.591   8.082  67.171  1.00  0.00     0.000 HD 
BRANCH  20  22
HETATM   22  C   UNL     1      -7.704   7.224  69.042  1.00  0.00    -0.112 C  
HETATM   23  O   UNL     1      -6.827   6.485  69.481  1.00  0.00    -0.060 OA 
BRANCH  22  24
HETATM   24  N   UNL     1      -9.028   7.038  69.419  1.00  0.00    -0.139 N  
HETATM   25  C   UNL     1      -9.627   7.799  70.501  1.00  0.00    -0.167 C  
HETATM   26  C   UNL     1     -10.618   6.828  71.116  1.00  0.00    -0.252 C  
HETATM   27  C   UNL     1     -11.103   5.988  69.938  1.00  0.00    -0.469 C  
HETATM   28  C   UNL     1      -9.964   6.027  68.916  1.00  0.00    -0.154 C  
BRANCH  28  29
HETATM   29  C   UNL     1     -10.498   6.414  67.525  1.00  0.00    -0.233 C  
HETATM   30  N   UNL     1     -10.997   7.680  67.396  1.00  0.00    -0.546 N  
HETATM   31  O   UNL     1     -10.594   5.604  66.608  1.00  0.00    -0.272 OA 
HETATM   32  H1  UNL     1     -11.351   7.936  66.474  1.00  0.00     0.000 HD 
HETATM   33  H2  UNL     1     -11.015   8.333  68.179  1.00  0.00     0.000 HD 
ENDBRANCH  28  29
ENDBRANCH  22  24
ENDBRANCH  20  22
ENDBRANCH   6  20
TORSDOF 6
ENDMDL
MODEL      264
REMARK 921   NORMALIZED FREE ENERGY PREDICTED BY IDOCK:   -4.13 KCAL/MOL
REMARK 922        TOTAL FREE ENERGY PREDICTED BY IDOCK:   -6.67 KCAL/MOL
REMARK 923 INTER-LIGAND FREE ENERGY PREDICTED BY IDOCK:   -5.77 KCAL/MOL
REMARK 924 INTRA-LIGAND FREE ENERGY PREDICTED BY IDOCK:   -0.90 KCAL/MOL
REMARK 927      BINDING AFFINITY PREDICTED BY RF-SCORE:    0.00 PKD
ROOT
HETATM    1  C   UNL     1     -10.584   8.094  66.821  1.00  0.00    -0.223 C  
HETATM    2  C   UNL     1      -9.750   8.632  67.929  1.00  0.00    -0.161 A  
HETATM    3  C   UNL     1      -9.509   9.957  68.300  1.00  0.00    -0.139 A  
HETATM    4  S   UNL     1      -8.382   9.948  69.616  1.00  0.00    -0.177 SA 
HETATM    5  N   UNL     1      -9.132   7.672  68.722  1.00  0.00    -0.140 NA 
HETATM    6  C   UNL     1      -8.412   8.247  69.641  1.00  0.00    -0.125 A  
ENDROOT
BRANCH   3   7
HETATM    7  C   UNL     1      -9.998  11.245  67.762  1.00  0.00    -0.193 A  
HETATM    8  C   UNL     1     -10.515  13.619  68.015  1.00  0.00    -0.248 A  
HETATM    9  C   UNL     1     -10.930  12.556  65.994  1.00  0.00    -0.283 A  
HETATM   10  C   UNL     1     -10.037  12.413  68.549  1.00  0.00    -0.190 A  
HETATM   11  N   UNL     1     -10.974  13.677  66.743  1.00  0.00    -0.290 NA 
HETATM   12  C   UNL     1     -10.447  11.343  66.447  1.00  0.00    -0.299 A  
BRANCH   8  13
HETATM   13  C   UNL     1     -10.598  14.905  68.848  1.00  0.00    -0.247 C  
HETATM   14  F   UNL     1     -12.657  15.775  69.729  1.00  0.00    -0.360 F  
HETATM   15  C   UNL     1      -9.249  15.198  69.555  1.00  0.00    -0.139 C  
HETATM   16  C   UNL     1     -10.856  16.095  67.895  1.00  0.00    -0.332 C  
HETATM   17  F   UNL     1     -11.231  15.013  71.177  1.00  0.00    -0.332 F  
HETATM   18  F   UNL     1     -12.360  13.639  69.935  1.00  0.00    -0.348 F  
HETATM   19  C   UNL     1     -11.708  14.824  69.922  1.00  0.00    -0.306 C  
ENDBRANCH   8  13
ENDBRANCH   3   7
BRANCH   6  20
HETATM   20  N   UNL     1      -7.661   7.701  70.644  1.00  0.00    -0.087 N  
HETATM   21  H   UNL     1      -7.472   8.269  71.470  1.00  0.00     0.000 HD 
BRANCH  20  22
HETATM   22  C   UNL     1      -7.148   6.430  70.599  1.00  0.00    -0.069 C  
HETATM   23  O   UNL     1      -6.001   6.130  70.278  1.00  0.00    -0.027 OA 
BRANCH  22  24
HETATM   24  N   UNL     1      -8.054   5.439  70.956  1.00  0.00    -0.111 N  
HETATM   25  C   UNL     1      -8.466   4.408  70.020  1.00  0.00    -0.065 C  
HETATM   26  C   UNL     1      -9.904   4.124  70.409  1.00  0.00    -0.237 C  
HETATM   27  C   UNL     1      -9.937   4.340  71.920  1.00  0.00    -0.255 C  
HETATM   28  C   UNL     1      -8.806   5.330  72.211  1.00  0.00    -0.129 C  
BRANCH  28  29
HETATM   29  C   UNL     1      -7.908   4.805  73.346  1.00  0.00    -0.096 C  
HETATM   30  N   UNL     1      -8.132   3.520  73.756  1.00  0.00    -0.078 N  
HETATM   31  O   UNL     1      -7.117   5.527  73.947  1.00  0.00    -0.083 OA 
HETATM   32  H1  UNL     1      -7.537   3.173  74.508  1.00  0.00     0.000 HD 
HETATM   33  H2  UNL     1      -8.855   2.940  73.331  1.00  0.00     0.000 HD 
ENDBRANCH  28  29
ENDBRANCH  22  24
ENDBRANCH  20  22
ENDBRANCH   6  20
TORSDOF 6
ENDMDL
MODEL      265
REMARK 921   NORMALIZED FREE ENERGY PREDICTED BY IDOCK:   -4.10 KCAL/MOL
REMARK 922        TOTAL FREE ENERGY PREDICTED BY IDOCK:   -6.63 KCAL/MOL
REMARK 923 INTER-LIGAND FREE ENERGY PREDICTED BY IDOCK:   -6.06 KCAL/MOL
REMARK 924 INTRA-LIGAND FREE ENERGY PREDICTED BY IDOCK:   -0.57 KCAL/MOL
REMARK 927      BINDING AFFINITY PREDICTED BY RF-SCORE:    0.00 PKD
ROOT
HETATM    1  C   UNL     1      -8.628   8.917  63.366  1.00  0.00    -0.104 C  
HETATM    2  C   UNL     1      -8.707   9.547  64.711  1.00  0.00    -0.197 A  
HETATM    3  C   UNL     1      -9.108   8.995  65.930  1.00  0.00    -0.212 A  
HETATM    4  S   UNL     1      -9.070  10.251  67.123  1.00  0.00    -0.142 SA 
HETATM    5  N   UNL     1      -8.306  10.877  64.764  1.00  0.00     0.009 NA 
HETATM    6  C   UNL     1      -8.438  11.335  65.975  1.00  0.00    -0.102 A  
ENDROOT
BRANCH   3   7
HETATM    7  C   UNL     1      -9.554   7.637  66.309  1.00  0.00    -0.155 A  
HETATM    8  C   UNL     1      -9.385   5.205  66.170  1.00  0.00    -0.155 A  
HETATM    9  C   UNL     1     -11.030   6.172  67.487  1.00  0.00    -0.307 A  
HETATM   10  C   UNL     1      -8.933   6.480  65.800  1.00  0.00    -0.060 A  
HETATM   11  N   UNL     1     -10.444   5.061  67.000  1.00  0.00    -0.190 NA 
HETATM   12  C   UNL     1     -10.621   7.458  67.187  1.00  0.00    -0.413 A  
BRANCH   8  13
HETATM   13  C   UNL     1      -8.751   3.921  65.615  1.00  0.00    -0.117 C  
HETATM   14  F   UNL     1     -10.016   2.185  64.539  1.00  0.00    -0.119 F  
HETATM   15  C   UNL     1      -7.257   4.145  65.263  1.00  0.00    -0.071 C  
HETATM   16  C   UNL     1      -8.780   2.840  66.718  1.00  0.00    -0.131 C  
HETATM   17  F   UNL     1      -8.658   3.316  63.278  1.00  0.00    -0.087 F  
HETATM   18  F   UNL     1     -10.508   4.216  63.966  1.00  0.00    -0.201 F  
HETATM   19  C   UNL     1      -9.483   3.419  64.348  1.00  0.00    -0.146 C  
ENDBRANCH   8  13
ENDBRANCH   3   7
BRANCH   6  20
HETATM   20  N   UNL     1      -8.144  12.567  66.489  1.00  0.00    -0.389 N  
HETATM   21  H   UNL     1      -7.363  13.085  66.086  1.00  0.00     0.000 HD 
BRANCH  20  22
HETATM   22  C   UNL     1      -8.844  13.145  67.517  1.00  0.00    -0.199 C  
HETATM   23  O   UNL     1      -8.868  12.749  68.680  1.00  0.00    -0.083 OA 
BRANCH  22  24
HETATM   24  N   UNL     1      -9.571  14.269  67.148  1.00  0.00    -0.238 N  
HETATM   25  C   UNL     1      -9.473  14.837  65.814  1.00  0.00    -0.174 C  
HETATM   26  C   UNL     1      -9.660  16.325  66.043  1.00  0.00    -0.371 C  
HETATM   27  C   UNL     1     -10.622  16.407  67.226  1.00  0.00    -0.293 C  
HETATM   28  C   UNL     1     -10.415  15.107  68.007  1.00  0.00    -0.247 C  
BRANCH  28  29
HETATM   29  C   UNL     1     -11.766  14.423  68.285  1.00  0.00    -0.341 C  
HETATM   30  N   UNL     1     -12.463  13.984  67.193  1.00  0.00    -0.510 N  
HETATM   31  O   UNL     1     -12.264  14.380  69.406  1.00  0.00    -0.317 OA 
HETATM   32  H1  UNL     1     -13.358  13.531  67.378  1.00  0.00     0.000 HD 
HETATM   33  H2  UNL     1     -12.106  14.104  66.245  1.00  0.00     0.000 HD 
ENDBRANCH  28  29
ENDBRANCH  22  24
ENDBRANCH  20  22
ENDBRANCH   6  20
TORSDOF 6
ENDMDL
MODEL      266
REMARK 921   NORMALIZED FREE ENERGY PREDICTED BY IDOCK:   -4.03 KCAL/MOL
REMARK 922        TOTAL FREE ENERGY PREDICTED BY IDOCK:   -6.54 KCAL/MOL
REMARK 923 INTER-LIGAND FREE ENERGY PREDICTED BY IDOCK:   -6.01 KCAL/MOL
REMARK 924 INTRA-LIGAND FREE ENERGY PREDICTED BY IDOCK:   -0.53 KCAL/MOL
REMARK 927      BINDING AFFINITY PREDICTED BY RF-SCORE:    0.00 PKD
ROOT
HETATM    1  C   UNL     1     -11.223   6.448  66.885  1.00  0.00    -0.208 C  
HETATM    2  C   UNL     1     -10.007   6.664  67.714  1.00  0.00    -0.132 A  
HETATM    3  C   UNL     1      -9.163   7.775  67.784  1.00  0.00    -0.136 A  
HETATM    4  S   UNL     1      -7.866   7.394  68.867  1.00  0.00    -0.119 SA 
HETATM    5  N   UNL     1      -9.672   5.611  68.556  1.00  0.00    -0.129 NA 
HETATM    6  C   UNL     1      -8.586   5.892  69.215  1.00  0.00    -0.112 A  
ENDROOT
BRANCH   3   7
HETATM    7  C   UNL     1      -9.189   9.089  67.106  1.00  0.00    -0.164 A  
HETATM    8  C   UNL     1     -10.005  11.382  66.897  1.00  0.00    -0.206 A  
HETATM    9  C   UNL     1      -8.497  10.549  65.344  1.00  0.00    -0.170 A  
HETATM   10  C   UNL     1      -9.993  10.149  67.567  1.00  0.00    -0.231 A  
HETATM   11  N   UNL     1      -9.267  11.566  65.778  1.00  0.00    -0.219 NA 
HETATM   12  C   UNL     1      -8.416   9.319  65.970  1.00  0.00    -0.144 A  
BRANCH   8  13
HETATM   13  C   UNL     1     -10.888  12.552  67.355  1.00  0.00    -0.272 C  
HETATM   14  F   UNL     1     -10.113  14.295  68.816  1.00  0.00    -0.219 F  
HETATM   15  C   UNL     1     -12.026  12.822  66.336  1.00  0.00    -0.443 C  
HETATM   16  C   UNL     1     -11.576  12.162  68.682  1.00  0.00    -0.372 C  
HETATM   17  F   UNL     1     -10.537  14.868  66.765  1.00  0.00    -0.282 F  
HETATM   18  F   UNL     1      -8.760  13.713  67.227  1.00  0.00    -0.177 F  
HETATM   19  C   UNL     1     -10.070  13.853  67.532  1.00  0.00    -0.244 C  
ENDBRANCH   8  13
ENDBRANCH   3   7
BRANCH   6  20
HETATM   20  N   UNL     1      -7.914   5.168  70.160  1.00  0.00    -0.078 N  
HETATM   21  H   UNL     1      -7.113   4.611  69.863  1.00  0.00     0.000 HD 
BRANCH  20  22
HETATM   22  C   UNL     1      -8.261   5.151  71.487  1.00  0.00    -0.116 C  
HETATM   23  O   UNL     1      -7.915   4.305  72.308  1.00  0.00    -0.087 OA 
BRANCH  22  24
HETATM   24  N   UNL     1      -9.076   6.207  71.874  1.00  0.00    -0.141 N  
HETATM   25  C   UNL     1     -10.525   6.097  71.860  1.00  0.00    -0.213 C  
HETATM   26  C   UNL     1     -10.987   7.500  71.514  1.00  0.00    -0.256 C  
HETATM   27  C   UNL     1      -9.941   8.410  72.151  1.00  0.00    -0.376 C  
HETATM   28  C   UNL     1      -8.664   7.570  72.224  1.00  0.00    -0.119 C  
BRANCH  28  29
HETATM   29  C   UNL     1      -8.066   7.617  73.642  1.00  0.00    -0.157 C  
HETATM   30  N   UNL     1      -7.811   6.412  74.236  1.00  0.00    -0.104 N  
HETATM   31  O   UNL     1      -7.938   8.666  74.268  1.00  0.00    -0.382 OA 
HETATM   32  H1  UNL     1      -7.416   6.444  75.176  1.00  0.00     0.000 HD 
HETATM   33  H2  UNL     1      -8.007   5.530  73.765  1.00  0.00     0.000 HD 
ENDBRANCH  28  29
ENDBRANCH  22  24
ENDBRANCH  20  22
ENDBRANCH   6  20
TORSDOF 6
ENDMDL
MODEL      267
REMARK 921   NORMALIZED FREE ENERGY PREDICTED BY IDOCK:   -3.96 KCAL/MOL
REMARK 922        TOTAL FREE ENERGY PREDICTED BY IDOCK:   -6.44 KCAL/MOL
REMARK 923 INTER-LIGAND FREE ENERGY PREDICTED BY IDOCK:   -5.31 KCAL/MOL
REMARK 924 INTRA-LIGAND FREE ENERGY PREDICTED BY IDOCK:   -1.13 KCAL/MOL
REMARK 927      BINDING AFFINITY PREDICTED BY RF-SCORE:    0.00 PKD
ROOT
HETATM    1  C   UNL     1      -8.407   8.513  64.674  1.00  0.00    -0.156 C  
HETATM    2  C   UNL     1      -8.589   9.003  66.067  1.00  0.00    -0.142 A  
HETATM    3  C   UNL     1      -8.206   8.415  67.275  1.00  0.00    -0.112 A  
HETATM    4  S   UNL     1      -8.774   9.423  68.564  1.00  0.00    -0.128 SA 
HETATM    5  N   UNL     1      -9.219  10.237  66.180  1.00  0.00    -0.154 NA 
HETATM    6  C   UNL     1      -9.349  10.558  67.435  1.00  0.00    -0.142 A  
ENDROOT
BRANCH   3   7
HETATM    7  C   UNL     1      -7.489   7.160  67.587  1.00  0.00    -0.101 A  
HETATM    8  C   UNL     1      -7.399   4.725  67.761  1.00  0.00    -0.070 A  
HETATM    9  C   UNL     1      -5.552   5.993  68.360  1.00  0.00    -0.012 A  
HETATM   10  C   UNL     1      -8.101   5.899  67.447  1.00  0.00    -0.102 A  
HETATM   11  N   UNL     1      -6.132   4.783  68.232  1.00  0.00    -0.030 NA 
HETATM   12  C   UNL     1      -6.173   7.187  68.044  1.00  0.00    -0.035 A  
BRANCH   8  13
HETATM   13  C   UNL     1      -8.040   3.335  67.646  1.00  0.00    -0.081 C  
HETATM   14  F   UNL     1      -7.742   1.606  69.288  1.00  0.00    -0.042 F  
HETATM   15  C   UNL     1      -9.321   3.383  66.773  1.00  0.00    -0.190 C  
HETATM   16  C   UNL     1      -7.053   2.395  66.919  1.00  0.00    -0.049 C  
HETATM   17  F   UNL     1      -9.732   2.459  69.132  1.00  0.00    -0.199 F  
HETATM   18  F   UNL     1      -8.132   3.593  70.058  1.00  0.00    -0.050 F  
HETATM   19  C   UNL     1      -8.414   2.758  69.032  1.00  0.00    -0.067 C  
ENDBRANCH   8  13
ENDBRANCH   3   7
BRANCH   6  20
HETATM   20  N   UNL     1      -9.880  11.680  68.007  1.00  0.00    -0.184 N  
HETATM   21  H   UNL     1      -9.243  12.423  68.297  1.00  0.00     0.000 HD 
BRANCH  20  22
HETATM   22  C   UNL     1     -11.224  11.861  68.214  1.00  0.00    -0.261 C  
HETATM   23  O   UNL     1     -12.088  10.995  68.110  1.00  0.00    -0.610 OA 
BRANCH  22  24
HETATM   24  N   UNL     1     -11.574  13.158  68.565  1.00  0.00    -0.303 N  
HETATM   25  C   UNL     1     -12.027  14.122  67.577  1.00  0.00    -0.384 C  
HETATM   26  C   UNL     1     -11.511  15.447  68.104  1.00  0.00    -0.352 C  
HETATM   27  C   UNL     1     -11.562  15.295  69.622  1.00  0.00    -0.340 C  
HETATM   28  C   UNL     1     -11.444  13.791  69.883  1.00  0.00    -0.160 C  
BRANCH  28  29
HETATM   29  C   UNL     1     -12.558  13.318  70.833  1.00  0.00    -0.306 C  
HETATM   30  N   UNL     1     -12.499  12.014  71.240  1.00  0.00    -0.265 N  
HETATM   31  O   UNL     1     -13.522  14.022  71.119  1.00  0.00    -0.288 OA 
HETATM   32  H1  UNL     1     -13.238  11.701  71.869  1.00  0.00     0.000 HD 
HETATM   33  H2  UNL     1     -11.756  11.388  70.929  1.00  0.00     0.000 HD 
ENDBRANCH  28  29
ENDBRANCH  22  24
ENDBRANCH  20  22
ENDBRANCH   6  20
TORSDOF 6
ENDMDL
MODEL      268
REMARK 921   NORMALIZED FREE ENERGY PREDICTED BY IDOCK:   -3.93 KCAL/MOL
REMARK 922        TOTAL FREE ENERGY PREDICTED BY IDOCK:   -6.41 KCAL/MOL
REMARK 923 INTER-LIGAND FREE ENERGY PREDICTED BY IDOCK:   -6.35 KCAL/MOL
REMARK 924 INTRA-LIGAND FREE ENERGY PREDICTED BY IDOCK:   -0.06 KCAL/MOL
REMARK 927      BINDING AFFINITY PREDICTED BY RF-SCORE:    0.00 PKD
ROOT
HETATM    1  C   UNL     1     -11.220  11.488  64.770  1.00  0.00    -0.258 C  
HETATM    2  C   UNL     1     -10.349  12.283  65.677  1.00  0.00    -0.257 A  
HETATM    3  C   UNL     1      -9.705  11.898  66.856  1.00  0.00    -0.200 A  
HETATM    4  S   UNL     1      -8.909  13.291  67.509  1.00  0.00    -0.219 SA 
HETATM    5  N   UNL     1     -10.131  13.598  65.284  1.00  0.00    -0.303 NA 
HETATM    6  C   UNL     1      -9.381  14.207  66.155  1.00  0.00    -0.136 A  
ENDROOT
BRANCH   3   7
HETATM    7  C   UNL     1      -9.640  10.610  67.579  1.00  0.00    -0.180 A  
HETATM    8  C   UNL     1      -9.384   8.182  67.621  1.00  0.00    -0.140 A  
HETATM    9  C   UNL     1      -9.764   9.335  69.597  1.00  0.00    -0.182 A  
HETATM   10  C   UNL     1      -9.431   9.389  66.909  1.00  0.00    -0.204 A  
HETATM   11  N   UNL     1      -9.568   8.163  68.962  1.00  0.00    -0.155 NA 
HETATM   12  C   UNL     1      -9.795  10.563  68.963  1.00  0.00    -0.224 A  
BRANCH   8  13
HETATM   13  C   UNL     1      -9.184   6.829  66.923  1.00  0.00    -0.162 C  
HETATM   14  F   UNL     1     -10.551   4.903  67.364  1.00  0.00    -0.202 F  
HETATM   15  C   UNL     1      -8.494   7.010  65.546  1.00  0.00    -0.120 C  
HETATM   16  C   UNL     1      -8.227   5.968  67.779  1.00  0.00    -0.112 C  
HETATM   17  F   UNL     1     -10.756   5.806  65.401  1.00  0.00     0.379 F  
HETATM   18  F   UNL     1     -11.601   6.785  67.142  1.00  0.00    -0.399 F  
HETATM   19  C   UNL     1     -10.526   6.090  66.706  1.00  0.00    -0.267 C  
ENDBRANCH   8  13
ENDBRANCH   3   7
BRANCH   6  20
HETATM   20  N   UNL     1      -8.897  15.486  66.163  1.00  0.00    -0.419 N  
HETATM   21  H   UNL     1      -8.811  15.975  65.272  1.00  0.00     0.000 HD 
BRANCH  20  22
HETATM   22  C   UNL     1      -8.521  16.146  67.305  1.00  0.00    -0.180 C  
HETATM   23  O   UNL     1      -8.124  15.618  68.341  1.00  0.00    -0.131 OA 
BRANCH  22  24
HETATM   24  N   UNL     1      -8.623  17.528  67.221  1.00  0.00    -0.222 N  
HETATM   25  C   UNL     1      -9.899  18.209  67.353  1.00  0.00    -0.313 C  
HETATM   26  C   UNL     1      -9.761  19.410  66.437  1.00  0.00    -0.460 C  
HETATM   27  C   UNL     1      -8.283  19.781  66.519  1.00  0.00    -0.363 C  
HETATM   28  C   UNL     1      -7.560  18.481  66.883  1.00  0.00    -0.221 C  
BRANCH  28  29
HETATM   29  C   UNL     1      -6.619  18.704  68.080  1.00  0.00    -0.222 C  
HETATM   30  N   UNL     1      -5.358  18.187  67.969  1.00  0.00    -0.155 N  
HETATM   31  O   UNL     1      -7.002  19.203  69.134  1.00  0.00    -0.321 OA 
HETATM   32  H1  UNL     1      -4.735  18.335  68.763  1.00  0.00     0.000 HD 
HETATM   33  H2  UNL     1      -5.058  17.681  67.136  1.00  0.00     0.000 HD 
ENDBRANCH  28  29
ENDBRANCH  22  24
ENDBRANCH  20  22
ENDBRANCH   6  20
TORSDOF 6
ENDMDL
MODEL      269
REMARK 921   NORMALIZED FREE ENERGY PREDICTED BY IDOCK:   -3.79 KCAL/MOL
REMARK 922        TOTAL FREE ENERGY PREDICTED BY IDOCK:   -6.22 KCAL/MOL
REMARK 923 INTER-LIGAND FREE ENERGY PREDICTED BY IDOCK:   -5.20 KCAL/MOL
REMARK 924 INTRA-LIGAND FREE ENERGY PREDICTED BY IDOCK:   -1.02 KCAL/MOL
REMARK 927      BINDING AFFINITY PREDICTED BY RF-SCORE:    0.00 PKD
ROOT
HETATM    1  C   UNL     1      -9.293  14.390  66.847  1.00  0.00    -0.269 C  
HETATM    2  C   UNL     1     -10.044  13.310  67.541  1.00  0.00    -0.223 A  
HETATM    3  C   UNL     1     -10.322  12.007  67.120  1.00  0.00    -0.213 A  
HETATM    4  S   UNL     1     -11.314  11.256  68.326  1.00  0.00    -0.308 SA 
HETATM    5  N   UNL     1     -10.528  13.643  68.801  1.00  0.00    -0.230 NA 
HETATM    6  C   UNL     1     -11.187  12.641  69.306  1.00  0.00    -0.193 A  
ENDROOT
BRANCH   3   7
HETATM    7  C   UNL     1      -9.961  11.258  65.898  1.00  0.00    -0.277 A  
HETATM    8  C   UNL     1      -8.639   9.572  64.725  1.00  0.00    -0.176 A  
HETATM    9  C   UNL     1     -10.202  10.828  63.559  1.00  0.00    -0.250 A  
HETATM   10  C   UNL     1      -8.967  10.259  65.903  1.00  0.00    -0.181 A  
HETATM   11  N   UNL     1      -9.250   9.874  63.556  1.00  0.00    -0.264 NA 
HETATM   12  C   UNL     1     -10.594  11.525  64.686  1.00  0.00    -0.369 A  
BRANCH   8  13
HETATM   13  C   UNL     1      -7.544   8.496  64.685  1.00  0.00    -0.102 C  
HETATM   14  F   UNL     1      -7.131   6.967  66.492  1.00  0.00    -0.068 F  
HETATM   15  C   UNL     1      -7.203   8.103  63.224  1.00  0.00    -0.091 C  
HETATM   16  C   UNL     1      -6.250   9.086  65.290  1.00  0.00    -0.063 C  
HETATM   17  F   UNL     1      -7.940   6.113  64.669  1.00  0.00    -0.099 F  
HETATM   18  F   UNL     1      -9.210   7.289  65.975  1.00  0.00    -0.189 F  
HETATM   19  C   UNL     1      -7.965   7.219  65.451  1.00  0.00    -0.125 C  
ENDBRANCH   8  13
ENDBRANCH   3   7
BRANCH   6  20
HETATM   20  N   UNL     1     -11.805  12.513  70.519  1.00  0.00    -0.529 N  
HETATM   21  H   UNL     1     -11.521  11.744  71.127  1.00  0.00     0.000 HD 
BRANCH  20  22
HETATM   22  C   UNL     1     -12.786  13.363  70.962  1.00  0.00    -0.307 C  
HETATM   23  O   UNL     1     -13.987  13.253  70.732  1.00  0.00     0.844 OA 
BRANCH  22  24
HETATM   24  N   UNL     1     -12.316  14.421  71.729  1.00  0.00    -0.336 N  
HETATM   25  C   UNL     1     -11.926  14.245  73.117  1.00  0.00     0.424 C  
HETATM   26  C   UNL     1     -12.292  15.567  73.763  1.00  0.00    -0.734 C  
HETATM   27  C   UNL     1     -12.067  16.600  72.662  1.00  0.00    -0.237 C  
HETATM   28  C   UNL     1     -12.246  15.836  71.348  1.00  0.00    -0.445 C  
BRANCH  28  29
HETATM   29  C   UNL     1     -11.057  16.095  70.406  1.00  0.00    -0.351 C  
HETATM   30  N   UNL     1      -9.842  15.616  70.812  1.00  0.00     0.414 N  
HETATM   31  O   UNL     1     -11.151  16.799  69.405  1.00  0.00    -0.252 OA 
HETATM   32  H1  UNL     1      -9.055  15.788  70.188  1.00  0.00     0.000 HD 
HETATM   33  H2  UNL     1      -9.731  15.115  71.693  1.00  0.00     0.000 HD 
ENDBRANCH  28  29
ENDBRANCH  22  24
ENDBRANCH  20  22
ENDBRANCH   6  20
TORSDOF 6
ENDMDL
MODEL      270
REMARK 921   NORMALIZED FREE ENERGY PREDICTED BY IDOCK:   -3.75 KCAL/MOL
REMARK 922        TOTAL FREE ENERGY PREDICTED BY IDOCK:   -6.16 KCAL/MOL
REMARK 923 INTER-LIGAND FREE ENERGY PREDICTED BY IDOCK:   -5.34 KCAL/MOL
REMARK 924 INTRA-LIGAND FREE ENERGY PREDICTED BY IDOCK:   -0.82 KCAL/MOL
REMARK 927      BINDING AFFINITY PREDICTED BY RF-SCORE:    0.00 PKD
ROOT
HETATM    1  C   UNL     1     -11.320   7.141  67.510  1.00  0.00     0.168 C  
HETATM    2  C   UNL     1     -10.318   8.076  68.087  1.00  0.00    -0.200 A  
HETATM    3  C   UNL     1      -9.633   8.009  69.302  1.00  0.00    -0.157 A  
HETATM    4  S   UNL     1      -8.666   9.440  69.451  1.00  0.00    -0.169 SA 
HETATM    5  N   UNL     1     -10.006   9.171  67.289  1.00  0.00    -0.195 NA 
HETATM    6  C   UNL     1      -9.143   9.934  67.895  1.00  0.00    -0.131 A  
ENDROOT
BRANCH   3   7
HETATM    7  C   UNL     1      -9.639   7.012  70.394  1.00  0.00    -0.169 A  
HETATM    8  C   UNL     1      -8.589   5.204  71.655  1.00  0.00    -0.129 A  
HETATM    9  C   UNL     1     -10.719   5.922  72.226  1.00  0.00    -0.234 A  
HETATM   10  C   UNL     1      -8.551   6.147  70.618  1.00  0.00    -0.135 A  
HETATM   11  N   UNL     1      -9.683   5.087  72.443  1.00  0.00    -0.148 NA 
HETATM   12  C   UNL     1     -10.739   6.891  71.241  1.00  0.00    -0.249 A  
BRANCH   8  13
HETATM   13  C   UNL     1      -7.434   4.226  71.914  1.00  0.00    -0.070 C  
HETATM   14  F   UNL     1      -7.745   1.858  72.176  1.00  0.00    -0.040 F  
HETATM   15  C   UNL     1      -6.094   4.792  71.375  1.00  0.00    -0.018 C  
HETATM   16  C   UNL     1      -7.255   4.064  73.440  1.00  0.00    -0.069 C  
HETATM   17  F   UNL     1      -6.704   2.504  70.384  1.00  0.00    -0.030 F  
HETATM   18  F   UNL     1      -8.847   2.789  70.560  1.00  0.00    -0.101 F  
HETATM   19  C   UNL     1      -7.686   2.851  71.252  1.00  0.00    -0.044 C  
ENDBRANCH   8  13
ENDBRANCH   3   7
BRANCH   6  20
HETATM   20  N   UNL     1      -8.542  11.090  67.479  1.00  0.00    -0.127 N  
HETATM   21  H   UNL     1      -7.931  11.579  68.133  1.00  0.00     0.000 HD 
BRANCH  20  22
HETATM   22  C   UNL     1      -8.717  11.626  66.228  1.00  0.00    -0.136 C  
HETATM   23  O   UNL     1      -8.067  11.338  65.227  1.00  0.00     0.163 OA 
BRANCH  22  24
HETATM   24  N   UNL     1      -9.731  12.573  66.154  1.00  0.00    -0.257 N  
HETATM   25  C   UNL     1      -9.641  13.844  66.853  1.00  0.00    -0.269 C  
HETATM   26  C   UNL     1     -11.080  14.153  67.221  1.00  0.00    -0.315 C  
HETATM   27  C   UNL     1     -11.898  13.562  66.076  1.00  0.00    -0.414 C  
HETATM   28  C   UNL     1     -11.039  12.429  65.508  1.00  0.00    -0.300 C  
BRANCH  28  29
HETATM   29  C   UNL     1     -10.915  12.560  63.979  1.00  0.00    -0.398 C  
HETATM   30  N   UNL     1     -11.893  13.276  63.347  1.00  0.00    -0.755 N  
HETATM   31  O   UNL     1     -10.063  11.955  63.334  1.00  0.00    -0.410 OA 
HETATM   32  H1  UNL     1     -11.810  13.363  62.334  1.00  0.00     0.000 HD 
HETATM   33  H2  UNL     1     -12.664  13.701  63.862  1.00  0.00     0.000 HD 
ENDBRANCH  28  29
ENDBRANCH  22  24
ENDBRANCH  20  22
ENDBRANCH   6  20
TORSDOF 6
ENDMDL
MODEL      271
REMARK 921   NORMALIZED FREE ENERGY PREDICTED BY IDOCK:   -3.11 KCAL/MOL
REMARK 922        TOTAL FREE ENERGY PREDICTED BY IDOCK:   -5.29 KCAL/MOL
REMARK 923 INTER-LIGAND FREE ENERGY PREDICTED BY IDOCK:   -4.27 KCAL/MOL
REMARK 924 INTRA-LIGAND FREE ENERGY PREDICTED BY IDOCK:   -1.02 KCAL/MOL
REMARK 927      BINDING AFFINITY PREDICTED BY RF-SCORE:    0.00 PKD
ROOT
HETATM    1  C   UNL     1      -5.429   8.763  71.497  1.00  0.00    -0.042 C  
HETATM    2  C   UNL     1      -6.248   7.731  70.806  1.00  0.00    -0.034 A  
HETATM    3  C   UNL     1      -7.014   7.834  69.643  1.00  0.00    -0.048 A  
HETATM    4  S   UNL     1      -7.809   6.315  69.390  1.00  0.00    -0.106 SA 
HETATM    5  N   UNL     1      -6.233   6.473  71.398  1.00  0.00    -0.040 NA 
HETATM    6  C   UNL     1      -6.997   5.657  70.732  1.00  0.00    -0.057 A  
ENDROOT
BRANCH   3   7
HETATM    7  C   UNL     1      -7.256   8.952  68.706  1.00  0.00    -0.075 A  
HETATM    8  C   UNL     1      -8.754  10.381  67.410  1.00  0.00    -0.125 A  
HETATM    9  C   UNL     1      -6.460  10.694  67.276  1.00  0.00    -0.072 A  
HETATM   10  C   UNL     1      -8.556   9.322  68.308  1.00  0.00    -0.125 A  
HETATM   11  N   UNL     1      -7.700  11.050  66.887  1.00  0.00    -0.133 NA 
HETATM   12  C   UNL     1      -6.193   9.679  68.176  1.00  0.00    -0.055 A  
BRANCH   8  13
HETATM   13  C   UNL     1     -10.153  10.796  66.932  1.00  0.00    -0.255 C  
HETATM   14  F   UNL     1     -11.970  11.276  68.429  1.00  0.00    -0.369 F  
HETATM   15  C   UNL     1     -10.089  11.455  65.530  1.00  0.00    -0.293 C  
HETATM   16  C   UNL     1     -11.018   9.525  66.775  1.00  0.00     0.123 C  
HETATM   17  F   UNL     1     -11.166  12.956  67.313  1.00  0.00    -0.261 F  
HETATM   18  F   UNL     1     -10.045  12.114  68.967  1.00  0.00    -0.171 F  
HETATM   19  C   UNL     1     -10.824  11.788  67.910  1.00  0.00    -0.211 C  
ENDBRANCH   8  13
ENDBRANCH   3   7
BRANCH   6  20
HETATM   20  N   UNL     1      -7.258   4.330  70.934  1.00  0.00    -0.040 N  
HETATM   21  H   UNL     1      -6.469   3.692  71.037  1.00  0.00     0.000 HD 
BRANCH  20  22
HETATM   22  C   UNL     1      -8.526   3.811  71.006  1.00  0.00    -0.071 C  
HETATM   23  O   UNL     1      -9.088   3.167  70.125  1.00  0.00    -0.094 OA 
BRANCH  22  24
HETATM   24  N   UNL     1      -9.180   4.075  72.203  1.00  0.00    -0.119 N  
HETATM   25  C   UNL     1      -8.493   3.998  73.481  1.00  0.00    -0.088 C  
HETATM   26  C   UNL     1      -9.569   3.522  74.439  1.00  0.00    -0.131 C  
HETATM   27  C   UNL     1     -10.856   4.137  73.897  1.00  0.00    -0.321 C  
HETATM   28  C   UNL     1     -10.610   4.337  72.399  1.00  0.00    -0.075 C  
BRANCH  28  29
HETATM   29  C   UNL     1     -10.967   5.775  71.980  1.00  0.00    -0.260 C  
HETATM   30  N   UNL     1     -11.953   6.391  72.700  1.00  0.00    -0.513 N  
HETATM   31  O   UNL     1     -10.494   6.306  70.980  1.00  0.00    -0.211 OA 
HETATM   32  H1  UNL     1     -12.190   7.344  72.422  1.00  0.00     0.000 HD 
HETATM   33  H2  UNL     1     -12.426   5.923  73.472  1.00  0.00     0.000 HD 
ENDBRANCH  28  29
ENDBRANCH  22  24
ENDBRANCH  20  22
ENDBRANCH   6  20
TORSDOF 6
ENDMDL
MODEL      272
REMARK 921   NORMALIZED FREE ENERGY PREDICTED BY IDOCK:   -3.03 KCAL/MOL
REMARK 922        TOTAL FREE ENERGY PREDICTED BY IDOCK:   -5.18 KCAL/MOL
REMARK 923 INTER-LIGAND FREE ENERGY PREDICTED BY IDOCK:   -4.17 KCAL/MOL
REMARK 924 INTRA-LIGAND FREE ENERGY PREDICTED BY IDOCK:   -1.01 KCAL/MOL
REMARK 927      BINDING AFFINITY PREDICTED BY RF-SCORE:    0.00 PKD
ROOT
HETATM    1  C   UNL     1      -9.765   6.892  67.139  1.00  0.00    -0.197 C  
HETATM    2  C   UNL     1      -9.265   7.576  68.362  1.00  0.00    -0.139 A  
HETATM    3  C   UNL     1      -8.791   8.880  68.522  1.00  0.00    -0.134 A  
HETATM    4  S   UNL     1      -8.269   9.061  70.165  1.00  0.00    -0.155 SA 
HETATM    5  N   UNL     1      -9.290   6.807  69.520  1.00  0.00    -0.147 NA 
HETATM    6  C   UNL     1      -8.811   7.488  70.520  1.00  0.00    -0.147 A  
ENDROOT
BRANCH   3   7
HETATM    7  C   UNL     1      -8.646  10.009  67.579  1.00  0.00    -0.122 A  
HETATM    8  C   UNL     1      -9.047  12.329  66.929  1.00  0.00    -0.208 A  
HETATM    9  C   UNL     1      -7.882  10.918  65.504  1.00  0.00     0.031 A  
HETATM   10  C   UNL     1      -9.192  11.279  67.848  1.00  0.00    -0.157 A  
HETATM   11  N   UNL     1      -8.406  12.134  65.753  1.00  0.00     0.561 NA 
HETATM   12  C   UNL     1      -7.964   9.847  66.375  1.00  0.00    -0.111 A  
BRANCH   8  13
HETATM   13  C   UNL     1      -9.650  13.719  67.176  1.00  0.00    -0.244 C  
HETATM   14  F   UNL     1      -8.996  15.135  69.004  1.00  0.00    -0.174 F  
HETATM   15  C   UNL     1     -10.196  14.330  65.859  1.00  0.00    -0.338 C  
HETATM   16  C   UNL     1     -10.863  13.571  68.122  1.00  0.00    -0.271 C  
HETATM   17  F   UNL     1      -8.441  15.805  67.015  1.00  0.00    -0.176 F  
HETATM   18  F   UNL     1      -7.386  14.151  67.939  1.00  0.00    -0.099 F  
HETATM   19  C   UNL     1      -8.613  14.697  67.777  1.00  0.00    -0.173 C  
ENDBRANCH   8  13
ENDBRANCH   3   7
BRANCH   6  20
HETATM   20  N   UNL     1      -8.670   7.144  71.835  1.00  0.00    -0.120 N  
HETATM   21  H   UNL     1      -9.307   7.561  72.514  1.00  0.00     0.000 HD 
BRANCH  20  22
HETATM   22  C   UNL     1      -7.718   6.268  72.291  1.00  0.00    -0.103 C  
HETATM   23  O   UNL     1      -6.503   6.416  72.193  1.00  0.00    -0.052 OA 
BRANCH  22  24
HETATM   24  N   UNL     1      -8.236   5.134  72.903  1.00  0.00    -0.108 N  
HETATM   25  C   UNL     1      -7.433   4.309  73.788  1.00  0.00    -0.077 C  
HETATM   26  C   UNL     1      -7.968   2.909  73.557  1.00  0.00    -0.064 C  
HETATM   27  C   UNL     1      -9.451   3.115  73.261  1.00  0.00    -0.123 C  
HETATM   28  C   UNL     1      -9.556   4.531  72.689  1.00  0.00    -0.137 C  
BRANCH  28  29
HETATM   29  C   UNL     1     -10.651   5.329  73.420  1.00  0.00    -0.257 C  
HETATM   30  N   UNL     1     -11.796   5.579  72.716  1.00  0.00    -0.481 N  
HETATM   31  O   UNL     1     -10.473   5.828  74.527  1.00  0.00    -0.252 OA 
HETATM   32  H1  UNL     1     -12.521   6.108  73.200  1.00  0.00     0.000 HD 
HETATM   33  H2  UNL     1     -11.917   5.254  71.757  1.00  0.00     0.000 HD 
ENDBRANCH  28  29
ENDBRANCH  22  24
ENDBRANCH  20  22
ENDBRANCH   6  20
TORSDOF 6
ENDMDL
MODEL      273
REMARK 921   NORMALIZED FREE ENERGY PREDICTED BY IDOCK:   -2.90 KCAL/MOL
REMARK 922        TOTAL FREE ENERGY PREDICTED BY IDOCK:   -5.02 KCAL/MOL
REMARK 923 INTER-LIGAND FREE ENERGY PREDICTED BY IDOCK:   -3.96 KCAL/MOL
REMARK 924 INTRA-LIGAND FREE ENERGY PREDICTED BY IDOCK:   -1.06 KCAL/MOL
REMARK 927      BINDING AFFINITY PREDICTED BY RF-SCORE:    0.00 PKD
ROOT
HETATM    1  C   UNL     1     -11.062   6.994  67.516  1.00  0.00    -0.231 C  
HETATM    2  C   UNL     1      -9.610   6.674  67.563  1.00  0.00    -0.126 A  
HETATM    3  C   UNL     1      -8.514   7.455  67.190  1.00  0.00    -0.118 A  
HETATM    4  S   UNL     1      -7.083   6.499  67.393  1.00  0.00    -0.082 SA 
HETATM    5  N   UNL     1      -9.299   5.417  68.069  1.00  0.00    -0.111 NA 
HETATM    6  C   UNL     1      -8.011   5.231  68.043  1.00  0.00    -0.091 A  
ENDROOT
BRANCH   3   7
HETATM    7  C   UNL     1      -8.406   8.831  66.660  1.00  0.00    -0.108 A  
HETATM    8  C   UNL     1      -9.353  11.036  66.206  1.00  0.00    -0.183 A  
HETATM    9  C   UNL     1      -7.179  10.557  65.551  1.00  0.00    -0.103 A  
HETATM   10  C   UNL     1      -9.480   9.740  66.725  1.00  0.00    -0.209 A  
HETATM   11  N   UNL     1      -8.205  11.430  65.606  1.00  0.00     0.127 NA 
HETATM   12  C   UNL     1      -7.227   9.275  66.066  1.00  0.00    -0.091 A  
BRANCH   8  13
HETATM   13  C   UNL     1     -10.509  12.046  66.234  1.00  0.00    -0.273 C  
HETATM   14  F   UNL     1     -11.290  13.212  64.284  1.00  0.00    -0.341 F  
HETATM   15  C   UNL     1     -11.466  11.762  67.421  1.00  0.00    -0.375 C  
HETATM   16  C   UNL     1      -9.927  13.457  66.473  1.00  0.00    -0.286 C  
HETATM   17  F   UNL     1     -12.642  11.745  65.139  1.00  0.00    -0.087 F  
HETATM   18  F   UNL     1     -10.892  11.097  64.033  1.00  0.00    -0.406 F  
HETATM   19  C   UNL     1     -11.331  12.015  64.924  1.00  0.00    -0.310 C  
ENDBRANCH   8  13
ENDBRANCH   3   7
BRANCH   6  20
HETATM   20  N   UNL     1      -7.266   4.164  68.462  1.00  0.00    -0.055 N  
HETATM   21  H   UNL     1      -6.953   3.490  67.764  1.00  0.00     0.000 HD 
BRANCH  20  22
HETATM   22  C   UNL     1      -6.916   3.953  69.772  1.00  0.00    -0.042 C  
HETATM   23  O   UNL     1      -5.774   3.780  70.190  1.00  0.00    -0.015 OA 
BRANCH  22  24
HETATM   24  N   UNL     1      -7.991   3.941  70.651  1.00  0.00    -0.054 N  
HETATM   25  C   UNL     1      -8.939   2.840  70.683  1.00  0.00    -0.100 C  
HETATM   26  C   UNL     1     -10.251   3.508  71.048  1.00  0.00     0.299 C  
HETATM   27  C   UNL     1      -9.846   4.662  71.962  1.00  0.00    -0.239 C  
HETATM   28  C   UNL     1      -8.412   5.014  71.558  1.00  0.00    -0.123 C  
BRANCH  28  29
HETATM   29  C   UNL     1      -7.502   5.075  72.798  1.00  0.00    -0.095 C  
HETATM   30  N   UNL     1      -7.018   6.308  73.138  1.00  0.00    -0.075 N  
HETATM   31  O   UNL     1      -7.119   4.067  73.384  1.00  0.00    -0.059 OA 
HETATM   32  H1  UNL     1      -6.415   6.348  73.959  1.00  0.00     0.000 HD 
HETATM   33  H2  UNL     1      -7.249   7.142  72.599  1.00  0.00     0.000 HD 
ENDBRANCH  28  29
ENDBRANCH  22  24
ENDBRANCH  20  22
ENDBRANCH   6  20
TORSDOF 6
ENDMDL
MODEL      274
REMARK 921   NORMALIZED FREE ENERGY PREDICTED BY IDOCK:   -2.82 KCAL/MOL
REMARK 922        TOTAL FREE ENERGY PREDICTED BY IDOCK:   -4.91 KCAL/MOL
REMARK 923 INTER-LIGAND FREE ENERGY PREDICTED BY IDOCK:   -3.86 KCAL/MOL
REMARK 924 INTRA-LIGAND FREE ENERGY PREDICTED BY IDOCK:   -1.04 KCAL/MOL
REMARK 927      BINDING AFFINITY PREDICTED BY RF-SCORE:    0.00 PKD
ROOT
HETATM    1  C   UNL     1      -5.325   9.031  71.569  1.00  0.00    -0.046 C  
HETATM    2  C   UNL     1      -5.833   7.937  70.699  1.00  0.00    -0.029 A  
HETATM    3  C   UNL     1      -6.403   8.003  69.426  1.00  0.00    -0.035 A  
HETATM    4  S   UNL     1      -6.878   6.401  68.968  1.00  0.00    -0.068 SA 
HETATM    5  N   UNL     1      -5.705   6.657  71.227  1.00  0.00    -0.027 NA 
HETATM    6  C   UNL     1      -6.200   5.781  70.400  1.00  0.00    -0.031 A  
ENDROOT
BRANCH   3   7
HETATM    7  C   UNL     1      -6.672   9.135  68.514  1.00  0.00    -0.059 A  
HETATM    8  C   UNL     1      -8.177  10.452  67.112  1.00  0.00    -0.122 A  
HETATM    9  C   UNL     1      -5.935  11.030  67.256  1.00  0.00    -0.058 A  
HETATM   10  C   UNL     1      -7.954   9.376  67.983  1.00  0.00    -0.092 A  
HETATM   11  N   UNL     1      -7.158  11.263  66.741  1.00  0.00    -0.140 NA 
HETATM   12  C   UNL     1      -5.650  10.005  68.139  1.00  0.00    -0.038 A  
BRANCH   8  13
HETATM   13  C   UNL     1      -9.554  10.731  66.493  1.00  0.00    -0.217 C  
HETATM   14  F   UNL     1     -11.609  10.583  67.728  1.00  0.00    -0.384 F  
HETATM   15  C   UNL     1      -9.433  11.677  65.270  1.00  0.00    -0.170 C  
HETATM   16  C   UNL     1     -10.133   9.402  65.958  1.00  0.00    -0.302 C  
HETATM   17  F   UNL     1     -11.001  12.569  67.097  1.00  0.00    -0.248 F  
HETATM   18  F   UNL     1      -9.968  11.582  68.728  1.00  0.00    -0.196 F  
HETATM   19  C   UNL     1     -10.524  11.371  67.514  1.00  0.00    -0.201 C  
ENDBRANCH   8  13
ENDBRANCH   3   7
BRANCH   6  20
HETATM   20  N   UNL     1      -6.265   4.419  70.493  1.00  0.00    -0.018 N  
HETATM   21  H   UNL     1      -5.466   3.923  70.888  1.00  0.00     0.000 HD 
BRANCH  20  22
HETATM   22  C   UNL     1      -7.347   3.683  70.083  1.00  0.00    -0.041 C  
HETATM   23  O   UNL     1      -7.316   2.737  69.301  1.00  0.00    -0.044 OA 
BRANCH  22  24
HETATM   24  N   UNL     1      -8.554   4.096  70.632  1.00  0.00    -0.074 N  
HETATM   25  C   UNL     1      -9.692   4.448  69.799  1.00  0.00    -0.221 C  
HETATM   26  C   UNL     1     -10.387   5.542  70.586  1.00  0.00    -0.332 C  
HETATM   27  C   UNL     1     -10.144   5.170  72.046  1.00  0.00    -0.253 C  
HETATM   28  C   UNL     1      -8.848   4.355  72.045  1.00  0.00    -0.117 C  
BRANCH  28  29
HETATM   29  C   UNL     1      -9.038   3.038  72.818  1.00  0.00    -0.087 C  
HETATM   30  N   UNL     1     -10.214   2.372  72.608  1.00  0.00    -0.150 N  
HETATM   31  O   UNL     1      -8.246   2.657  73.675  1.00  0.00    -0.065 OA 
HETATM   32  H1  UNL     1     -10.340   1.499  73.120  1.00  0.00     0.000 HD 
HETATM   33  H2  UNL     1     -10.927   2.730  71.973  1.00  0.00     0.000 HD 
ENDBRANCH  28  29
ENDBRANCH  22  24
ENDBRANCH  20  22
ENDBRANCH   6  20
TORSDOF 6
ENDMDL
MODEL      275
REMARK 921   NORMALIZED FREE ENERGY PREDICTED BY IDOCK:   -2.80 KCAL/MOL
REMARK 922        TOTAL FREE ENERGY PREDICTED BY IDOCK:   -4.88 KCAL/MOL
REMARK 923 INTER-LIGAND FREE ENERGY PREDICTED BY IDOCK:   -3.78 KCAL/MOL
REMARK 924 INTRA-LIGAND FREE ENERGY PREDICTED BY IDOCK:   -1.10 KCAL/MOL
REMARK 927      BINDING AFFINITY PREDICTED BY RF-SCORE:    0.00 PKD
ROOT
HETATM    1  C   UNL     1     -11.142   7.908  68.299  1.00  0.00     0.303 C  
HETATM    2  C   UNL     1     -10.045   8.720  68.890  1.00  0.00    -0.198 A  
HETATM    3  C   UNL     1      -9.154   8.400  69.918  1.00  0.00    -0.146 A  
HETATM    4  S   UNL     1      -8.166   9.791  70.221  1.00  0.00    -0.057 SA 
HETATM    5  N   UNL     1      -9.872   9.978  68.325  1.00  0.00    -0.144 NA 
HETATM    6  C   UNL     1      -8.909  10.612  68.929  1.00  0.00    -0.157 A  
ENDROOT
BRANCH   3   7
HETATM    7  C   UNL     1      -8.973   7.180  70.733  1.00  0.00    -0.152 A  
HETATM    8  C   UNL     1      -7.682   5.217  71.402  1.00  0.00    -0.106 A  
HETATM    9  C   UNL     1      -9.757   5.614  72.359  1.00  0.00    -0.156 A  
HETATM   10  C   UNL     1      -7.823   6.375  70.622  1.00  0.00    -0.107 A  
HETATM   11  N   UNL     1      -8.662   4.836  72.255  1.00  0.00    -0.119 NA 
HETATM   12  C   UNL     1      -9.949   6.781  71.643  1.00  0.00    -0.183 A  
BRANCH   8  13
HETATM   13  C   UNL     1      -6.456   4.300  71.290  1.00  0.00    -0.019 C  
HETATM   14  F   UNL     1      -6.610   1.933  70.908  1.00  0.00    -0.022 F  
HETATM   15  C   UNL     1      -5.207   5.095  70.829  1.00  0.00    -0.004 C  
HETATM   16  C   UNL     1      -6.125   3.745  72.693  1.00  0.00    -0.009 C  
HETATM   17  F   UNL     1      -5.782   3.122  69.291  1.00  0.00    -0.018 F  
HETATM   18  F   UNL     1      -7.911   3.179  69.703  1.00  0.00    -0.047 F  
HETATM   19  C   UNL     1      -6.694   3.141  70.293  1.00  0.00    -0.033 C  
ENDBRANCH   8  13
ENDBRANCH   3   7
BRANCH   6  20
HETATM   20  N   UNL     1      -8.384  11.851  68.693  1.00  0.00    -0.307 N  
HETATM   21  H   UNL     1      -7.850  12.300  69.437  1.00  0.00     0.000 HD 
BRANCH  20  22
HETATM   22  C   UNL     1      -8.535  12.524  67.507  1.00  0.00    -0.177 C  
HETATM   23  O   UNL     1      -7.850  12.366  66.500  1.00  0.00     0.108 OA 
BRANCH  22  24
HETATM   24  N   UNL     1      -9.568  13.452  67.509  1.00  0.00    -0.215 N  
HETATM   25  C   UNL     1      -9.984  14.136  66.297  1.00  0.00    -0.303 C  
HETATM   26  C   UNL     1     -10.423  15.502  66.788  1.00  0.00    -0.295 C  
HETATM   27  C   UNL     1     -11.001  15.237  68.176  1.00  0.00    -0.292 C  
HETATM   28  C   UNL     1     -10.297  13.971  68.672  1.00  0.00    -0.238 C  
BRANCH  28  29
HETATM   29  C   UNL     1     -11.325  12.945  69.181  1.00  0.00    -0.273 C  
HETATM   30  N   UNL     1     -12.006  12.241  68.227  1.00  0.00    -0.294 N  
HETATM   31  O   UNL     1     -11.620  12.841  70.368  1.00  0.00    -0.115 OA 
HETATM   32  H1  UNL     1     -12.688  11.561  68.564  1.00  0.00     0.000 HD 
HETATM   33  H2  UNL     1     -11.842  12.389  67.231  1.00  0.00     0.000 HD 
ENDBRANCH  28  29
ENDBRANCH  22  24
ENDBRANCH  20  22
ENDBRANCH   6  20
TORSDOF 6
ENDMDL
MODEL      276
REMARK 921   NORMALIZED FREE ENERGY PREDICTED BY IDOCK:   -2.56 KCAL/MOL
REMARK 922        TOTAL FREE ENERGY PREDICTED BY IDOCK:   -4.55 KCAL/MOL
REMARK 923 INTER-LIGAND FREE ENERGY PREDICTED BY IDOCK:   -5.36 KCAL/MOL
REMARK 924 INTRA-LIGAND FREE ENERGY PREDICTED BY IDOCK:    0.81 KCAL/MOL
REMARK 927      BINDING AFFINITY PREDICTED BY RF-SCORE:    0.00 PKD
ROOT
HETATM    1  C   UNL     1     -11.311  17.400  66.809  1.00  0.00     0.868 C  
HETATM    2  C   UNL     1     -10.138  16.920  67.586  1.00  0.00    -0.278 A  
HETATM    3  C   UNL     1      -9.745  15.614  67.889  1.00  0.00    -0.211 A  
HETATM    4  S   UNL     1      -8.342  15.699  68.902  1.00  0.00    -0.229 SA 
HETATM    5  N   UNL     1      -9.299  17.919  68.067  1.00  0.00    -0.267 NA 
HETATM    6  C   UNL     1      -8.323  17.394  68.749  1.00  0.00    -0.223 A  
ENDROOT
BRANCH   3   7
HETATM    7  C   UNL     1     -10.317  14.296  67.539  1.00  0.00    -0.248 A  
HETATM    8  C   UNL     1     -10.297  12.221  66.252  1.00  0.00    -0.232 A  
HETATM    9  C   UNL     1     -11.999  12.615  67.778  1.00  0.00    -0.243 A  
HETATM   10  C   UNL     1      -9.726  13.462  66.570  1.00  0.00    -0.284 A  
HETATM   11  N   UNL     1     -11.442  11.814  66.848  1.00  0.00    -0.477 NA 
HETATM   12  C   UNL     1     -11.476  13.836  68.160  1.00  0.00    -0.348 A  
BRANCH   8  13
HETATM   13  C   UNL     1      -9.698  11.296  65.183  1.00  0.00    -0.285 C  
HETATM   14  F   UNL     1     -10.873  10.651  63.188  1.00  0.00    -0.149 F  
HETATM   15  C   UNL     1      -8.148  11.351  65.204  1.00  0.00     0.611 C  
HETATM   16  C   UNL     1     -10.085   9.838  65.518  1.00  0.00    -0.242 C  
HETATM   17  F   UNL     1      -9.157  11.955  62.922  1.00  0.00    -0.274 F  
HETATM   18  F   UNL     1     -11.006  12.743  63.738  1.00  0.00    -0.375 F  
HETATM   19  C   UNL     1     -10.182  11.670  63.762  1.00  0.00    -0.389 C  
ENDBRANCH   8  13
ENDBRANCH   3   7
BRANCH   6  20
HETATM   20  N   UNL     1      -7.264  17.989  69.375  1.00  0.00    -0.058 N  
HETATM   21  H   UNL     1      -6.689  17.421  69.997  1.00  0.00     0.000 HD 
BRANCH  20  22
HETATM   22  C   UNL     1      -6.932  19.310  69.210  1.00  0.00    -0.314 C  
HETATM   23  O   UNL     1      -7.165  20.213  70.010  1.00  0.00    -0.055 OA 
BRANCH  22  24
HETATM   24  N   UNL     1      -6.282  19.587  68.015  1.00  0.00    -0.214 N  
HETATM   25  C   UNL     1      -5.478  20.784  67.842  1.00  0.00    -0.252 C  
HETATM   26  C   UNL     1      -5.667  21.136  66.379  1.00  0.00    -0.306 C  
HETATM   27  C   UNL     1      -5.826  19.786  65.684  1.00  0.00    -0.198 C  
HETATM   28  C   UNL     1      -6.378  18.842  66.755  1.00  0.00    -0.186 C  
BRANCH  28  29
HETATM   29  C   UNL     1      -5.546  17.548  66.815  1.00  0.00    -0.172 C  
HETATM   30  N   UNL     1      -5.139  17.143  68.056  1.00  0.00    -0.114 N  
HETATM   31  O   UNL     1      -5.154  16.970  65.806  1.00  0.00    -0.219 OA 
HETATM   32  H1  UNL     1      -4.587  16.286  68.096  1.00  0.00     0.000 HD 
HETATM   33  H2  UNL     1      -5.374  17.671  68.896  1.00  0.00     0.000 HD 
ENDBRANCH  28  29
ENDBRANCH  22  24
ENDBRANCH  20  22
ENDBRANCH   6  20
TORSDOF 6
ENDMDL
MODEL      277
REMARK 921   NORMALIZED FREE ENERGY PREDICTED BY IDOCK:   -2.23 KCAL/MOL
REMARK 922        TOTAL FREE ENERGY PREDICTED BY IDOCK:   -4.11 KCAL/MOL
REMARK 923 INTER-LIGAND FREE ENERGY PREDICTED BY IDOCK:   -5.38 KCAL/MOL
REMARK 924 INTRA-LIGAND FREE ENERGY PREDICTED BY IDOCK:    1.27 KCAL/MOL
REMARK 927      BINDING AFFINITY PREDICTED BY RF-SCORE:    0.00 PKD
ROOT
HETATM    1  C   UNL     1     -11.374  17.389  66.793  1.00  0.00     0.868 C  
HETATM    2  C   UNL     1     -10.189  16.917  67.558  1.00  0.00    -0.295 A  
HETATM    3  C   UNL     1      -9.758  15.613  67.814  1.00  0.00    -0.218 A  
HETATM    4  S   UNL     1      -8.362  15.704  68.837  1.00  0.00    -0.229 SA 
HETATM    5  N   UNL     1      -9.384  17.922  68.079  1.00  0.00    -0.267 NA 
HETATM    6  C   UNL     1      -8.395  17.402  68.747  1.00  0.00    -0.223 A  
ENDROOT
BRANCH   3   7
HETATM    7  C   UNL     1     -10.287  14.292  67.413  1.00  0.00    -0.259 A  
HETATM    8  C   UNL     1      -9.986  11.922  66.907  1.00  0.00    -0.200 A  
HETATM    9  C   UNL     1     -12.089  12.883  66.718  1.00  0.00    -0.265 A  
HETATM   10  C   UNL     1      -9.457  13.160  67.299  1.00  0.00    -0.225 A  
HETATM   11  N   UNL     1     -11.299  11.797  66.602  1.00  0.00    -0.387 NA 
HETATM   12  C   UNL     1     -11.640  14.126  67.124  1.00  0.00    -0.400 A  
BRANCH   8  13
HETATM   13  C   UNL     1      -9.109  10.672  66.746  1.00  0.00    -0.167 C  
HETATM   14  F   UNL     1      -7.800   9.741  68.533  1.00  0.00    -0.079 F  
HETATM   15  C   UNL     1      -9.628   9.772  65.595  1.00  0.00    -0.329 C  
HETATM   16  C   UNL     1      -7.685  11.117  66.342  1.00  0.00    -0.124 C  
HETATM   17  F   UNL     1      -9.488   8.558  67.852  1.00  0.00    -0.139 F  
HETATM   18  F   UNL     1      -9.819  10.340  69.044  1.00  0.00    -0.168 F  
HETATM   19  C   UNL     1      -9.064   9.831  68.044  1.00  0.00    -0.125 C  
ENDBRANCH   8  13
ENDBRANCH   3   7
BRANCH   6  20
HETATM   20  N   UNL     1      -7.356  18.006  69.399  1.00  0.00    -0.013 N  
HETATM   21  H   UNL     1      -6.823  17.455  70.072  1.00  0.00     0.000 HD 
BRANCH  20  22
HETATM   22  C   UNL     1      -6.994  19.314  69.197  1.00  0.00    -0.340 C  
HETATM   23  O   UNL     1      -6.990  20.197  70.051  1.00  0.00    -0.206 OA 
BRANCH  22  24
HETATM   24  N   UNL     1      -6.611  19.601  67.894  1.00  0.00    -0.231 N  
HETATM   25  C   UNL     1      -6.085  20.903  67.522  1.00  0.00    -0.293 C  
HETATM   26  C   UNL     1      -6.573  21.094  66.098  1.00  0.00    -0.153 C  
HETATM   27  C   UNL     1      -6.587  19.685  65.512  1.00  0.00    -0.297 C  
HETATM   28  C   UNL     1      -6.770  18.750  66.709  1.00  0.00    -0.192 C  
BRANCH  28  29
HETATM   29  C   UNL     1      -5.712  17.632  66.689  1.00  0.00    -0.181 C  
HETATM   30  N   UNL     1      -5.149  17.304  67.891  1.00  0.00    -0.115 N  
HETATM   31  O   UNL     1      -5.293  17.141  65.644  1.00  0.00    -0.128 OA 
HETATM   32  H1  UNL     1      -4.448  16.564  67.877  1.00  0.00     0.000 HD 
HETATM   33  H2  UNL     1      -5.416  17.775  68.755  1.00  0.00     0.000 HD 
ENDBRANCH  28  29
ENDBRANCH  22  24
ENDBRANCH  20  22
ENDBRANCH   6  20
TORSDOF 6
ENDMDL
MODEL      278
REMARK 921   NORMALIZED FREE ENERGY PREDICTED BY IDOCK:   -0.72 KCAL/MOL
REMARK 922        TOTAL FREE ENERGY PREDICTED BY IDOCK:   -2.07 KCAL/MOL
REMARK 923 INTER-LIGAND FREE ENERGY PREDICTED BY IDOCK:   -3.89 KCAL/MOL
REMARK 924 INTRA-LIGAND FREE ENERGY PREDICTED BY IDOCK:    1.82 KCAL/MOL
REMARK 927      BINDING AFFINITY PREDICTED BY RF-SCORE:    0.00 PKD
ROOT
HETATM    1  C   UNL     1      -5.466   8.862  71.545  1.00  0.00    -0.046 C  
HETATM    2  C   UNL     1      -6.389   7.862  70.945  1.00  0.00    -0.037 A  
HETATM    3  C   UNL     1      -6.965   7.833  69.672  1.00  0.00    -0.048 A  
HETATM    4  S   UNL     1      -8.021   6.461  69.595  1.00  0.00    -0.117 SA 
HETATM    5  N   UNL     1      -6.712   6.789  71.768  1.00  0.00    -0.057 NA 
HETATM    6  C   UNL     1      -7.540   5.991  71.158  1.00  0.00    -0.100 A  
ENDROOT
BRANCH   3   7
HETATM    7  C   UNL     1      -6.848   8.734  68.506  1.00  0.00    -0.064 A  
HETATM    8  C   UNL     1      -7.839  10.077  66.723  1.00  0.00    -0.110 A  
HETATM    9  C   UNL     1      -5.531   9.932  66.911  1.00  0.00    -0.045 A  
HETATM   10  C   UNL     1      -7.981   9.231  67.833  1.00  0.00    -0.100 A  
HETATM   11  N   UNL     1      -6.611  10.408  66.260  1.00  0.00    -0.099 NA 
HETATM   12  C   UNL     1      -5.598   9.118  68.026  1.00  0.00    -0.038 A  
BRANCH   8  13
HETATM   13  C   UNL     1      -9.049  10.617  65.948  1.00  0.00    -0.201 C  
HETATM   14  F   UNL     1     -11.187  11.032  66.963  1.00  0.00    -0.327 F  
HETATM   15  C   UNL     1      -8.597  11.421  64.701  1.00  0.00     0.462 C  
HETATM   16  C   UNL     1      -9.872   9.421  65.420  1.00  0.00    -0.159 C  
HETATM   17  F   UNL     1     -10.074  12.776  66.304  1.00  0.00    -0.237 F  
HETATM   18  F   UNL     1      -9.456  11.699  68.082  1.00  0.00    -0.164 F  
HETATM   19  C   UNL     1      -9.932  11.534  66.827  1.00  0.00    -0.208 C  
ENDBRANCH   8  13
ENDBRANCH   3   7
BRANCH   6  20
HETATM   20  N   UNL     1      -8.096   4.813  71.571  1.00  0.00    -0.101 N  
HETATM   21  H   UNL     1      -7.506   3.982  71.595  1.00  0.00     0.000 HD 
BRANCH  20  22
HETATM   22  C   UNL     1      -9.407   4.689  71.956  1.00  0.00    -0.138 C  
HETATM   23  O   UNL     1      -9.976   3.638  72.236  1.00  0.00    -0.157 OA 
BRANCH  22  24
HETATM   24  N   UNL     1     -10.098   5.893  72.013  1.00  0.00    -0.186 N  
HETATM   25  C   UNL     1     -11.527   5.966  71.766  1.00  0.00    -0.198 C  
HETATM   26  C   UNL     1     -11.710   7.323  71.114  1.00  0.00    -0.334 C  
HETATM   27  C   UNL     1     -10.642   8.200  71.760  1.00  0.00    -0.313 C  
HETATM   28  C   UNL     1      -9.535   7.236  72.194  1.00  0.00    -0.135 C  
BRANCH  28  29
HETATM   29  C   UNL     1      -9.154   7.478  73.666  1.00  0.00    -0.255 C  
HETATM   30  N   UNL     1      -9.405   6.454  74.537  1.00  0.00    -0.201 N  
HETATM   31  O   UNL     1      -8.763   8.568  74.074  1.00  0.00    -0.173 OA 
HETATM   32  H1  UNL     1      -9.152   6.615  75.512  1.00  0.00     0.000 HD 
HETATM   33  H2  UNL     1      -9.822   5.577  74.227  1.00  0.00     0.000 HD 
ENDBRANCH  28  29
ENDBRANCH  22  24
ENDBRANCH  20  22
ENDBRANCH   6  20
TORSDOF 6
ENDMDL
