MODEL        1
REMARK 921   NORMALIZED FREE ENERGY PREDICTED BY IDOCK:   -5.52 KCAL/MOL
REMARK 922        TOTAL FREE ENERGY PREDICTED BY IDOCK:  -11.24 KCAL/MOL
REMARK 923 INTER-LIGAND FREE ENERGY PREDICTED BY IDOCK:   -9.40 KCAL/MOL
REMARK 924 INTRA-LIGAND FREE ENERGY PREDICTED BY IDOCK:   -1.84 KCAL/MOL
REMARK 927      BINDING AFFINITY PREDICTED BY RF-SCORE:    0.00 PKD
ROOT
HETATM    1  C   UNL     1     -10.155   9.324  70.758  1.00  0.00    -0.358 C  
HETATM    2  C   UNL     1     -11.309  10.200  70.296  1.00  0.00    -0.387 C  
ENDROOT
BRANCH   2   3
HETATM    3  C   UNL     1     -12.507  10.061  71.193  1.00  0.00    -0.480 C  
HETATM    4  C   UNL     1     -13.251  11.074  71.668  1.00  0.00    -0.461 C  
BRANCH   4   5
HETATM    5  C   UNL     1     -12.976  12.527  71.403  1.00  0.00    -0.347 C  
BRANCH   5   6
HETATM    6  C   UNL     1     -13.565  13.424  72.454  1.00  0.00    -0.708 C  
HETATM    7  C   UNL     1     -13.718  14.755  72.340  1.00  0.00    -0.576 C  
BRANCH   7   8
HETATM    8  C   UNL     1     -13.273  15.547  71.144  1.00  0.00    -0.576 C  
BRANCH   8   9
HETATM    9  C   UNL     1     -11.856  16.023  71.269  1.00  0.00    -0.502 C  
HETATM   10  C   UNL     1     -10.928  15.938  70.299  1.00  0.00    -0.370 C  
BRANCH  10  11
HETATM   11  C   UNL     1     -11.217  15.410  68.922  1.00  0.00    -0.296 C  
BRANCH  11  12
HETATM   12  C   UNL     1     -10.828  13.945  68.760  1.00  0.00    -0.282 C  
BRANCH  12  13
HETATM   13  C   UNL     1     -11.944  13.175  68.053  1.00  0.00    -0.345 C  
BRANCH  13  14
HETATM   14  C   UNL     1     -11.421  12.503  66.787  1.00  0.00    -0.422 C  
BRANCH  14  15
HETATM   15  C   UNL     1     -12.174  12.984  65.546  1.00  0.00    -0.521 C  
BRANCH  15  16
HETATM   16  C   UNL     1     -11.207  13.620  64.550  1.00  0.00    -0.395 C  
BRANCH  16  17
HETATM   17  C   UNL     1     -10.550  14.873  65.122  1.00  0.00    -0.450 C  
HETATM   18  C   UNL     1     -11.252  16.131  64.661  1.00  0.00    -0.298 C  
HETATM   19  O   UNL     1     -12.229  16.171  63.929  1.00  0.00    -0.935 OA 
HETATM   20  O   UNL     1     -10.674  17.251  65.154  1.00  0.00    -0.687 OA 
ENDBRANCH  16  17
ENDBRANCH  15  16
ENDBRANCH  14  15
ENDBRANCH  13  14
ENDBRANCH  12  13
ENDBRANCH  11  12
ENDBRANCH  10  11
ENDBRANCH   8   9
ENDBRANCH   7   8
ENDBRANCH   5   6
ENDBRANCH   4   5
ENDBRANCH   2   3
TORSDOF 12
ENDMDL
MODEL        2
REMARK 921   NORMALIZED FREE ENERGY PREDICTED BY IDOCK:   -5.15 KCAL/MOL
REMARK 922        TOTAL FREE ENERGY PREDICTED BY IDOCK:  -10.60 KCAL/MOL
REMARK 923 INTER-LIGAND FREE ENERGY PREDICTED BY IDOCK:   -8.33 KCAL/MOL
REMARK 924 INTRA-LIGAND FREE ENERGY PREDICTED BY IDOCK:   -2.27 KCAL/MOL
REMARK 927      BINDING AFFINITY PREDICTED BY RF-SCORE:    0.00 PKD
ROOT
HETATM    1  C   UNL     1     -12.691  10.604  71.255  1.00  0.00    -0.537 C  
HETATM    2  C   UNL     1     -12.830  12.112  71.111  1.00  0.00    -0.313 C  
ENDROOT
BRANCH   2   3
HETATM    3  C   UNL     1     -13.531  12.722  72.292  1.00  0.00    -0.591 C  
HETATM    4  C   UNL     1     -14.018  13.972  72.352  1.00  0.00    -0.622 C  
BRANCH   4   5
HETATM    5  C   UNL     1     -13.906  14.983  71.246  1.00  0.00    -0.528 C  
BRANCH   5   6
HETATM    6  C   UNL     1     -12.645  15.794  71.336  1.00  0.00    -0.516 C  
HETATM    7  C   UNL     1     -11.662  15.802  70.418  1.00  0.00    -0.390 C  
BRANCH   7   8
HETATM    8  C   UNL     1     -11.671  14.955  69.178  1.00  0.00    -0.338 C  
BRANCH   8   9
HETATM    9  C   UNL     1     -10.523  13.989  69.137  1.00  0.00    -0.103 C  
HETATM   10  C   UNL     1     -10.520  12.827  68.460  1.00  0.00    -0.252 C  
BRANCH  10  11
HETATM   11  C   UNL     1     -11.657  12.375  67.588  1.00  0.00    -0.421 C  
BRANCH  11  12
HETATM   12  C   UNL     1     -11.182  11.715  66.298  1.00  0.00    -0.332 C  
BRANCH  12  13
HETATM   13  C   UNL     1     -11.864  12.357  65.090  1.00  0.00    -0.437 C  
BRANCH  13  14
HETATM   14  C   UNL     1     -12.573  13.647  65.490  1.00  0.00    -0.541 C  
BRANCH  14  15
HETATM   15  C   UNL     1     -12.182  14.808  64.575  1.00  0.00    -0.443 C  
BRANCH  15  16
HETATM   16  C   UNL     1     -10.669  15.010  64.587  1.00  0.00    -0.243 C  
BRANCH  16  17
HETATM   17  C   UNL     1     -10.192  15.633  65.895  1.00  0.00    -0.372 C  
HETATM   18  C   UNL     1     -10.345  17.138  65.884  1.00  0.00    -0.284 C  
HETATM   19  O   UNL     1     -10.796  17.799  64.962  1.00  0.00    -0.774 OA 
HETATM   20  O   UNL     1      -9.917  17.705  67.036  1.00  0.00    -0.295 OA 
ENDBRANCH  16  17
ENDBRANCH  15  16
ENDBRANCH  14  15
ENDBRANCH  13  14
ENDBRANCH  12  13
ENDBRANCH  11  12
ENDBRANCH  10  11
ENDBRANCH   8   9
ENDBRANCH   7   8
ENDBRANCH   5   6
ENDBRANCH   4   5
ENDBRANCH   2   3
TORSDOF 12
ENDMDL
MODEL        3
REMARK 921   NORMALIZED FREE ENERGY PREDICTED BY IDOCK:   -5.13 KCAL/MOL
REMARK 922        TOTAL FREE ENERGY PREDICTED BY IDOCK:  -10.57 KCAL/MOL
REMARK 923 INTER-LIGAND FREE ENERGY PREDICTED BY IDOCK:   -9.03 KCAL/MOL
REMARK 924 INTRA-LIGAND FREE ENERGY PREDICTED BY IDOCK:   -1.54 KCAL/MOL
REMARK 927      BINDING AFFINITY PREDICTED BY RF-SCORE:    0.00 PKD
ROOT
HETATM    1  C   UNL     1     -10.199   8.117  66.511  1.00  0.00    -0.248 C  
HETATM    2  C   UNL     1     -10.424   9.173  67.582  1.00  0.00    -0.323 C  
ENDROOT
BRANCH   2   3
HETATM    3  C   UNL     1     -10.097   8.654  68.954  1.00  0.00    -0.213 C  
HETATM    4  C   UNL     1     -10.575   9.143  70.111  1.00  0.00    -0.258 C  
BRANCH   4   5
HETATM    5  C   UNL     1     -11.495  10.326  70.218  1.00  0.00    -0.395 C  
BRANCH   5   6
HETATM    6  C   UNL     1     -12.564  10.130  71.254  1.00  0.00    -0.508 C  
HETATM    7  C   UNL     1     -13.243  11.119  71.862  1.00  0.00    -0.488 C  
BRANCH   7   8
HETATM    8  C   UNL     1     -12.992  12.579  71.616  1.00  0.00    -0.405 C  
BRANCH   8   9
HETATM    9  C   UNL     1     -13.881  13.459  72.446  1.00  0.00    -0.665 C  
HETATM   10  C   UNL     1     -14.022  14.786  72.278  1.00  0.00    -0.598 C  
BRANCH  10  11
HETATM   11  C   UNL     1     -13.352  15.555  71.174  1.00  0.00    -0.553 C  
BRANCH  11  12
HETATM   12  C   UNL     1     -11.906  15.911  71.500  1.00  0.00    -0.536 C  
BRANCH  12  13
HETATM   13  C   UNL     1     -10.987  15.502  70.349  1.00  0.00    -0.360 C  
BRANCH  13  14
HETATM   14  C   UNL     1     -11.791  14.911  69.196  1.00  0.00    -0.340 C  
BRANCH  14  15
HETATM   15  C   UNL     1     -11.102  13.682  68.604  1.00  0.00    -0.299 C  
BRANCH  15  16
HETATM   16  C   UNL     1     -11.822  13.224  67.338  1.00  0.00    -0.413 C  
BRANCH  16  17
HETATM   17  C   UNL     1     -11.847  14.318  66.275  1.00  0.00    -0.420 C  
HETATM   18  C   UNL     1     -12.611  13.882  65.045  1.00  0.00    -0.390 C  
HETATM   19  O   UNL     1     -13.156  12.800  64.894  1.00  0.00    -0.833 OA 
HETATM   20  O   UNL     1     -12.633  14.841  64.089  1.00  0.00    -0.784 OA 
ENDBRANCH  16  17
ENDBRANCH  15  16
ENDBRANCH  14  15
ENDBRANCH  13  14
ENDBRANCH  12  13
ENDBRANCH  11  12
ENDBRANCH  10  11
ENDBRANCH   8   9
ENDBRANCH   7   8
ENDBRANCH   5   6
ENDBRANCH   4   5
ENDBRANCH   2   3
TORSDOF 12
ENDMDL
MODEL        4
REMARK 921   NORMALIZED FREE ENERGY PREDICTED BY IDOCK:   -5.09 KCAL/MOL
REMARK 922        TOTAL FREE ENERGY PREDICTED BY IDOCK:  -10.51 KCAL/MOL
REMARK 923 INTER-LIGAND FREE ENERGY PREDICTED BY IDOCK:   -7.81 KCAL/MOL
REMARK 924 INTRA-LIGAND FREE ENERGY PREDICTED BY IDOCK:   -2.70 KCAL/MOL
REMARK 927      BINDING AFFINITY PREDICTED BY RF-SCORE:    0.00 PKD
ROOT
HETATM    1  C   UNL     1     -12.836  10.084  71.443  1.00  0.00    -0.519 C  
HETATM    2  C   UNL     1     -11.644  10.598  70.650  1.00  0.00    -0.432 C  
ENDROOT
BRANCH   2   3
HETATM    3  C   UNL     1     -12.002  11.798  69.821  1.00  0.00    -0.392 C  
HETATM    4  C   UNL     1     -11.776  11.935  68.504  1.00  0.00    -0.388 C  
BRANCH   4   5
HETATM    5  C   UNL     1     -11.088  10.909  67.648  1.00  0.00    -0.376 C  
BRANCH   5   6
HETATM    6  C   UNL     1      -9.761  11.388  67.132  1.00  0.00    -0.200 C  
HETATM    7  C   UNL     1      -9.354  11.310  65.853  1.00  0.00    -0.240 C  
BRANCH   7   8
HETATM    8  C   UNL     1     -10.166  10.685  64.755  1.00  0.00    -0.401 C  
BRANCH   8   9
HETATM    9  C   UNL     1     -10.409  11.631  63.615  1.00  0.00    -0.466 C  
HETATM   10  C   UNL     1     -11.502  12.402  63.476  1.00  0.00    -0.561 C  
BRANCH  10  11
HETATM   11  C   UNL     1     -12.602  12.468  64.497  1.00  0.00    -0.503 C  
BRANCH  11  12
HETATM   12  C   UNL     1     -12.517  13.712  65.374  1.00  0.00    -0.537 C  
BRANCH  12  13
HETATM   13  C   UNL     1     -11.990  14.897  64.564  1.00  0.00    -0.420 C  
BRANCH  13  14
HETATM   14  C   UNL     1     -10.775  15.521  65.244  1.00  0.00    -0.440 C  
BRANCH  14  15
HETATM   15  C   UNL     1     -10.371  14.741  66.495  1.00  0.00    -0.287 C  
BRANCH  15  16
HETATM   16  C   UNL     1     -10.298  15.672  67.703  1.00  0.00    -0.275 C  
BRANCH  16  17
HETATM   17  C   UNL     1     -11.650  15.802  68.399  1.00  0.00    -0.343 C  
HETATM   18  C   UNL     1     -11.543  15.518  69.881  1.00  0.00    -0.335 C  
HETATM   19  O   UNL     1     -10.517  15.228  70.476  1.00  0.00    -0.242 OA 
HETATM   20  O   UNL     1     -12.737  15.621  70.509  1.00  0.00    -0.447 OA 
ENDBRANCH  16  17
ENDBRANCH  15  16
ENDBRANCH  14  15
ENDBRANCH  13  14
ENDBRANCH  12  13
ENDBRANCH  11  12
ENDBRANCH  10  11
ENDBRANCH   8   9
ENDBRANCH   7   8
ENDBRANCH   5   6
ENDBRANCH   4   5
ENDBRANCH   2   3
TORSDOF 12
ENDMDL
MODEL        5
REMARK 921   NORMALIZED FREE ENERGY PREDICTED BY IDOCK:   -5.06 KCAL/MOL
REMARK 922        TOTAL FREE ENERGY PREDICTED BY IDOCK:  -10.46 KCAL/MOL
REMARK 923 INTER-LIGAND FREE ENERGY PREDICTED BY IDOCK:   -8.58 KCAL/MOL
REMARK 924 INTRA-LIGAND FREE ENERGY PREDICTED BY IDOCK:   -1.87 KCAL/MOL
REMARK 927      BINDING AFFINITY PREDICTED BY RF-SCORE:    0.00 PKD
ROOT
HETATM    1  C   UNL     1     -12.811  10.804  71.461  1.00  0.00    -0.567 C  
HETATM    2  C   UNL     1     -12.898  12.303  71.221  1.00  0.00    -0.337 C  
ENDROOT
BRANCH   2   3
HETATM    3  C   UNL     1     -13.612  13.007  72.340  1.00  0.00    -0.628 C  
HETATM    4  C   UNL     1     -13.934  14.311  72.365  1.00  0.00    -0.597 C  
BRANCH   4   5
HETATM    5  C   UNL     1     -13.595  15.292  71.279  1.00  0.00    -0.584 C  
BRANCH   5   6
HETATM    6  C   UNL     1     -12.169  15.758  71.351  1.00  0.00    -0.500 C  
HETATM    7  C   UNL     1     -11.359  15.938  70.292  1.00  0.00    -0.381 C  
BRANCH   7   8
HETATM    8  C   UNL     1     -11.762  15.654  68.874  1.00  0.00    -0.396 C  
BRANCH   8   9
HETATM    9  C   UNL     1     -10.581  15.389  67.987  1.00  0.00    -0.263 C  
HETATM   10  C   UNL     1      -9.956  14.204  67.871  1.00  0.00    -0.231 C  
BRANCH  10  11
HETATM   11  C   UNL     1     -10.414  12.957  68.574  1.00  0.00    -0.260 C  
BRANCH  11  12
HETATM   12  C   UNL     1     -11.549  12.252  67.841  1.00  0.00    -0.416 C  
BRANCH  12  13
HETATM   13  C   UNL     1     -11.054  10.938  67.235  1.00  0.00    -0.350 C  
BRANCH  13  14
HETATM   14  C   UNL     1      -9.962  11.195  66.201  1.00  0.00    -0.273 C  
BRANCH  14  15
HETATM   15  C   UNL     1     -10.474  10.971  64.778  1.00  0.00    -0.384 C  
BRANCH  15  16
HETATM   16  C   UNL     1     -11.512  12.029  64.412  1.00  0.00    -0.413 C  
BRANCH  16  17
HETATM   17  C   UNL     1     -10.899  13.425  64.352  1.00  0.00    -0.422 C  
HETATM   18  C   UNL     1     -11.918  14.495  64.673  1.00  0.00    -0.468 C  
HETATM   19  O   UNL     1     -13.090  14.298  64.955  1.00  0.00    -0.682 OA 
HETATM   20  O   UNL     1     -11.390  15.740  64.615  1.00  0.00    -0.432 OA 
ENDBRANCH  16  17
ENDBRANCH  15  16
ENDBRANCH  14  15
ENDBRANCH  13  14
ENDBRANCH  12  13
ENDBRANCH  11  12
ENDBRANCH  10  11
ENDBRANCH   8   9
ENDBRANCH   7   8
ENDBRANCH   5   6
ENDBRANCH   4   5
ENDBRANCH   2   3
TORSDOF 12
ENDMDL
MODEL        6
REMARK 921   NORMALIZED FREE ENERGY PREDICTED BY IDOCK:   -5.00 KCAL/MOL
REMARK 922        TOTAL FREE ENERGY PREDICTED BY IDOCK:  -10.36 KCAL/MOL
REMARK 923 INTER-LIGAND FREE ENERGY PREDICTED BY IDOCK:   -8.15 KCAL/MOL
REMARK 924 INTRA-LIGAND FREE ENERGY PREDICTED BY IDOCK:   -2.21 KCAL/MOL
REMARK 927      BINDING AFFINITY PREDICTED BY RF-SCORE:    0.00 PKD
ROOT
HETATM    1  C   UNL     1     -12.610  15.628  73.743  1.00  0.00    -0.743 C  
HETATM    2  C   UNL     1     -13.551  15.229  72.618  1.00  0.00    -0.617 C  
ENDROOT
BRANCH   2   3
HETATM    3  C   UNL     1     -13.372  13.789  72.226  1.00  0.00    -0.617 C  
HETATM    4  C   UNL     1     -12.643  13.345  71.189  1.00  0.00    -0.430 C  
BRANCH   4   5
HETATM    5  C   UNL     1     -11.910  14.232  70.223  1.00  0.00    -0.377 C  
BRANCH   5   6
HETATM    6  C   UNL     1     -12.280  13.954  68.794  1.00  0.00    -0.232 C  
HETATM    7  C   UNL     1     -11.689  14.506  67.720  1.00  0.00    -0.403 C  
BRANCH   7   8
HETATM    8  C   UNL     1     -10.589  15.525  67.803  1.00  0.00    -0.281 C  
BRANCH   8   9
HETATM    9  C   UNL     1      -9.517  15.293  66.779  1.00  0.00    -0.264 C  
HETATM   10  C   UNL     1      -8.515  14.404  66.901  1.00  0.00    -0.156 C  
BRANCH  10  11
HETATM   11  C   UNL     1      -8.382  13.465  68.067  1.00  0.00    -0.165 C  
BRANCH  11  12
HETATM   12  C   UNL     1      -8.418  11.999  67.648  1.00  0.00    -0.160 C  
BRANCH  12  13
HETATM   13  C   UNL     1      -9.781  11.387  67.974  1.00  0.00    -0.190 C  
BRANCH  13  14
HETATM   14  C   UNL     1     -10.496  10.945  66.701  1.00  0.00    -0.307 C  
BRANCH  14  15
HETATM   15  C   UNL     1      -9.563  10.987  65.491  1.00  0.00    -0.263 C  
BRANCH  15  16
HETATM   16  C   UNL     1     -10.352  11.284  64.218  1.00  0.00    -0.399 C  
BRANCH  16  17
HETATM   17  C   UNL     1     -10.726  12.760  64.116  1.00  0.00    -0.441 C  
HETATM   18  C   UNL     1     -12.159  12.942  63.670  1.00  0.00    -0.535 C  
HETATM   19  O   UNL     1     -12.946  12.042  63.421  1.00  0.00    -0.772 OA 
HETATM   20  O   UNL     1     -12.502  14.248  63.567  1.00  0.00    -0.798 OA 
ENDBRANCH  16  17
ENDBRANCH  15  16
ENDBRANCH  14  15
ENDBRANCH  13  14
ENDBRANCH  12  13
ENDBRANCH  11  12
ENDBRANCH  10  11
ENDBRANCH   8   9
ENDBRANCH   7   8
ENDBRANCH   5   6
ENDBRANCH   4   5
ENDBRANCH   2   3
TORSDOF 12
ENDMDL
MODEL        7
REMARK 921   NORMALIZED FREE ENERGY PREDICTED BY IDOCK:   -4.98 KCAL/MOL
REMARK 922        TOTAL FREE ENERGY PREDICTED BY IDOCK:  -10.33 KCAL/MOL
REMARK 923 INTER-LIGAND FREE ENERGY PREDICTED BY IDOCK:   -8.35 KCAL/MOL
REMARK 924 INTRA-LIGAND FREE ENERGY PREDICTED BY IDOCK:   -1.98 KCAL/MOL
REMARK 927      BINDING AFFINITY PREDICTED BY RF-SCORE:    0.00 PKD
ROOT
HETATM    1  C   UNL     1      -9.169  15.553  68.535  1.00  0.00    -0.197 C  
HETATM    2  C   UNL     1     -10.041  15.667  69.775  1.00  0.00    -0.291 C  
ENDROOT
BRANCH   2   3
HETATM    3  C   UNL     1     -11.496  15.474  69.455  1.00  0.00    -0.345 C  
HETATM    4  C   UNL     1     -12.464  15.202  70.345  1.00  0.00    -0.416 C  
BRANCH   4   5
HETATM    5  C   UNL     1     -12.236  15.010  71.817  1.00  0.00    -0.417 C  
BRANCH   5   6
HETATM    6  C   UNL     1     -13.390  14.325  72.493  1.00  0.00    -0.595 C  
HETATM    7  C   UNL     1     -13.682  13.017  72.388  1.00  0.00    -0.593 C  
BRANCH   7   8
HETATM    8  C   UNL     1     -12.908  12.054  71.534  1.00  0.00    -0.403 C  
BRANCH   8   9
HETATM    9  C   UNL     1     -13.214  10.623  71.866  1.00  0.00    -0.528 C  
HETATM   10  C   UNL     1     -12.396   9.584  71.619  1.00  0.00    -0.480 C  
BRANCH  10  11
HETATM   11  C   UNL     1     -11.021   9.737  71.034  1.00  0.00    -0.402 C  
BRANCH  11  12
HETATM   12  C   UNL     1     -10.999   9.537  69.522  1.00  0.00    -0.217 C  
BRANCH  12  13
HETATM   13  C   UNL     1     -10.050  10.542  68.868  1.00  0.00    -0.215 C  
BRANCH  13  14
HETATM   14  C   UNL     1     -10.644  11.946  68.892  1.00  0.00    -0.205 C  
BRANCH  14  15
HETATM   15  C   UNL     1     -11.772  12.095  67.872  1.00  0.00    -0.403 C  
BRANCH  15  16
HETATM   16  C   UNL     1     -11.213  12.070  66.451  1.00  0.00    -0.389 C  
BRANCH  16  17
HETATM   17  C   UNL     1     -11.377  13.419  65.756  1.00  0.00    -0.322 C  
HETATM   18  C   UNL     1     -12.504  13.393  64.749  1.00  0.00    -0.365 C  
HETATM   19  O   UNL     1     -13.217  12.433  64.505  1.00  0.00    -0.834 OA 
HETATM   20  O   UNL     1     -12.655  14.582  64.119  1.00  0.00    -0.730 OA 
ENDBRANCH  16  17
ENDBRANCH  15  16
ENDBRANCH  14  15
ENDBRANCH  13  14
ENDBRANCH  12  13
ENDBRANCH  11  12
ENDBRANCH  10  11
ENDBRANCH   8   9
ENDBRANCH   7   8
ENDBRANCH   5   6
ENDBRANCH   4   5
ENDBRANCH   2   3
TORSDOF 12
ENDMDL
MODEL        8
REMARK 921   NORMALIZED FREE ENERGY PREDICTED BY IDOCK:   -4.98 KCAL/MOL
REMARK 922        TOTAL FREE ENERGY PREDICTED BY IDOCK:  -10.32 KCAL/MOL
REMARK 923 INTER-LIGAND FREE ENERGY PREDICTED BY IDOCK:   -8.04 KCAL/MOL
REMARK 924 INTRA-LIGAND FREE ENERGY PREDICTED BY IDOCK:   -2.27 KCAL/MOL
REMARK 927      BINDING AFFINITY PREDICTED BY RF-SCORE:    0.00 PKD
ROOT
HETATM    1  C   UNL     1     -13.337  12.632  72.001  1.00  0.00    -0.555 C  
HETATM    2  C   UNL     1     -13.910  13.997  72.350  1.00  0.00    -0.653 C  
ENDROOT
BRANCH   2   3
HETATM    3  C   UNL     1     -12.906  14.858  73.063  1.00  0.00    -0.586 C  
HETATM    4  C   UNL     1     -12.094  15.757  72.483  1.00  0.00    -0.591 C  
BRANCH   4   5
HETATM    5  C   UNL     1     -12.035  16.021  71.005  1.00  0.00    -0.407 C  
BRANCH   5   6
HETATM    6  C   UNL     1     -10.784  15.480  70.375  1.00  0.00    -0.342 C  
HETATM    7  C   UNL     1     -10.747  14.598  69.360  1.00  0.00    -0.237 C  
BRANCH   7   8
HETATM    8  C   UNL     1     -11.970  13.990  68.737  1.00  0.00    -0.382 C  
BRANCH   8   9
HETATM    9  C   UNL     1     -11.681  12.674  68.077  1.00  0.00    -0.402 C  
HETATM   10  C   UNL     1     -11.811  12.429  66.761  1.00  0.00    -0.385 C  
BRANCH  10  11
HETATM   11  C   UNL     1     -12.202  13.479  65.760  1.00  0.00    -0.505 C  
BRANCH  11  12
HETATM   12  C   UNL     1     -11.028  13.938  64.902  1.00  0.00    -0.391 C  
BRANCH  12  13
HETATM   13  C   UNL     1     -11.200  15.406  64.509  1.00  0.00    -0.310 C  
BRANCH  13  14
HETATM   14  C   UNL     1     -10.785  16.326  65.653  1.00  0.00    -0.297 C  
BRANCH  14  15
HETATM   15  C   UNL     1      -9.373  16.007  66.144  1.00  0.00    -0.377 C  
BRANCH  15  16
HETATM   16  C   UNL     1      -8.922  17.038  67.176  1.00  0.00    -0.234 C  
BRANCH  16  17
HETATM   17  C   UNL     1      -9.862  18.239  67.223  1.00  0.00    -0.327 C  
HETATM   18  C   UNL     1      -9.154  19.516  66.829  1.00  0.00    -0.339 C  
HETATM   19  O   UNL     1      -7.981  19.606  66.501  1.00  0.00    -0.272 OA 
HETATM   20  O   UNL     1      -9.974  20.592  66.874  1.00  0.00    -0.453 OA 
ENDBRANCH  16  17
ENDBRANCH  15  16
ENDBRANCH  14  15
ENDBRANCH  13  14
ENDBRANCH  12  13
ENDBRANCH  11  12
ENDBRANCH  10  11
ENDBRANCH   8   9
ENDBRANCH   7   8
ENDBRANCH   5   6
ENDBRANCH   4   5
ENDBRANCH   2   3
TORSDOF 12
ENDMDL
MODEL        9
REMARK 921   NORMALIZED FREE ENERGY PREDICTED BY IDOCK:   -4.98 KCAL/MOL
REMARK 922        TOTAL FREE ENERGY PREDICTED BY IDOCK:  -10.31 KCAL/MOL
REMARK 923 INTER-LIGAND FREE ENERGY PREDICTED BY IDOCK:   -8.15 KCAL/MOL
REMARK 924 INTRA-LIGAND FREE ENERGY PREDICTED BY IDOCK:   -2.15 KCAL/MOL
REMARK 927      BINDING AFFINITY PREDICTED BY RF-SCORE:    0.00 PKD
ROOT
HETATM    1  C   UNL     1     -10.310  19.836  66.083  1.00  0.00    -0.627 C  
HETATM    2  C   UNL     1     -10.233  19.528  67.570  1.00  0.00    -0.546 C  
ENDROOT
BRANCH   2   3
HETATM    3  C   UNL     1      -8.816  19.324  68.025  1.00  0.00    -0.360 C  
HETATM    4  C   UNL     1      -8.250  18.140  68.316  1.00  0.00    -0.300 C  
BRANCH   4   5
HETATM    5  C   UNL     1      -8.966  16.821  68.265  1.00  0.00    -0.228 C  
BRANCH   5   6
HETATM    6  C   UNL     1      -8.540  15.981  67.095  1.00  0.00    -0.219 C  
HETATM    7  C   UNL     1      -9.277  15.760  65.992  1.00  0.00    -0.379 C  
BRANCH   7   8
HETATM    8  C   UNL     1     -10.666  16.296  65.794  1.00  0.00    -0.264 C  
BRANCH   8   9
HETATM    9  C   UNL     1     -11.290  15.809  64.519  1.00  0.00    -0.324 C  
HETATM   10  C   UNL     1     -12.151  14.780  64.429  1.00  0.00    -0.457 C  
BRANCH  10  11
HETATM   11  C   UNL     1     -12.660  14.021  65.621  1.00  0.00    -0.542 C  
BRANCH  11  12
HETATM   12  C   UNL     1     -12.065  12.620  65.724  1.00  0.00    -0.484 C  
BRANCH  12  13
HETATM   13  C   UNL     1     -11.700  12.304  67.175  1.00  0.00    -0.396 C  
BRANCH  13  14
HETATM   14  C   UNL     1     -11.325  13.576  67.929  1.00  0.00    -0.320 C  
BRANCH  14  15
HETATM   15  C   UNL     1     -11.973  13.618  69.313  1.00  0.00    -0.384 C  
BRANCH  15  16
HETATM   16  C   UNL     1     -11.808  15.002  69.937  1.00  0.00    -0.362 C  
BRANCH  16  17
HETATM   17  C   UNL     1     -13.026  15.396  70.767  1.00  0.00    -0.510 C  
HETATM   18  C   UNL     1     -12.680  15.536  72.232  1.00  0.00    -0.400 C  
HETATM   19  O   UNL     1     -11.574  15.369  72.720  1.00  0.00    -0.460 OA 
HETATM   20  O   UNL     1     -13.754  15.877  72.982  1.00  0.00    -0.591 OA 
ENDBRANCH  16  17
ENDBRANCH  15  16
ENDBRANCH  14  15
ENDBRANCH  13  14
ENDBRANCH  12  13
ENDBRANCH  11  12
ENDBRANCH  10  11
ENDBRANCH   8   9
ENDBRANCH   7   8
ENDBRANCH   5   6
ENDBRANCH   4   5
ENDBRANCH   2   3
TORSDOF 12
ENDMDL
MODEL       10
REMARK 921   NORMALIZED FREE ENERGY PREDICTED BY IDOCK:   -4.96 KCAL/MOL
REMARK 922        TOTAL FREE ENERGY PREDICTED BY IDOCK:  -10.29 KCAL/MOL
REMARK 923 INTER-LIGAND FREE ENERGY PREDICTED BY IDOCK:   -8.02 KCAL/MOL
REMARK 924 INTRA-LIGAND FREE ENERGY PREDICTED BY IDOCK:   -2.27 KCAL/MOL
REMARK 927      BINDING AFFINITY PREDICTED BY RF-SCORE:    0.00 PKD
ROOT
HETATM    1  C   UNL     1     -12.473   9.953  71.574  1.00  0.00    -0.506 C  
HETATM    2  C   UNL     1     -11.487  10.399  70.504  1.00  0.00    -0.431 C  
ENDROOT
BRANCH   2   3
HETATM    3  C   UNL     1     -11.916  11.682  69.851  1.00  0.00    -0.414 C  
HETATM    4  C   UNL     1     -11.800  11.971  68.544  1.00  0.00    -0.369 C  
BRANCH   4   5
HETATM    5  C   UNL     1     -11.181  11.060  67.523  1.00  0.00    -0.372 C  
BRANCH   5   6
HETATM    6  C   UNL     1      -9.864  11.575  67.016  1.00  0.00    -0.212 C  
HETATM    7  C   UNL     1      -9.437  11.491  65.744  1.00  0.00    -0.255 C  
BRANCH   7   8
HETATM    8  C   UNL     1     -10.213  10.821  64.646  1.00  0.00    -0.419 C  
BRANCH   8   9
HETATM    9  C   UNL     1     -10.538  11.760  63.522  1.00  0.00    -0.499 C  
HETATM   10  C   UNL     1     -11.647  12.518  63.450  1.00  0.00    -0.547 C  
BRANCH  10  11
HETATM   11  C   UNL     1     -12.682  12.573  64.538  1.00  0.00    -0.440 C  
BRANCH  11  12
HETATM   12  C   UNL     1     -12.565  13.828  65.397  1.00  0.00    -0.534 C  
BRANCH  12  13
HETATM   13  C   UNL     1     -11.787  14.912  64.650  1.00  0.00    -0.412 C  
BRANCH  13  14
HETATM   14  C   UNL     1     -10.644  15.447  65.506  1.00  0.00    -0.400 C  
BRANCH  14  15
HETATM   15  C   UNL     1     -10.920  15.247  66.996  1.00  0.00    -0.324 C  
BRANCH  15  16
HETATM   16  C   UNL     1     -10.592  16.519  67.775  1.00  0.00    -0.332 C  
BRANCH  16  17
HETATM   17  C   UNL     1     -10.508  17.736  66.859  1.00  0.00    -0.308 C  
HETATM   18  C   UNL     1     -10.315  19.014  67.646  1.00  0.00    -0.423 C  
HETATM   19  O   UNL     1     -10.227  19.092  68.861  1.00  0.00    -0.378 OA 
HETATM   20  O   UNL     1     -10.248  20.103  66.846  1.00  0.00    -0.443 OA 
ENDBRANCH  16  17
ENDBRANCH  15  16
ENDBRANCH  14  15
ENDBRANCH  13  14
ENDBRANCH  12  13
ENDBRANCH  11  12
ENDBRANCH  10  11
ENDBRANCH   8   9
ENDBRANCH   7   8
ENDBRANCH   5   6
ENDBRANCH   4   5
ENDBRANCH   2   3
TORSDOF 12
ENDMDL
MODEL       11
REMARK 921   NORMALIZED FREE ENERGY PREDICTED BY IDOCK:   -4.95 KCAL/MOL
REMARK 922        TOTAL FREE ENERGY PREDICTED BY IDOCK:  -10.26 KCAL/MOL
REMARK 923 INTER-LIGAND FREE ENERGY PREDICTED BY IDOCK:   -8.08 KCAL/MOL
REMARK 924 INTRA-LIGAND FREE ENERGY PREDICTED BY IDOCK:   -2.18 KCAL/MOL
REMARK 927      BINDING AFFINITY PREDICTED BY RF-SCORE:    0.00 PKD
ROOT
HETATM    1  C   UNL     1     -13.636  13.142  72.341  1.00  0.00    -0.667 C  
HETATM    2  C   UNL     1     -14.250  14.482  71.966  1.00  0.00    -0.630 C  
ENDROOT
BRANCH   2   3
HETATM    3  C   UNL     1     -13.608  15.618  72.711  1.00  0.00    -0.678 C  
HETATM    4  C   UNL     1     -12.347  16.050  72.544  1.00  0.00    -0.584 C  
BRANCH   4   5
HETATM    5  C   UNL     1     -11.355  15.434  71.599  1.00  0.00    -0.455 C  
BRANCH   5   6
HETATM    6  C   UNL     1     -11.370  16.086  70.246  1.00  0.00    -0.391 C  
HETATM    7  C   UNL     1     -11.722  15.481  69.098  1.00  0.00    -0.380 C  
BRANCH   7   8
HETATM    8  C   UNL     1     -12.115  14.034  69.004  1.00  0.00    -0.358 C  
BRANCH   8   9
HETATM    9  C   UNL     1     -11.892  13.470  67.631  1.00  0.00    -0.399 C  
HETATM   10  C   UNL     1     -10.936  12.579  67.312  1.00  0.00    -0.300 C  
BRANCH  10  11
HETATM   11  C   UNL     1     -10.001  11.973  68.320  1.00  0.00    -0.203 C  
BRANCH  11  12
HETATM   12  C   UNL     1      -8.544  12.347  68.070  1.00  0.00    -0.180 C  
BRANCH  12  13
HETATM   13  C   UNL     1      -8.317  13.828  68.377  1.00  0.00    -0.152 C  
BRANCH  13  14
HETATM   14  C   UNL     1      -7.149  14.377  67.563  1.00  0.00    -0.197 C  
BRANCH  14  15
HETATM   15  C   UNL     1      -7.518  15.689  66.870  1.00  0.00    -0.169 C  
BRANCH  15  16
HETATM   16  C   UNL     1      -8.996  16.007  67.081  1.00  0.00    -0.220 C  
BRANCH  16  17
HETATM   17  C   UNL     1      -9.793  15.874  65.788  1.00  0.00    -0.380 C  
HETATM   18  C   UNL     1     -10.534  17.151  65.456  1.00  0.00    -0.144 C  
HETATM   19  O   UNL     1     -10.511  18.177  66.117  1.00  0.00    -0.410 OA 
HETATM   20  O   UNL     1     -11.253  17.044  64.314  1.00  0.00    -1.186 OA 
ENDBRANCH  16  17
ENDBRANCH  15  16
ENDBRANCH  14  15
ENDBRANCH  13  14
ENDBRANCH  12  13
ENDBRANCH  11  12
ENDBRANCH  10  11
ENDBRANCH   8   9
ENDBRANCH   7   8
ENDBRANCH   5   6
ENDBRANCH   4   5
ENDBRANCH   2   3
TORSDOF 12
ENDMDL
MODEL       12
REMARK 921   NORMALIZED FREE ENERGY PREDICTED BY IDOCK:   -4.92 KCAL/MOL
REMARK 922        TOTAL FREE ENERGY PREDICTED BY IDOCK:  -10.22 KCAL/MOL
REMARK 923 INTER-LIGAND FREE ENERGY PREDICTED BY IDOCK:   -8.50 KCAL/MOL
REMARK 924 INTRA-LIGAND FREE ENERGY PREDICTED BY IDOCK:   -1.71 KCAL/MOL
REMARK 927      BINDING AFFINITY PREDICTED BY RF-SCORE:    0.00 PKD
ROOT
HETATM    1  C   UNL     1      -9.411  10.611  64.168  1.00  0.00    -0.327 C  
HETATM    2  C   UNL     1     -10.732  11.231  64.596  1.00  0.00    -0.371 C  
ENDROOT
BRANCH   2   3
HETATM    3  C   UNL     1     -11.438  11.889  63.445  1.00  0.00    -0.470 C  
HETATM    4  C   UNL     1     -12.094  13.061  63.495  1.00  0.00    -0.617 C  
BRANCH   4   5
HETATM    5  C   UNL     1     -12.256  13.891  64.737  1.00  0.00    -0.441 C  
BRANCH   5   6
HETATM    6  C   UNL     1     -11.410  15.131  64.713  1.00  0.00    -0.399 C  
HETATM    7  C   UNL     1     -10.723  15.620  65.761  1.00  0.00    -0.350 C  
BRANCH   7   8
HETATM    8  C   UNL     1     -10.742  15.006  67.132  1.00  0.00    -0.303 C  
BRANCH   8   9
HETATM    9  C   UNL     1      -9.803  13.842  67.250  1.00  0.00    -0.244 C  
HETATM   10  C   UNL     1     -10.133  12.634  67.740  1.00  0.00    -0.220 C  
BRANCH  10  11
HETATM   11  C   UNL     1     -11.525  12.270  68.173  1.00  0.00    -0.371 C  
BRANCH  11  12
HETATM   12  C   UNL     1     -11.637  10.821  68.635  1.00  0.00    -0.342 C  
BRANCH  12  13
HETATM   13  C   UNL     1     -12.001  10.765  70.119  1.00  0.00    -0.432 C  
BRANCH  13  14
HETATM   14  C   UNL     1     -12.363  12.151  70.642  1.00  0.00    -0.385 C  
BRANCH  14  15
HETATM   15  C   UNL     1     -13.143  12.069  71.954  1.00  0.00    -0.475 C  
BRANCH  15  16
HETATM   16  C   UNL     1     -13.861  13.388  72.231  1.00  0.00    -0.671 C  
BRANCH  16  17
HETATM   17  C   UNL     1     -12.920  14.429  72.828  1.00  0.00    -0.555 C  
HETATM   18  C   UNL     1     -12.774  15.632  71.923  1.00  0.00    -0.442 C  
HETATM   19  O   UNL     1     -13.332  15.784  70.848  1.00  0.00    -0.576 OA 
HETATM   20  O   UNL     1     -11.934  16.561  72.437  1.00  0.00    -0.513 OA 
ENDBRANCH  16  17
ENDBRANCH  15  16
ENDBRANCH  14  15
ENDBRANCH  13  14
ENDBRANCH  12  13
ENDBRANCH  11  12
ENDBRANCH  10  11
ENDBRANCH   8   9
ENDBRANCH   7   8
ENDBRANCH   5   6
ENDBRANCH   4   5
ENDBRANCH   2   3
TORSDOF 12
ENDMDL
MODEL       13
REMARK 921   NORMALIZED FREE ENERGY PREDICTED BY IDOCK:   -4.92 KCAL/MOL
REMARK 922        TOTAL FREE ENERGY PREDICTED BY IDOCK:  -10.22 KCAL/MOL
REMARK 923 INTER-LIGAND FREE ENERGY PREDICTED BY IDOCK:   -8.31 KCAL/MOL
REMARK 924 INTRA-LIGAND FREE ENERGY PREDICTED BY IDOCK:   -1.90 KCAL/MOL
REMARK 927      BINDING AFFINITY PREDICTED BY RF-SCORE:    0.00 PKD
ROOT
HETATM    1  C   UNL     1     -14.026  13.669  72.234  1.00  0.00    -0.661 C  
HETATM    2  C   UNL     1     -13.934  15.154  71.919  1.00  0.00    -0.629 C  
ENDROOT
BRANCH   2   3
HETATM    3  C   UNL     1     -12.553  15.692  72.166  1.00  0.00    -0.504 C  
HETATM    4  C   UNL     1     -11.630  15.942  71.222  1.00  0.00    -0.509 C  
BRANCH   4   5
HETATM    5  C   UNL     1     -11.823  15.686  69.755  1.00  0.00    -0.376 C  
BRANCH   5   6
HETATM    6  C   UNL     1     -10.821  14.712  69.205  1.00  0.00    -0.269 C  
HETATM    7  C   UNL     1      -9.523  14.982  68.977  1.00  0.00    -0.210 C  
BRANCH   7   8
HETATM    8  C   UNL     1      -8.898  16.327  69.205  1.00  0.00    -0.217 C  
BRANCH   8   9
HETATM    9  C   UNL     1      -7.518  16.422  68.623  1.00  0.00    -0.194 C  
HETATM   10  C   UNL     1      -6.856  17.571  68.395  1.00  0.00    -0.197 C  
BRANCH  10  11
HETATM   11  C   UNL     1      -7.396  18.923  68.767  1.00  0.00    -0.356 C  
BRANCH  11  12
HETATM   12  C   UNL     1      -7.362  19.909  67.605  1.00  0.00    -0.316 C  
BRANCH  12  13
HETATM   13  C   UNL     1      -8.780  20.348  67.239  1.00  0.00    -0.429 C  
BRANCH  13  14
HETATM   14  C   UNL     1      -9.814  19.569  68.047  1.00  0.00    -0.500 C  
BRANCH  14  15
HETATM   15  C   UNL     1     -11.015  19.176  67.188  1.00  0.00    -0.389 C  
BRANCH  15  16
HETATM   16  C   UNL     1     -10.550  18.556  65.872  1.00  0.00    -0.336 C  
BRANCH  16  17
HETATM   17  C   UNL     1     -10.254  17.067  66.022  1.00  0.00    -0.337 C  
HETATM   18  C   UNL     1     -10.914  16.255  64.929  1.00  0.00    -0.307 C  
HETATM   19  O   UNL     1     -11.597  16.706  64.023  1.00  0.00    -1.197 OA 
HETATM   20  O   UNL     1     -10.667  14.930  65.055  1.00  0.00    -0.380 OA 
ENDBRANCH  16  17
ENDBRANCH  15  16
ENDBRANCH  14  15
ENDBRANCH  13  14
ENDBRANCH  12  13
ENDBRANCH  11  12
ENDBRANCH  10  11
ENDBRANCH   8   9
ENDBRANCH   7   8
ENDBRANCH   5   6
ENDBRANCH   4   5
ENDBRANCH   2   3
TORSDOF 12
ENDMDL
MODEL       14
REMARK 921   NORMALIZED FREE ENERGY PREDICTED BY IDOCK:   -4.91 KCAL/MOL
REMARK 922        TOTAL FREE ENERGY PREDICTED BY IDOCK:  -10.20 KCAL/MOL
REMARK 923 INTER-LIGAND FREE ENERGY PREDICTED BY IDOCK:   -8.50 KCAL/MOL
REMARK 924 INTRA-LIGAND FREE ENERGY PREDICTED BY IDOCK:   -1.70 KCAL/MOL
REMARK 927      BINDING AFFINITY PREDICTED BY RF-SCORE:    0.00 PKD
ROOT
HETATM    1  C   UNL     1     -11.598  15.955  71.497  1.00  0.00    -0.537 C  
HETATM    2  C   UNL     1     -13.073  15.713  71.218  1.00  0.00    -0.542 C  
ENDROOT
BRANCH   2   3
HETATM    3  C   UNL     1     -13.727  14.924  72.318  1.00  0.00    -0.564 C  
HETATM    4  C   UNL     1     -13.664  13.591  72.469  1.00  0.00    -0.664 C  
BRANCH   4   5
HETATM    5  C   UNL     1     -12.951  12.661  71.528  1.00  0.00    -0.380 C  
BRANCH   5   6
HETATM    6  C   UNL     1     -12.952  11.240  72.015  1.00  0.00    -0.379 C  
HETATM    7  C   UNL     1     -12.640  10.166  71.268  1.00  0.00    -0.508 C  
BRANCH   7   8
HETATM    8  C   UNL     1     -12.286  10.237  69.810  1.00  0.00    -0.075 C  
BRANCH   8   9
HETATM    9  C   UNL     1     -10.959  10.897  69.577  1.00  0.00    -0.306 C  
HETATM   10  C   UNL     1     -10.751  11.932  68.743  1.00  0.00    -0.257 C  
BRANCH  10  11
HETATM   11  C   UNL     1     -11.852  12.613  67.981  1.00  0.00    -0.376 C  
BRANCH  11  12
HETATM   12  C   UNL     1     -11.906  14.115  68.243  1.00  0.00    -0.391 C  
BRANCH  12  13
HETATM   13  C   UNL     1     -10.505  14.720  68.150  1.00  0.00    -0.239 C  
BRANCH  13  14
HETATM   14  C   UNL     1     -10.488  15.902  67.185  1.00  0.00    -0.313 C  
BRANCH  14  15
HETATM   15  C   UNL     1      -9.779  15.549  65.878  1.00  0.00    -0.392 C  
BRANCH  15  16
HETATM   16  C   UNL     1     -10.787  15.063  64.839  1.00  0.00    -0.430 C  
BRANCH  16  17
HETATM   17  C   UNL     1     -10.670  13.561  64.597  1.00  0.00    -0.429 C  
HETATM   18  C   UNL     1     -11.810  13.043  63.749  1.00  0.00    -0.502 C  
HETATM   19  O   UNL     1     -12.720  13.718  63.293  1.00  0.00    -0.783 OA 
HETATM   20  O   UNL     1     -11.724  11.710  63.533  1.00  0.00    -0.430 OA 
ENDBRANCH  16  17
ENDBRANCH  15  16
ENDBRANCH  14  15
ENDBRANCH  13  14
ENDBRANCH  12  13
ENDBRANCH  11  12
ENDBRANCH  10  11
ENDBRANCH   8   9
ENDBRANCH   7   8
ENDBRANCH   5   6
ENDBRANCH   4   5
ENDBRANCH   2   3
TORSDOF 12
ENDMDL
MODEL       15
REMARK 921   NORMALIZED FREE ENERGY PREDICTED BY IDOCK:   -4.90 KCAL/MOL
REMARK 922        TOTAL FREE ENERGY PREDICTED BY IDOCK:  -10.19 KCAL/MOL
REMARK 923 INTER-LIGAND FREE ENERGY PREDICTED BY IDOCK:   -8.37 KCAL/MOL
REMARK 924 INTRA-LIGAND FREE ENERGY PREDICTED BY IDOCK:   -1.82 KCAL/MOL
REMARK 927      BINDING AFFINITY PREDICTED BY RF-SCORE:    0.00 PKD
ROOT
HETATM    1  C   UNL     1     -12.413  15.818  74.225  1.00  0.00    -0.800 C  
HETATM    2  C   UNL     1     -12.800  15.886  72.757  1.00  0.00    -0.572 C  
ENDROOT
BRANCH   2   3
HETATM    3  C   UNL     1     -14.066  15.125  72.479  1.00  0.00    -0.535 C  
HETATM    4  C   UNL     1     -14.137  13.848  72.067  1.00  0.00    -0.568 C  
BRANCH   4   5
HETATM    5  C   UNL     1     -12.946  12.979  71.781  1.00  0.00    -0.420 C  
BRANCH   5   6
HETATM    6  C   UNL     1     -13.274  11.515  71.847  1.00  0.00    -0.479 C  
HETATM    7  C   UNL     1     -12.629  10.546  71.173  1.00  0.00    -0.520 C  
BRANCH   7   8
HETATM    8  C   UNL     1     -11.504  10.803  70.213  1.00  0.00    -0.406 C  
BRANCH   8   9
HETATM    9  C   UNL     1     -11.972  10.876  68.789  1.00  0.00    -0.230 C  
HETATM   10  C   UNL     1     -11.655  11.857  67.925  1.00  0.00    -0.393 C  
BRANCH  10  11
HETATM   11  C   UNL     1     -10.719  12.983  68.260  1.00  0.00    -0.261 C  
BRANCH  11  12
HETATM   12  C   UNL     1      -9.454  12.969  67.408  1.00  0.00    -0.210 C  
BRANCH  12  13
HETATM   13  C   UNL     1      -9.087  11.535  67.026  1.00  0.00    -0.175 C  
BRANCH  13  14
HETATM   14  C   UNL     1      -8.757  11.436  65.540  1.00  0.00     0.030 C  
BRANCH  14  15
HETATM   15  C   UNL     1      -9.877  10.749  64.761  1.00  0.00    -0.358 C  
BRANCH  15  16
HETATM   16  C   UNL     1     -10.548  11.735  63.808  1.00  0.00    -0.470 C  
BRANCH  16  17
HETATM   17  C   UNL     1     -11.935  12.140  64.296  1.00  0.00    -0.466 C  
HETATM   18  C   UNL     1     -11.998  13.612  64.639  1.00  0.00    -0.407 C  
HETATM   19  O   UNL     1     -11.074  14.404  64.541  1.00  0.00    -0.362 OA 
HETATM   20  O   UNL     1     -13.221  13.983  65.083  1.00  0.00    -0.768 OA 
ENDBRANCH  16  17
ENDBRANCH  15  16
ENDBRANCH  14  15
ENDBRANCH  13  14
ENDBRANCH  12  13
ENDBRANCH  11  12
ENDBRANCH  10  11
ENDBRANCH   8   9
ENDBRANCH   7   8
ENDBRANCH   5   6
ENDBRANCH   4   5
ENDBRANCH   2   3
TORSDOF 12
ENDMDL
MODEL       16
REMARK 921   NORMALIZED FREE ENERGY PREDICTED BY IDOCK:   -4.90 KCAL/MOL
REMARK 922        TOTAL FREE ENERGY PREDICTED BY IDOCK:  -10.19 KCAL/MOL
REMARK 923 INTER-LIGAND FREE ENERGY PREDICTED BY IDOCK:   -7.45 KCAL/MOL
REMARK 924 INTRA-LIGAND FREE ENERGY PREDICTED BY IDOCK:   -2.73 KCAL/MOL
REMARK 927      BINDING AFFINITY PREDICTED BY RF-SCORE:    0.00 PKD
ROOT
HETATM    1  C   UNL     1      -9.114  14.127  67.978  1.00  0.00    -0.191 C  
HETATM    2  C   UNL     1      -9.680  14.262  66.574  1.00  0.00    -0.304 C  
ENDROOT
BRANCH   2   3
HETATM    3  C   UNL     1     -11.036  14.907  66.578  1.00  0.00    -0.341 C  
HETATM    4  C   UNL     1     -12.189  14.308  66.236  1.00  0.00    -0.433 C  
BRANCH   4   5
HETATM    5  C   UNL     1     -12.300  12.890  65.753  1.00  0.00    -0.437 C  
BRANCH   5   6
HETATM    6  C   UNL     1     -12.583  12.805  64.281  1.00  0.00    -0.405 C  
HETATM    7  C   UNL     1     -11.684  12.474  63.337  1.00  0.00    -0.567 C  
BRANCH   7   8
HETATM    8  C   UNL     1     -10.240  12.182  63.626  1.00  0.00    -0.459 C  
BRANCH   8   9
HETATM    9  C   UNL     1      -9.938  10.713  63.601  1.00  0.00    -0.364 C  
HETATM   10  C   UNL     1      -9.560   9.987  64.668  1.00  0.00    -0.363 C  
BRANCH  10  11
HETATM   11  C   UNL     1      -9.459  10.551  66.057  1.00  0.00    -0.227 C  
BRANCH  11  12
HETATM   12  C   UNL     1     -10.604  10.102  66.958  1.00  0.00    -0.290 C  
BRANCH  12  13
HETATM   13  C   UNL     1     -10.551  10.846  68.293  1.00  0.00    -0.223 C  
BRANCH  13  14
HETATM   14  C   UNL     1     -11.949  11.260  68.740  1.00  0.00    -0.350 C  
BRANCH  14  15
HETATM   15  C   UNL     1     -11.912  12.018  70.067  1.00  0.00    -0.400 C  
BRANCH  15  16
HETATM   16  C   UNL     1     -12.115  13.514  69.833  1.00  0.00    -0.408 C  
BRANCH  16  17
HETATM   17  C   UNL     1     -12.211  14.283  71.146  1.00  0.00    -0.431 C  
HETATM   18  C   UNL     1     -11.726  15.708  70.994  1.00  0.00    -0.403 C  
HETATM   19  O   UNL     1     -11.311  16.210  69.962  1.00  0.00    -0.334 OA 
HETATM   20  O   UNL     1     -11.798  16.400  72.155  1.00  0.00    -0.525 OA 
ENDBRANCH  16  17
ENDBRANCH  15  16
ENDBRANCH  14  15
ENDBRANCH  13  14
ENDBRANCH  12  13
ENDBRANCH  11  12
ENDBRANCH  10  11
ENDBRANCH   8   9
ENDBRANCH   7   8
ENDBRANCH   5   6
ENDBRANCH   4   5
ENDBRANCH   2   3
TORSDOF 12
ENDMDL
MODEL       17
REMARK 921   NORMALIZED FREE ENERGY PREDICTED BY IDOCK:   -4.89 KCAL/MOL
REMARK 922        TOTAL FREE ENERGY PREDICTED BY IDOCK:  -10.16 KCAL/MOL
REMARK 923 INTER-LIGAND FREE ENERGY PREDICTED BY IDOCK:   -7.85 KCAL/MOL
REMARK 924 INTRA-LIGAND FREE ENERGY PREDICTED BY IDOCK:   -2.31 KCAL/MOL
REMARK 927      BINDING AFFINITY PREDICTED BY RF-SCORE:    0.00 PKD
ROOT
HETATM    1  C   UNL     1     -12.955  10.597  71.688  1.00  0.00    -0.582 C  
HETATM    2  C   UNL     1     -12.448  10.703  70.259  1.00  0.00    -0.381 C  
ENDROOT
BRANCH   2   3
HETATM    3  C   UNL     1     -11.001  10.311  70.150  1.00  0.00    -0.377 C  
HETATM    4  C   UNL     1     -10.319  10.145  69.005  1.00  0.00    -0.230 C  
BRANCH   4   5
HETATM    5  C   UNL     1     -10.913  10.291  67.633  1.00  0.00    -0.356 C  
BRANCH   5   6
HETATM    6  C   UNL     1     -10.153   9.519  66.593  1.00  0.00    -0.321 C  
HETATM    7  C   UNL     1      -9.633  10.040  65.468  1.00  0.00    -0.328 C  
BRANCH   7   8
HETATM    8  C   UNL     1      -9.778  11.481  65.070  1.00  0.00    -0.268 C  
BRANCH   8   9
HETATM    9  C   UNL     1     -10.605  11.650  63.829  1.00  0.00    -0.473 C  
HETATM   10  C   UNL     1     -11.868  12.113  63.804  1.00  0.00    -0.592 C  
BRANCH  10  11
HETATM   11  C   UNL     1     -12.596  12.593  65.027  1.00  0.00    -0.504 C  
BRANCH  11  12
HETATM   12  C   UNL     1     -12.464  14.098  65.237  1.00  0.00    -0.474 C  
BRANCH  12  13
HETATM   13  C   UNL     1     -11.625  14.387  66.483  1.00  0.00    -0.388 C  
BRANCH  13  14
HETATM   14  C   UNL     1     -12.162  13.622  67.688  1.00  0.00    -0.224 C  
BRANCH  14  15
HETATM   15  C   UNL     1     -11.286  13.835  68.923  1.00  0.00    -0.328 C  
BRANCH  15  16
HETATM   16  C   UNL     1     -11.877  14.925  69.814  1.00  0.00    -0.356 C  
BRANCH  16  17
HETATM   17  C   UNL     1     -11.837  14.533  71.288  1.00  0.00    -0.345 C  
HETATM   18  C   UNL     1     -13.228  14.349  71.853  1.00  0.00    -0.365 C  
HETATM   19  O   UNL     1     -14.270  14.483  71.232  1.00  0.00    -0.366 OA 
HETATM   20  O   UNL     1     -13.208  14.009  73.163  1.00  0.00    -0.589 OA 
ENDBRANCH  16  17
ENDBRANCH  15  16
ENDBRANCH  14  15
ENDBRANCH  13  14
ENDBRANCH  12  13
ENDBRANCH  11  12
ENDBRANCH  10  11
ENDBRANCH   8   9
ENDBRANCH   7   8
ENDBRANCH   5   6
ENDBRANCH   4   5
ENDBRANCH   2   3
TORSDOF 12
ENDMDL
MODEL       18
REMARK 921   NORMALIZED FREE ENERGY PREDICTED BY IDOCK:   -4.88 KCAL/MOL
REMARK 922        TOTAL FREE ENERGY PREDICTED BY IDOCK:  -10.15 KCAL/MOL
REMARK 923 INTER-LIGAND FREE ENERGY PREDICTED BY IDOCK:   -8.04 KCAL/MOL
REMARK 924 INTRA-LIGAND FREE ENERGY PREDICTED BY IDOCK:   -2.10 KCAL/MOL
REMARK 927      BINDING AFFINITY PREDICTED BY RF-SCORE:    0.00 PKD
ROOT
HETATM    1  C   UNL     1     -13.680  15.737  72.730  1.00  0.00    -0.639 C  
HETATM    2  C   UNL     1     -13.750  14.654  71.665  1.00  0.00    -0.500 C  
ENDROOT
BRANCH   2   3
HETATM    3  C   UNL     1     -13.702  13.278  72.265  1.00  0.00    -0.686 C  
HETATM    4  C   UNL     1     -13.008  12.235  71.778  1.00  0.00    -0.431 C  
BRANCH   4   5
HETATM    5  C   UNL     1     -12.189  12.273  70.519  1.00  0.00    -0.387 C  
BRANCH   5   6
HETATM    6  C   UNL     1     -11.948  10.904  69.949  1.00  0.00    -0.430 C  
HETATM    7  C   UNL     1     -11.590  10.646  68.679  1.00  0.00    -0.297 C  
BRANCH   7   8
HETATM    8  C   UNL     1     -11.421  11.705  67.627  1.00  0.00    -0.373 C  
BRANCH   8   9
HETATM    9  C   UNL     1     -10.209  11.475  66.774  1.00  0.00    -0.254 C  
HETATM   10  C   UNL     1      -8.985  11.974  67.026  1.00  0.00    -0.198 C  
BRANCH  10  11
HETATM   11  C   UNL     1      -8.658  12.779  68.251  1.00  0.00    -0.166 C  
BRANCH  11  12
HETATM   12  C   UNL     1      -7.791  13.995  67.941  1.00  0.00    -0.161 C  
BRANCH  12  13
HETATM   13  C   UNL     1      -8.575  15.283  68.196  1.00  0.00    -0.160 C  
BRANCH  13  14
HETATM   14  C   UNL     1      -9.939  14.977  68.805  1.00  0.00    -0.228 C  
BRANCH  14  15
HETATM   15  C   UNL     1     -11.070  15.607  67.992  1.00  0.00    -0.335 C  
BRANCH  15  16
HETATM   16  C   UNL     1     -10.683  15.692  66.517  1.00  0.00    -0.293 C  
BRANCH  16  17
HETATM   17  C   UNL     1     -11.452  14.682  65.672  1.00  0.00    -0.340 C  
HETATM   18  C   UNL     1     -11.845  15.260  64.331  1.00  0.00    -0.281 C  
HETATM   19  O   UNL     1     -11.588  16.388  63.942  1.00  0.00    -1.100 OA 
HETATM   20  O   UNL     1     -12.537  14.377  63.574  1.00  0.00    -0.784 OA 
ENDBRANCH  16  17
ENDBRANCH  15  16
ENDBRANCH  14  15
ENDBRANCH  13  14
ENDBRANCH  12  13
ENDBRANCH  11  12
ENDBRANCH  10  11
ENDBRANCH   8   9
ENDBRANCH   7   8
ENDBRANCH   5   6
ENDBRANCH   4   5
ENDBRANCH   2   3
TORSDOF 12
ENDMDL
MODEL       19
REMARK 921   NORMALIZED FREE ENERGY PREDICTED BY IDOCK:   -4.86 KCAL/MOL
REMARK 922        TOTAL FREE ENERGY PREDICTED BY IDOCK:  -10.11 KCAL/MOL
REMARK 923 INTER-LIGAND FREE ENERGY PREDICTED BY IDOCK:   -8.61 KCAL/MOL
REMARK 924 INTRA-LIGAND FREE ENERGY PREDICTED BY IDOCK:   -1.50 KCAL/MOL
REMARK 927      BINDING AFFINITY PREDICTED BY RF-SCORE:    0.00 PKD
ROOT
HETATM    1  C   UNL     1     -10.268   8.815  70.281  1.00  0.00    -0.220 C  
HETATM    2  C   UNL     1     -10.962  10.113  70.665  1.00  0.00    -0.357 C  
ENDROOT
BRANCH   2   3
HETATM    3  C   UNL     1     -12.251   9.861  71.394  1.00  0.00    -0.499 C  
HETATM    4  C   UNL     1     -13.154  10.796  71.734  1.00  0.00    -0.573 C  
BRANCH   4   5
HETATM    5  C   UNL     1     -12.997  12.266  71.468  1.00  0.00    -0.390 C  
BRANCH   5   6
HETATM    6  C   UNL     1     -13.814  13.110  72.403  1.00  0.00    -0.583 C  
HETATM    7  C   UNL     1     -14.079  14.417  72.235  1.00  0.00    -0.609 C  
BRANCH   7   8
HETATM    8  C   UNL     1     -13.551  15.236  71.093  1.00  0.00    -0.540 C  
BRANCH   8   9
HETATM    9  C   UNL     1     -12.150  15.716  71.333  1.00  0.00    -0.476 C  
HETATM   10  C   UNL     1     -11.166  15.706  70.416  1.00  0.00    -0.374 C  
BRANCH  10  11
HETATM   11  C   UNL     1     -11.368  15.272  68.992  1.00  0.00    -0.311 C  
BRANCH  11  12
HETATM   12  C   UNL     1     -11.030  13.802  68.771  1.00  0.00    -0.289 C  
BRANCH  12  13
HETATM   13  C   UNL     1     -11.854  13.236  67.614  1.00  0.00    -0.400 C  
BRANCH  13  14
HETATM   14  C   UNL     1     -11.674  14.080  66.356  1.00  0.00    -0.407 C  
BRANCH  14  15
HETATM   15  C   UNL     1     -12.826  13.872  65.373  1.00  0.00    -0.466 C  
BRANCH  15  16
HETATM   16  C   UNL     1     -12.695  12.518  64.678  1.00  0.00    -0.434 C  
BRANCH  16  17
HETATM   17  C   UNL     1     -11.641  12.548  63.575  1.00  0.00    -0.584 C  
HETATM   18  C   UNL     1     -10.537  11.548  63.833  1.00  0.00    -0.391 C  
HETATM   19  O   UNL     1     -10.472  10.792  64.789  1.00  0.00    -0.326 OA 
HETATM   20  O   UNL     1      -9.590  11.569  62.866  1.00  0.00    -0.380 OA 
ENDBRANCH  16  17
ENDBRANCH  15  16
ENDBRANCH  14  15
ENDBRANCH  13  14
ENDBRANCH  12  13
ENDBRANCH  11  12
ENDBRANCH  10  11
ENDBRANCH   8   9
ENDBRANCH   7   8
ENDBRANCH   5   6
ENDBRANCH   4   5
ENDBRANCH   2   3
TORSDOF 12
ENDMDL
MODEL       20
REMARK 921   NORMALIZED FREE ENERGY PREDICTED BY IDOCK:   -4.85 KCAL/MOL
REMARK 922        TOTAL FREE ENERGY PREDICTED BY IDOCK:  -10.10 KCAL/MOL
REMARK 923 INTER-LIGAND FREE ENERGY PREDICTED BY IDOCK:   -7.79 KCAL/MOL
REMARK 924 INTRA-LIGAND FREE ENERGY PREDICTED BY IDOCK:   -2.31 KCAL/MOL
REMARK 927      BINDING AFFINITY PREDICTED BY RF-SCORE:    0.00 PKD
ROOT
HETATM    1  C   UNL     1     -13.375  13.501  72.425  1.00  0.00    -0.641 C  
HETATM    2  C   UNL     1     -12.441  13.994  71.331  1.00  0.00    -0.438 C  
ENDROOT
BRANCH   2   3
HETATM    3  C   UNL     1     -12.328  15.492  71.327  1.00  0.00    -0.468 C  
HETATM    4  C   UNL     1     -11.410  16.206  70.655  1.00  0.00    -0.394 C  
BRANCH   4   5
HETATM    5  C   UNL     1     -10.314  15.609  69.819  1.00  0.00    -0.309 C  
BRANCH   5   6
HETATM    6  C   UNL     1     -10.654  15.590  68.356  1.00  0.00    -0.252 C  
HETATM    7  C   UNL     1     -10.744  14.484  67.596  1.00  0.00    -0.254 C  
BRANCH   7   8
HETATM    8  C   UNL     1     -10.471  13.097  68.104  1.00  0.00    -0.255 C  
BRANCH   8   9
HETATM    9  C   UNL     1     -11.725  12.286  68.252  1.00  0.00    -0.392 C  
HETATM   10  C   UNL     1     -11.763  10.986  68.596  1.00  0.00    -0.367 C  
BRANCH  10  11
HETATM   11  C   UNL     1     -10.540  10.189  68.951  1.00  0.00    -0.237 C  
BRANCH  11  12
HETATM   12  C   UNL     1     -10.343   8.980  68.043  1.00  0.00    -0.275 C  
BRANCH  12  13
HETATM   13  C   UNL     1     -10.384   9.406  66.575  1.00  0.00    -0.268 C  
BRANCH  13  14
HETATM   14  C   UNL     1      -9.001   9.830  66.094  1.00  0.00    -0.181 C  
BRANCH  14  15
HETATM   15  C   UNL     1      -9.081  11.020  65.137  1.00  0.00    -0.199 C  
BRANCH  15  16
HETATM   16  C   UNL     1     -10.509  11.199  64.626  1.00  0.00    -0.400 C  
BRANCH  16  17
HETATM   17  C   UNL     1     -10.742  12.605  64.083  1.00  0.00    -0.435 C  
HETATM   18  C   UNL     1     -12.214  12.950  64.045  1.00  0.00    -0.426 C  
HETATM   19  O   UNL     1     -13.124  12.220  64.405  1.00  0.00    -0.780 OA 
HETATM   20  O   UNL     1     -12.437  14.193  63.557  1.00  0.00    -0.817 OA 
ENDBRANCH  16  17
ENDBRANCH  15  16
ENDBRANCH  14  15
ENDBRANCH  13  14
ENDBRANCH  12  13
ENDBRANCH  11  12
ENDBRANCH  10  11
ENDBRANCH   8   9
ENDBRANCH   7   8
ENDBRANCH   5   6
ENDBRANCH   4   5
ENDBRANCH   2   3
TORSDOF 12
ENDMDL
MODEL       21
REMARK 921   NORMALIZED FREE ENERGY PREDICTED BY IDOCK:   -4.85 KCAL/MOL
REMARK 922        TOTAL FREE ENERGY PREDICTED BY IDOCK:  -10.10 KCAL/MOL
REMARK 923 INTER-LIGAND FREE ENERGY PREDICTED BY IDOCK:   -8.08 KCAL/MOL
REMARK 924 INTRA-LIGAND FREE ENERGY PREDICTED BY IDOCK:   -2.02 KCAL/MOL
REMARK 927      BINDING AFFINITY PREDICTED BY RF-SCORE:    0.00 PKD
ROOT
HETATM    1  C   UNL     1     -10.593  11.353  63.467  1.00  0.00    -0.468 C  
HETATM    2  C   UNL     1     -12.013  11.856  63.677  1.00  0.00    -0.578 C  
ENDROOT
BRANCH   2   3
HETATM    3  C   UNL     1     -12.130  13.328  63.399  1.00  0.00    -0.508 C  
HETATM    4  C   UNL     1     -12.376  14.280  64.314  1.00  0.00    -0.407 C  
BRANCH   4   5
HETATM    5  C   UNL     1     -12.614  14.015  65.774  1.00  0.00    -0.512 C  
BRANCH   5   6
HETATM    6  C   UNL     1     -11.362  14.150  66.593  1.00  0.00    -0.352 C  
HETATM    7  C   UNL     1     -10.848  13.192  67.385  1.00  0.00    -0.269 C  
BRANCH   7   8
HETATM    8  C   UNL     1     -11.488  11.850  67.595  1.00  0.00    -0.387 C  
BRANCH   8   9
HETATM    9  C   UNL     1     -10.663  10.729  67.035  1.00  0.00    -0.320 C  
HETATM   10  C   UNL     1      -9.888   9.905  67.763  1.00  0.00    -0.184 C  
BRANCH  10  11
HETATM   11  C   UNL     1      -9.806   9.959  69.262  1.00  0.00    -0.217 C  
BRANCH  11  12
HETATM   12  C   UNL     1     -10.907   9.152  69.941  1.00  0.00    -0.242 C  
BRANCH  12  13
HETATM   13  C   UNL     1     -11.442   9.906  71.160  1.00  0.00    -0.459 C  
BRANCH  13  14
HETATM   14  C   UNL     1     -12.455  10.966  70.740  1.00  0.00    -0.489 C  
BRANCH  14  15
HETATM   15  C   UNL     1     -13.245  11.492  71.939  1.00  0.00    -0.479 C  
BRANCH  15  16
HETATM   16  C   UNL     1     -13.431  13.004  71.834  1.00  0.00    -0.498 C  
BRANCH  16  17
HETATM   17  C   UNL     1     -12.510  13.614  70.781  1.00  0.00    -0.432 C  
HETATM   18  C   UNL     1     -12.868  15.056  70.497  1.00  0.00    -0.333 C  
HETATM   19  O   UNL     1     -13.769  15.683  71.032  1.00  0.00    -0.582 OA 
HETATM   20  O   UNL     1     -12.064  15.608  69.559  1.00  0.00    -0.360 OA 
ENDBRANCH  16  17
ENDBRANCH  15  16
ENDBRANCH  14  15
ENDBRANCH  13  14
ENDBRANCH  12  13
ENDBRANCH  11  12
ENDBRANCH  10  11
ENDBRANCH   8   9
ENDBRANCH   7   8
ENDBRANCH   5   6
ENDBRANCH   4   5
ENDBRANCH   2   3
TORSDOF 12
ENDMDL
MODEL       22
REMARK 921   NORMALIZED FREE ENERGY PREDICTED BY IDOCK:   -4.83 KCAL/MOL
REMARK 922        TOTAL FREE ENERGY PREDICTED BY IDOCK:  -10.07 KCAL/MOL
REMARK 923 INTER-LIGAND FREE ENERGY PREDICTED BY IDOCK:   -8.01 KCAL/MOL
REMARK 924 INTRA-LIGAND FREE ENERGY PREDICTED BY IDOCK:   -2.06 KCAL/MOL
REMARK 927      BINDING AFFINITY PREDICTED BY RF-SCORE:    0.00 PKD
ROOT
HETATM    1  C   UNL     1     -12.059  16.214  72.455  1.00  0.00    -0.630 C  
HETATM    2  C   UNL     1     -12.945  15.351  71.571  1.00  0.00    -0.521 C  
ENDROOT
BRANCH   2   3
HETATM    3  C   UNL     1     -13.649  14.283  72.360  1.00  0.00    -0.599 C  
HETATM    4  C   UNL     1     -13.540  12.960  72.156  1.00  0.00    -0.589 C  
BRANCH   4   5
HETATM    5  C   UNL     1     -12.715  12.332  71.069  1.00  0.00    -0.319 C  
BRANCH   5   6
HETATM    6  C   UNL     1     -12.562  10.848  71.248  1.00  0.00    -0.526 C  
HETATM    7  C   UNL     1     -11.646  10.084  70.628  1.00  0.00    -0.422 C  
BRANCH   7   8
HETATM    8  C   UNL     1     -10.661  10.610  69.623  1.00  0.00    -0.290 C  
BRANCH   8   9
HETATM    9  C   UNL     1     -11.073  10.314  68.211  1.00  0.00    -0.311 C  
HETATM   10  C   UNL     1     -11.180  11.230  67.232  1.00  0.00    -0.364 C  
BRANCH  10  11
HETATM   11  C   UNL     1     -10.826  12.679  67.415  1.00  0.00    -0.272 C  
BRANCH  11  12
HETATM   12  C   UNL     1     -12.049  13.589  67.401  1.00  0.00    -0.360 C  
BRANCH  12  13
HETATM   13  C   UNL     1     -11.761  14.877  68.174  1.00  0.00    -0.344 C  
BRANCH  13  14
HETATM   14  C   UNL     1     -10.319  14.900  68.671  1.00  0.00    -0.237 C  
BRANCH  14  15
HETATM   15  C   UNL     1      -9.976  16.234  69.334  1.00  0.00    -0.232 C  
BRANCH  15  16
HETATM   16  C   UNL     1      -9.082  17.069  68.420  1.00  0.00    -0.256 C  
BRANCH  16  17
HETATM   17  C   UNL     1      -9.854  18.205  67.757  1.00  0.00    -0.314 C  
HETATM   18  C   UNL     1     -10.103  17.928  66.291  1.00  0.00    -0.351 C  
HETATM   19  O   UNL     1      -9.750  16.928  65.687  1.00  0.00    -0.538 OA 
HETATM   20  O   UNL     1     -10.781  18.933  65.687  1.00  0.00    -0.532 OA 
ENDBRANCH  16  17
ENDBRANCH  15  16
ENDBRANCH  14  15
ENDBRANCH  13  14
ENDBRANCH  12  13
ENDBRANCH  11  12
ENDBRANCH  10  11
ENDBRANCH   8   9
ENDBRANCH   7   8
ENDBRANCH   5   6
ENDBRANCH   4   5
ENDBRANCH   2   3
TORSDOF 12
ENDMDL
MODEL       23
REMARK 921   NORMALIZED FREE ENERGY PREDICTED BY IDOCK:   -4.82 KCAL/MOL
REMARK 922        TOTAL FREE ENERGY PREDICTED BY IDOCK:  -10.04 KCAL/MOL
REMARK 923 INTER-LIGAND FREE ENERGY PREDICTED BY IDOCK:   -8.51 KCAL/MOL
REMARK 924 INTRA-LIGAND FREE ENERGY PREDICTED BY IDOCK:   -1.53 KCAL/MOL
REMARK 927      BINDING AFFINITY PREDICTED BY RF-SCORE:    0.00 PKD
ROOT
HETATM    1  C   UNL     1     -11.258   6.133  69.804  1.00  0.00    -0.494 C  
HETATM    2  C   UNL     1     -11.317   6.411  71.298  1.00  0.00    -0.361 C  
ENDROOT
BRANCH   2   3
HETATM    3  C   UNL     1     -12.617   7.048  71.697  1.00  0.00    -0.419 C  
HETATM    4  C   UNL     1     -12.813   8.360  71.911  1.00  0.00    -0.384 C  
BRANCH   4   5
HETATM    5  C   UNL     1     -11.739   9.406  71.819  1.00  0.00    -0.444 C  
BRANCH   5   6
HETATM    6  C   UNL     1     -12.127  10.551  70.928  1.00  0.00    -0.487 C  
HETATM    7  C   UNL     1     -11.558  10.838  69.744  1.00  0.00    -0.393 C  
BRANCH   7   8
HETATM    8  C   UNL     1     -10.410  10.066  69.160  1.00  0.00    -0.233 C  
BRANCH   8   9
HETATM    9  C   UNL     1     -10.782   9.365  67.886  1.00  0.00    -0.269 C  
HETATM   10  C   UNL     1     -10.199   9.577  66.693  1.00  0.00    -0.310 C  
BRANCH  10  11
HETATM   11  C   UNL     1      -9.035  10.507  66.496  1.00  0.00    -0.171 C  
BRANCH  11  12
HETATM   12  C   UNL     1      -8.794  10.844  65.028  1.00  0.00    -0.151 C  
BRANCH  12  13
HETATM   13  C   UNL     1     -10.076  10.639  64.220  1.00  0.00    -0.411 C  
BRANCH  13  14
HETATM   14  C   UNL     1     -10.471  11.922  63.495  1.00  0.00    -0.505 C  
BRANCH  14  15
HETATM   15  C   UNL     1     -11.950  12.248  63.698  1.00  0.00    -0.633 C  
BRANCH  15  16
HETATM   16  C   UNL     1     -12.130  13.729  64.025  1.00  0.00    -0.448 C  
BRANCH  16  17
HETATM   17  C   UNL     1     -10.954  14.278  64.826  1.00  0.00    -0.408 C  
HETATM   18  C   UNL     1     -10.853  15.783  64.708  1.00  0.00    -0.344 C  
HETATM   19  O   UNL     1     -11.608  16.497  64.067  1.00  0.00    -1.154 OA 
HETATM   20  O   UNL     1      -9.808  16.283  65.408  1.00  0.00    -0.496 OA 
ENDBRANCH  16  17
ENDBRANCH  15  16
ENDBRANCH  14  15
ENDBRANCH  13  14
ENDBRANCH  12  13
ENDBRANCH  11  12
ENDBRANCH  10  11
ENDBRANCH   8   9
ENDBRANCH   7   8
ENDBRANCH   5   6
ENDBRANCH   4   5
ENDBRANCH   2   3
TORSDOF 12
ENDMDL
MODEL       24
REMARK 921   NORMALIZED FREE ENERGY PREDICTED BY IDOCK:   -4.82 KCAL/MOL
REMARK 922        TOTAL FREE ENERGY PREDICTED BY IDOCK:  -10.04 KCAL/MOL
REMARK 923 INTER-LIGAND FREE ENERGY PREDICTED BY IDOCK:   -7.64 KCAL/MOL
REMARK 924 INTRA-LIGAND FREE ENERGY PREDICTED BY IDOCK:   -2.40 KCAL/MOL
REMARK 927      BINDING AFFINITY PREDICTED BY RF-SCORE:    0.00 PKD
ROOT
HETATM    1  C   UNL     1     -11.983  13.138  63.602  1.00  0.00    -0.580 C  
HETATM    2  C   UNL     1     -11.033  13.647  64.675  1.00  0.00    -0.403 C  
ENDROOT
BRANCH   2   3
HETATM    3  C   UNL     1     -11.768  14.330  65.793  1.00  0.00    -0.359 C  
HETATM    4  C   UNL     1     -12.101  13.770  66.968  1.00  0.00    -0.436 C  
BRANCH   4   5
HETATM    5  C   UNL     1     -11.817  12.343  67.340  1.00  0.00    -0.360 C  
BRANCH   5   6
HETATM    6  C   UNL     1     -10.918  12.230  68.538  1.00  0.00    -0.275 C  
HETATM    7  C   UNL     1     -11.322  11.920  69.783  1.00  0.00    -0.223 C  
BRANCH   7   8
HETATM    8  C   UNL     1     -12.756  11.683  70.161  1.00  0.00     0.022 C  
BRANCH   8   9
HETATM    9  C   UNL     1     -13.020  11.968  71.610  1.00  0.00    -0.439 C  
HETATM   10  C   UNL     1     -13.423  13.155  72.099  1.00  0.00    -0.653 C  
BRANCH  10  11
HETATM   11  C   UNL     1     -13.732  14.343  71.233  1.00  0.00    -0.364 C  
BRANCH  11  12
HETATM   12  C   UNL     1     -12.967  15.593  71.654  1.00  0.00    -0.551 C  
BRANCH  12  13
HETATM   13  C   UNL     1     -11.477  15.430  71.352  1.00  0.00    -0.465 C  
BRANCH  13  14
HETATM   14  C   UNL     1     -11.157  15.895  69.935  1.00  0.00    -0.343 C  
BRANCH  14  15
HETATM   15  C   UNL     1      -9.753  15.467  69.509  1.00  0.00    -0.282 C  
BRANCH  15  16
HETATM   16  C   UNL     1      -9.140  16.506  68.572  1.00  0.00    -0.231 C  
BRANCH  16  17
HETATM   17  C   UNL     1     -10.204  17.207  67.733  1.00  0.00    -0.324 C  
HETATM   18  C   UNL     1      -9.815  17.263  66.273  1.00  0.00    -0.285 C  
HETATM   19  O   UNL     1      -8.789  16.806  65.793  1.00  0.00    -0.505 OA 
HETATM   20  O   UNL     1     -10.747  17.891  65.518  1.00  0.00    -0.585 OA 
ENDBRANCH  16  17
ENDBRANCH  15  16
ENDBRANCH  14  15
ENDBRANCH  13  14
ENDBRANCH  12  13
ENDBRANCH  11  12
ENDBRANCH  10  11
ENDBRANCH   8   9
ENDBRANCH   7   8
ENDBRANCH   5   6
ENDBRANCH   4   5
ENDBRANCH   2   3
TORSDOF 12
ENDMDL
MODEL       25
REMARK 921   NORMALIZED FREE ENERGY PREDICTED BY IDOCK:   -4.78 KCAL/MOL
REMARK 922        TOTAL FREE ENERGY PREDICTED BY IDOCK:   -9.98 KCAL/MOL
REMARK 923 INTER-LIGAND FREE ENERGY PREDICTED BY IDOCK:   -8.00 KCAL/MOL
REMARK 924 INTRA-LIGAND FREE ENERGY PREDICTED BY IDOCK:   -1.97 KCAL/MOL
REMARK 927      BINDING AFFINITY PREDICTED BY RF-SCORE:    0.00 PKD
ROOT
HETATM    1  C   UNL     1     -12.993  10.506  71.475  1.00  0.00    -0.565 C  
HETATM    2  C   UNL     1     -12.443   9.095  71.341  1.00  0.00    -0.396 C  
ENDROOT
BRANCH   2   3
HETATM    3  C   UNL     1     -10.998   9.019  71.746  1.00  0.00    -0.443 C  
HETATM    4  C   UNL     1     -10.315   7.892  72.004  1.00  0.00    -0.283 C  
BRANCH   4   5
HETATM    5  C   UNL     1     -10.906   6.511  71.962  1.00  0.00    -0.267 C  
BRANCH   5   6
HETATM    6  C   UNL     1     -10.155   5.592  71.041  1.00  0.00    -0.266 C  
HETATM    7  C   UNL     1     -10.352   5.495  69.715  1.00  0.00    -0.366 C  
BRANCH   7   8
HETATM    8  C   UNL     1     -11.396   6.272  68.966  1.00  0.00    -0.319 C  
BRANCH   8   9
HETATM    9  C   UNL     1     -10.961   6.617  67.572  1.00  0.00    -0.416 C  
HETATM   10  C   UNL     1     -10.401   7.784  67.207  1.00  0.00    -0.371 C  
BRANCH  10  11
HETATM   11  C   UNL     1     -10.069   8.880  68.179  1.00  0.00    -0.227 C  
BRANCH  11  12
HETATM   12  C   UNL     1     -11.017  10.070  68.070  1.00  0.00    -0.296 C  
BRANCH  12  13
HETATM   13  C   UNL     1     -10.469  11.259  68.859  1.00  0.00    -0.232 C  
BRANCH  13  14
HETATM   14  C   UNL     1     -10.526  12.535  68.026  1.00  0.00    -0.227 C  
BRANCH  14  15
HETATM   15  C   UNL     1     -11.903  12.730  67.392  1.00  0.00    -0.404 C  
BRANCH  15  16
HETATM   16  C   UNL     1     -11.770  12.966  65.889  1.00  0.00    -0.449 C  
BRANCH  16  17
HETATM   17  C   UNL     1     -11.572  14.443  65.565  1.00  0.00    -0.347 C  
HETATM   18  C   UNL     1     -12.176  14.806  64.227  1.00  0.00    -0.379 C  
HETATM   19  O   UNL     1     -12.762  14.038  63.480  1.00  0.00    -0.805 OA 
HETATM   20  O   UNL     1     -12.000  16.113  63.922  1.00  0.00    -0.947 OA 
ENDBRANCH  16  17
ENDBRANCH  15  16
ENDBRANCH  14  15
ENDBRANCH  13  14
ENDBRANCH  12  13
ENDBRANCH  11  12
ENDBRANCH  10  11
ENDBRANCH   8   9
ENDBRANCH   7   8
ENDBRANCH   5   6
ENDBRANCH   4   5
ENDBRANCH   2   3
TORSDOF 12
ENDMDL
MODEL       26
REMARK 921   NORMALIZED FREE ENERGY PREDICTED BY IDOCK:   -4.78 KCAL/MOL
REMARK 922        TOTAL FREE ENERGY PREDICTED BY IDOCK:   -9.97 KCAL/MOL
REMARK 923 INTER-LIGAND FREE ENERGY PREDICTED BY IDOCK:   -8.40 KCAL/MOL
REMARK 924 INTRA-LIGAND FREE ENERGY PREDICTED BY IDOCK:   -1.57 KCAL/MOL
REMARK 927      BINDING AFFINITY PREDICTED BY RF-SCORE:    0.00 PKD
ROOT
HETATM    1  C   UNL     1     -13.479  15.622  72.704  1.00  0.00    -0.655 C  
HETATM    2  C   UNL     1     -13.975  14.484  71.825  1.00  0.00    -0.556 C  
ENDROOT
BRANCH   2   3
HETATM    3  C   UNL     1     -13.718  13.143  72.452  1.00  0.00    -0.640 C  
HETATM    4  C   UNL     1     -13.036  12.132  71.886  1.00  0.00    -0.475 C  
BRANCH   4   5
HETATM    5  C   UNL     1     -12.446  12.173  70.505  1.00  0.00    -0.282 C  
BRANCH   5   6
HETATM    6  C   UNL     1     -11.875  10.849  70.086  1.00  0.00    -0.438 C  
HETATM    7  C   UNL     1     -11.366  10.575  68.871  1.00  0.00    -0.313 C  
BRANCH   7   8
HETATM    8  C   UNL     1     -11.338  11.558  67.736  1.00  0.00    -0.364 C  
BRANCH   8   9
HETATM    9  C   UNL     1      -9.957  11.749  67.181  1.00  0.00    -0.221 C  
HETATM   10  C   UNL     1      -9.571  11.395  65.942  1.00  0.00    -0.254 C  
BRANCH  10  11
HETATM   11  C   UNL     1     -10.506  10.817  64.918  1.00  0.00    -0.324 C  
BRANCH  11  12
HETATM   12  C   UNL     1     -10.981  11.853  63.905  1.00  0.00    -0.473 C  
BRANCH  12  13
HETATM   13  C   UNL     1     -12.439  12.228  64.172  1.00  0.00    -0.530 C  
BRANCH  13  14
HETATM   14  C   UNL     1     -12.527  13.444  65.088  1.00  0.00    -0.509 C  
BRANCH  14  15
HETATM   15  C   UNL     1     -11.843  14.662  64.469  1.00  0.00    -0.442 C  
BRANCH  15  16
HETATM   16  C   UNL     1     -10.488  14.906  65.129  1.00  0.00    -0.442 C  
BRANCH  16  17
HETATM   17  C   UNL     1     -10.639  15.508  66.523  1.00  0.00    -0.307 C  
HETATM   18  C   UNL     1     -10.546  17.017  66.491  1.00  0.00    -0.172 C  
HETATM   19  O   UNL     1     -10.379  17.698  65.491  1.00  0.00    -0.627 OA 
HETATM   20  O   UNL     1     -10.670  17.565  67.723  1.00  0.00    -0.380 OA 
ENDBRANCH  16  17
ENDBRANCH  15  16
ENDBRANCH  14  15
ENDBRANCH  13  14
ENDBRANCH  12  13
ENDBRANCH  11  12
ENDBRANCH  10  11
ENDBRANCH   8   9
ENDBRANCH   7   8
ENDBRANCH   5   6
ENDBRANCH   4   5
ENDBRANCH   2   3
TORSDOF 12
ENDMDL
MODEL       27
REMARK 921   NORMALIZED FREE ENERGY PREDICTED BY IDOCK:   -4.78 KCAL/MOL
REMARK 922        TOTAL FREE ENERGY PREDICTED BY IDOCK:   -9.97 KCAL/MOL
REMARK 923 INTER-LIGAND FREE ENERGY PREDICTED BY IDOCK:   -7.77 KCAL/MOL
REMARK 924 INTRA-LIGAND FREE ENERGY PREDICTED BY IDOCK:   -2.20 KCAL/MOL
REMARK 927      BINDING AFFINITY PREDICTED BY RF-SCORE:    0.00 PKD
ROOT
HETATM    1  C   UNL     1     -13.536  12.467  72.172  1.00  0.00    -0.523 C  
HETATM    2  C   UNL     1     -13.897  13.943  72.110  1.00  0.00    -0.636 C  
ENDROOT
BRANCH   2   3
HETATM    3  C   UNL     1     -12.934  14.786  72.897  1.00  0.00    -0.583 C  
HETATM    4  C   UNL     1     -12.088  15.694  72.384  1.00  0.00    -0.557 C  
BRANCH   4   5
HETATM    5  C   UNL     1     -11.943  15.987  70.918  1.00  0.00    -0.376 C  
BRANCH   5   6
HETATM    6  C   UNL     1     -10.670  15.434  70.344  1.00  0.00    -0.312 C  
HETATM    7  C   UNL     1     -10.591  14.610  69.284  1.00  0.00    -0.236 C  
BRANCH   7   8
HETATM    8  C   UNL     1     -11.788  14.088  68.542  1.00  0.00    -0.399 C  
BRANCH   8   9
HETATM    9  C   UNL     1     -11.937  14.713  67.186  1.00  0.00    -0.310 C  
HETATM   10  C   UNL     1     -11.912  14.039  66.022  1.00  0.00    -0.434 C  
BRANCH  10  11
HETATM   11  C   UNL     1     -11.802  12.543  65.935  1.00  0.00    -0.489 C  
BRANCH  11  12
HETATM   12  C   UNL     1     -10.421  12.080  65.484  1.00  0.00    -0.307 C  
BRANCH  12  13
HETATM   13  C   UNL     1      -9.669  11.439  66.651  1.00  0.00    -0.224 C  
BRANCH  13  14
HETATM   14  C   UNL     1     -10.629  10.690  67.569  1.00  0.00    -0.297 C  
BRANCH  14  15
HETATM   15  C   UNL     1     -10.181  10.762  69.028  1.00  0.00    -0.229 C  
BRANCH  15  16
HETATM   16  C   UNL     1     -11.322  10.357  69.958  1.00  0.00    -0.384 C  
BRANCH  16  17
HETATM   17  C   UNL     1     -10.856   9.380  71.033  1.00  0.00    -0.406 C  
HETATM   18  C   UNL     1     -12.023   8.768  71.775  1.00  0.00    -0.349 C  
HETATM   19  O   UNL     1     -13.202   9.001  71.559  1.00  0.00    -0.334 OA 
HETATM   20  O   UNL     1     -11.623   7.905  72.738  1.00  0.00    -0.383 OA 
ENDBRANCH  16  17
ENDBRANCH  15  16
ENDBRANCH  14  15
ENDBRANCH  13  14
ENDBRANCH  12  13
ENDBRANCH  11  12
ENDBRANCH  10  11
ENDBRANCH   8   9
ENDBRANCH   7   8
ENDBRANCH   5   6
ENDBRANCH   4   5
ENDBRANCH   2   3
TORSDOF 12
ENDMDL
MODEL       28
REMARK 921   NORMALIZED FREE ENERGY PREDICTED BY IDOCK:   -4.77 KCAL/MOL
REMARK 922        TOTAL FREE ENERGY PREDICTED BY IDOCK:   -9.96 KCAL/MOL
REMARK 923 INTER-LIGAND FREE ENERGY PREDICTED BY IDOCK:   -7.54 KCAL/MOL
REMARK 924 INTRA-LIGAND FREE ENERGY PREDICTED BY IDOCK:   -2.42 KCAL/MOL
REMARK 927      BINDING AFFINITY PREDICTED BY RF-SCORE:    0.00 PKD
ROOT
HETATM    1  C   UNL     1     -10.370  19.879  67.017  1.00  0.00    -0.592 C  
HETATM    2  C   UNL     1     -10.596  18.380  67.125  1.00  0.00    -0.416 C  
ENDROOT
BRANCH   2   3
HETATM    3  C   UNL     1     -10.344  17.877  68.518  1.00  0.00    -0.365 C  
HETATM    4  C   UNL     1     -10.555  16.622  68.948  1.00  0.00    -0.337 C  
BRANCH   4   5
HETATM    5  C   UNL     1     -11.118  15.517  68.100  1.00  0.00    -0.325 C  
BRANCH   5   6
HETATM    6  C   UNL     1     -10.099  14.935  67.162  1.00  0.00    -0.240 C  
HETATM    7  C   UNL     1     -10.325  14.615  65.876  1.00  0.00    -0.334 C  
BRANCH   7   8
HETATM    8  C   UNL     1     -11.659  14.757  65.201  1.00  0.00    -0.358 C  
BRANCH   8   9
HETATM    9  C   UNL     1     -12.514  13.535  65.362  1.00  0.00    -0.540 C  
HETATM   10  C   UNL     1     -12.500  12.473  64.536  1.00  0.00    -0.539 C  
BRANCH  10  11
HETATM   11  C   UNL     1     -11.561  12.345  63.370  1.00  0.00    -0.541 C  
BRANCH  11  12
HETATM   12  C   UNL     1     -10.316  11.531  63.704  1.00  0.00    -0.467 C  
BRANCH  12  13
HETATM   13  C   UNL     1     -10.463  10.877  65.079  1.00  0.00    -0.331 C  
BRANCH  13  14
HETATM   14  C   UNL     1      -9.253  11.180  65.956  1.00  0.00    -0.223 C  
BRANCH  14  15
HETATM   15  C   UNL     1      -9.619  11.167  67.440  1.00  0.00    -0.183 C  
BRANCH  15  16
HETATM   16  C   UNL     1     -11.124  10.977  67.616  1.00  0.00    -0.363 C  
BRANCH  16  17
HETATM   17  C   UNL     1     -11.697  11.937  68.654  1.00  0.00    -0.380 C  
HETATM   18  C   UNL     1     -11.868  11.267  69.999  1.00  0.00    -0.367 C  
HETATM   19  O   UNL     1     -11.585  10.107  70.255  1.00  0.00    -0.267 OA 
HETATM   20  O   UNL     1     -12.383  12.105  70.928  1.00  0.00    -0.373 OA 
ENDBRANCH  16  17
ENDBRANCH  15  16
ENDBRANCH  14  15
ENDBRANCH  13  14
ENDBRANCH  12  13
ENDBRANCH  11  12
ENDBRANCH  10  11
ENDBRANCH   8   9
ENDBRANCH   7   8
ENDBRANCH   5   6
ENDBRANCH   4   5
ENDBRANCH   2   3
TORSDOF 12
ENDMDL
MODEL       29
REMARK 921   NORMALIZED FREE ENERGY PREDICTED BY IDOCK:   -4.76 KCAL/MOL
REMARK 922        TOTAL FREE ENERGY PREDICTED BY IDOCK:   -9.95 KCAL/MOL
REMARK 923 INTER-LIGAND FREE ENERGY PREDICTED BY IDOCK:   -7.22 KCAL/MOL
REMARK 924 INTRA-LIGAND FREE ENERGY PREDICTED BY IDOCK:   -2.73 KCAL/MOL
REMARK 927      BINDING AFFINITY PREDICTED BY RF-SCORE:    0.00 PKD
ROOT
HETATM    1  C   UNL     1     -13.881  14.170  72.342  1.00  0.00    -0.638 C  
HETATM    2  C   UNL     1     -13.436  15.584  72.001  1.00  0.00    -0.578 C  
ENDROOT
BRANCH   2   3
HETATM    3  C   UNL     1     -11.944  15.679  71.855  1.00  0.00    -0.530 C  
HETATM    4  C   UNL     1     -11.264  15.599  70.699  1.00  0.00    -0.382 C  
BRANCH   4   5
HETATM    5  C   UNL     1     -11.895  15.362  69.356  1.00  0.00    -0.372 C  
BRANCH   5   6
HETATM    6  C   UNL     1     -12.051  13.900  69.045  1.00  0.00    -0.365 C  
HETATM    7  C   UNL     1     -12.148  13.378  67.810  1.00  0.00    -0.299 C  
BRANCH   7   8
HETATM    8  C   UNL     1     -12.158  14.201  66.553  1.00  0.00    -0.481 C  
BRANCH   8   9
HETATM    9  C   UNL     1     -12.675  13.433  65.372  1.00  0.00    -0.484 C  
HETATM   10  C   UNL     1     -11.925  12.655  64.572  1.00  0.00    -0.464 C  
BRANCH  10  11
HETATM   11  C   UNL     1     -10.464  12.395  64.806  1.00  0.00    -0.333 C  
BRANCH  11  12
HETATM   12  C   UNL     1     -10.205  11.042  65.461  1.00  0.00    -0.327 C  
BRANCH  12  13
HETATM   13  C   UNL     1      -9.460  11.227  66.784  1.00  0.00    -0.196 C  
BRANCH  13  14
HETATM   14  C   UNL     1      -8.665  12.528  66.782  1.00  0.00    -0.147 C  
BRANCH  14  15
HETATM   15  C   UNL     1      -8.451  13.056  68.200  1.00  0.00    -0.176 C  
BRANCH  15  16
HETATM   16  C   UNL     1      -8.492  14.583  68.213  1.00  0.00    -0.161 C  
BRANCH  16  17
HETATM   17  C   UNL     1      -8.771  15.152  66.826  1.00  0.00    -0.307 C  
HETATM   18  C   UNL     1      -9.124  16.622  66.887  1.00  0.00    -0.228 C  
HETATM   19  O   UNL     1      -9.180  17.297  67.903  1.00  0.00    -0.239 OA 
HETATM   20  O   UNL     1      -9.382  17.138  65.663  1.00  0.00    -0.515 OA 
ENDBRANCH  16  17
ENDBRANCH  15  16
ENDBRANCH  14  15
ENDBRANCH  13  14
ENDBRANCH  12  13
ENDBRANCH  11  12
ENDBRANCH  10  11
ENDBRANCH   8   9
ENDBRANCH   7   8
ENDBRANCH   5   6
ENDBRANCH   4   5
ENDBRANCH   2   3
TORSDOF 12
ENDMDL
MODEL       30
REMARK 921   NORMALIZED FREE ENERGY PREDICTED BY IDOCK:   -4.74 KCAL/MOL
REMARK 922        TOTAL FREE ENERGY PREDICTED BY IDOCK:   -9.91 KCAL/MOL
REMARK 923 INTER-LIGAND FREE ENERGY PREDICTED BY IDOCK:   -8.00 KCAL/MOL
REMARK 924 INTRA-LIGAND FREE ENERGY PREDICTED BY IDOCK:   -1.92 KCAL/MOL
REMARK 927      BINDING AFFINITY PREDICTED BY RF-SCORE:    0.00 PKD
ROOT
HETATM    1  C   UNL     1     -10.519  12.102  63.408  1.00  0.00    -0.450 C  
HETATM    2  C   UNL     1     -11.986  12.091  63.808  1.00  0.00    -0.588 C  
ENDROOT
BRANCH   2   3
HETATM    3  C   UNL     1     -12.294  13.148  64.830  1.00  0.00    -0.477 C  
HETATM    4  C   UNL     1     -12.076  13.047  66.151  1.00  0.00    -0.473 C  
BRANCH   4   5
HETATM    5  C   UNL     1     -11.515  11.829  66.829  1.00  0.00    -0.352 C  
BRANCH   5   6
HETATM    6  C   UNL     1     -10.788  12.164  68.100  1.00  0.00    -0.256 C  
HETATM    7  C   UNL     1      -9.633  12.848  68.174  1.00  0.00    -0.223 C  
BRANCH   7   8
HETATM    8  C   UNL     1      -8.877  13.344  66.975  1.00  0.00    -0.217 C  
BRANCH   8   9
HETATM    9  C   UNL     1      -8.160  14.634  67.245  1.00  0.00    -0.230 C  
HETATM   10  C   UNL     1      -8.740  15.848  67.256  1.00  0.00    -0.206 C  
BRANCH  10  11
HETATM   11  C   UNL     1     -10.215  16.061  67.068  1.00  0.00    -0.282 C  
BRANCH  11  12
HETATM   12  C   UNL     1     -10.896  16.599  68.322  1.00  0.00    -0.356 C  
BRANCH  12  13
HETATM   13  C   UNL     1     -11.983  15.631  68.791  1.00  0.00    -0.247 C  
BRANCH  13  14
HETATM   14  C   UNL     1     -11.938  15.457  70.306  1.00  0.00    -0.386 C  
BRANCH  14  15
HETATM   15  C   UNL     1     -12.499  14.100  70.731  1.00  0.00    -0.436 C  
BRANCH  15  16
HETATM   16  C   UNL     1     -13.528  14.274  71.847  1.00  0.00    -0.485 C  
BRANCH  16  17
HETATM   17  C   UNL     1     -13.424  15.648  72.501  1.00  0.00    -0.630 C  
HETATM   18  C   UNL     1     -12.570  15.608  73.750  1.00  0.00    -0.614 C  
HETATM   19  O   UNL     1     -12.015  14.617  74.198  1.00  0.00    -0.403 OA 
HETATM   20  O   UNL     1     -12.476  16.819  74.346  1.00  0.00    -0.683 OA 
ENDBRANCH  16  17
ENDBRANCH  15  16
ENDBRANCH  14  15
ENDBRANCH  13  14
ENDBRANCH  12  13
ENDBRANCH  11  12
ENDBRANCH  10  11
ENDBRANCH   8   9
ENDBRANCH   7   8
ENDBRANCH   5   6
ENDBRANCH   4   5
ENDBRANCH   2   3
TORSDOF 12
ENDMDL
MODEL       31
REMARK 921   NORMALIZED FREE ENERGY PREDICTED BY IDOCK:   -4.74 KCAL/MOL
REMARK 922        TOTAL FREE ENERGY PREDICTED BY IDOCK:   -9.90 KCAL/MOL
REMARK 923 INTER-LIGAND FREE ENERGY PREDICTED BY IDOCK:   -8.25 KCAL/MOL
REMARK 924 INTRA-LIGAND FREE ENERGY PREDICTED BY IDOCK:   -1.65 KCAL/MOL
REMARK 927      BINDING AFFINITY PREDICTED BY RF-SCORE:    0.00 PKD
ROOT
HETATM    1  C   UNL     1     -10.670   7.022  67.099  1.00  0.00    -0.433 C  
HETATM    2  C   UNL     1     -10.146   8.445  66.996  1.00  0.00    -0.354 C  
ENDROOT
BRANCH   2   3
HETATM    3  C   UNL     1      -9.230   8.618  65.817  1.00  0.00    -0.245 C  
HETATM    4  C   UNL     1      -9.179   9.695  65.016  1.00  0.00    -0.310 C  
BRANCH   4   5
HETATM    5  C   UNL     1     -10.067  10.899  65.153  1.00  0.00    -0.352 C  
BRANCH   5   6
HETATM    6  C   UNL     1     -10.514  11.436  63.824  1.00  0.00    -0.456 C  
HETATM    7  C   UNL     1     -11.632  12.154  63.615  1.00  0.00    -0.575 C  
BRANCH   7   8
HETATM    8  C   UNL     1     -12.625  12.485  64.692  1.00  0.00    -0.507 C  
BRANCH   8   9
HETATM    9  C   UNL     1     -12.424  13.863  65.251  1.00  0.00    -0.504 C  
HETATM   10  C   UNL     1     -12.181  14.140  66.544  1.00  0.00    -0.463 C  
BRANCH  10  11
HETATM   11  C   UNL     1     -12.007  13.083  67.597  1.00  0.00    -0.353 C  
BRANCH  11  12
HETATM   12  C   UNL     1     -10.650  13.160  68.290  1.00  0.00    -0.260 C  
BRANCH  12  13
HETATM   13  C   UNL     1     -10.081  14.575  68.186  1.00  0.00    -0.227 C  
BRANCH  13  14
HETATM   14  C   UNL     1     -10.032  15.242  69.557  1.00  0.00    -0.247 C  
BRANCH  14  15
HETATM   15  C   UNL     1     -11.251  16.134  69.790  1.00  0.00    -0.343 C  
BRANCH  15  16
HETATM   16  C   UNL     1     -11.845  15.874  71.173  1.00  0.00    -0.483 C  
BRANCH  16  17
HETATM   17  C   UNL     1     -12.749  14.645  71.177  1.00  0.00    -0.409 C  
HETATM   18  C   UNL     1     -13.164  14.264  72.581  1.00  0.00    -0.510 C  
HETATM   19  O   UNL     1     -12.839  14.850  73.601  1.00  0.00    -0.512 OA 
HETATM   20  O   UNL     1     -13.960  13.169  72.600  1.00  0.00    -0.708 OA 
ENDBRANCH  16  17
ENDBRANCH  15  16
ENDBRANCH  14  15
ENDBRANCH  13  14
ENDBRANCH  12  13
ENDBRANCH  11  12
ENDBRANCH  10  11
ENDBRANCH   8   9
ENDBRANCH   7   8
ENDBRANCH   5   6
ENDBRANCH   4   5
ENDBRANCH   2   3
TORSDOF 12
ENDMDL
MODEL       32
REMARK 921   NORMALIZED FREE ENERGY PREDICTED BY IDOCK:   -4.74 KCAL/MOL
REMARK 922        TOTAL FREE ENERGY PREDICTED BY IDOCK:   -9.90 KCAL/MOL
REMARK 923 INTER-LIGAND FREE ENERGY PREDICTED BY IDOCK:   -7.38 KCAL/MOL
REMARK 924 INTRA-LIGAND FREE ENERGY PREDICTED BY IDOCK:   -2.52 KCAL/MOL
REMARK 927      BINDING AFFINITY PREDICTED BY RF-SCORE:    0.00 PKD
ROOT
HETATM    1  C   UNL     1     -10.353  19.999  66.804  1.00  0.00    -0.564 C  
HETATM    2  C   UNL     1     -10.106  19.565  68.241  1.00  0.00    -0.542 C  
ENDROOT
BRANCH   2   3
HETATM    3  C   UNL     1      -8.640  19.425  68.537  1.00  0.00    -0.401 C  
HETATM    4  C   UNL     1      -7.878  18.360  68.236  1.00  0.00    -0.314 C  
BRANCH   4   5
HETATM    5  C   UNL     1      -8.388  17.109  67.578  1.00  0.00    -0.199 C  
BRANCH   5   6
HETATM    6  C   UNL     1      -8.177  15.888  68.427  1.00  0.00    -0.161 C  
HETATM    7  C   UNL     1      -9.067  15.392  69.305  1.00  0.00    -0.260 C  
BRANCH   7   8
HETATM    8  C   UNL     1     -10.397  16.026  69.594  1.00  0.00    -0.283 C  
BRANCH   8   9
HETATM    9  C   UNL     1     -11.423  15.704  68.547  1.00  0.00    -0.380 C  
HETATM   10  C   UNL     1     -12.093  14.540  68.459  1.00  0.00    -0.257 C  
BRANCH  10  11
HETATM   11  C   UNL     1     -11.947  13.425  69.455  1.00  0.00    -0.369 C  
BRANCH  11  12
HETATM   12  C   UNL     1     -11.686  12.076  68.793  1.00  0.00    -0.377 C  
BRANCH  12  13
HETATM   13  C   UNL     1     -10.191  11.894  68.530  1.00  0.00    -0.221 C  
BRANCH  13  14
HETATM   14  C   UNL     1      -9.913  11.773  67.035  1.00  0.00    -0.224 C  
BRANCH  14  15
HETATM   15  C   UNL     1      -9.353  13.075  66.463  1.00  0.00    -0.220 C  
BRANCH  15  16
HETATM   16  C   UNL     1     -10.324  13.672  65.446  1.00  0.00    -0.345 C  
BRANCH  16  17
HETATM   17  C   UNL     1     -11.146  12.593  64.748  1.00  0.00    -0.335 C  
HETATM   18  C   UNL     1     -12.618  12.937  64.732  1.00  0.00    -0.425 C  
HETATM   19  O   UNL     1     -13.116  13.948  65.203  1.00  0.00    -0.773 OA 
HETATM   20  O   UNL     1     -13.361  11.984  64.123  1.00  0.00    -0.725 OA 
ENDBRANCH  16  17
ENDBRANCH  15  16
ENDBRANCH  14  15
ENDBRANCH  13  14
ENDBRANCH  12  13
ENDBRANCH  11  12
ENDBRANCH  10  11
ENDBRANCH   8   9
ENDBRANCH   7   8
ENDBRANCH   5   6
ENDBRANCH   4   5
ENDBRANCH   2   3
TORSDOF 12
ENDMDL
MODEL       33
REMARK 921   NORMALIZED FREE ENERGY PREDICTED BY IDOCK:   -4.73 KCAL/MOL
REMARK 922        TOTAL FREE ENERGY PREDICTED BY IDOCK:   -9.88 KCAL/MOL
REMARK 923 INTER-LIGAND FREE ENERGY PREDICTED BY IDOCK:   -8.26 KCAL/MOL
REMARK 924 INTRA-LIGAND FREE ENERGY PREDICTED BY IDOCK:   -1.62 KCAL/MOL
REMARK 927      BINDING AFFINITY PREDICTED BY RF-SCORE:    0.00 PKD
ROOT
HETATM    1  C   UNL     1     -11.083  15.847  64.744  1.00  0.00    -0.397 C  
HETATM    2  C   UNL     1     -12.201  14.880  64.386  1.00  0.00    -0.399 C  
ENDROOT
BRANCH   2   3
HETATM    3  C   UNL     1     -12.399  13.838  65.450  1.00  0.00    -0.504 C  
HETATM    4  C   UNL     1     -12.381  12.509  65.257  1.00  0.00    -0.469 C  
BRANCH   4   5
HETATM    5  C   UNL     1     -12.194  11.846  63.922  1.00  0.00    -0.497 C  
BRANCH   5   6
HETATM    6  C   UNL     1     -10.776  11.928  63.434  1.00  0.00    -0.476 C  
HETATM    7  C   UNL     1      -9.745  11.218  63.927  1.00  0.00    -0.311 C  
BRANCH   7   8
HETATM    8  C   UNL     1      -9.865  10.262  65.079  1.00  0.00    -0.397 C  
BRANCH   8   9
HETATM    9  C   UNL     1      -9.169  10.762  66.311  1.00  0.00    -0.195 C  
HETATM   10  C   UNL     1      -9.677  10.713  67.555  1.00  0.00    -0.189 C  
BRANCH  10  11
HETATM   11  C   UNL     1     -10.998  10.077  67.883  1.00  0.00    -0.311 C  
BRANCH  11  12
HETATM   12  C   UNL     1     -11.989  11.062  68.493  1.00  0.00    -0.206 C  
BRANCH  12  13
HETATM   13  C   UNL     1     -11.309  12.407  68.752  1.00  0.00    -0.339 C  
BRANCH  13  14
HETATM   14  C   UNL     1     -12.005  13.158  69.883  1.00  0.00    -0.387 C  
BRANCH  14  15
HETATM   15  C   UNL     1     -11.773  14.665  69.780  1.00  0.00    -0.361 C  
BRANCH  15  16
HETATM   16  C   UNL     1     -12.786  15.421  70.638  1.00  0.00    -0.490 C  
BRANCH  16  17
HETATM   17  C   UNL     1     -12.194  15.826  71.985  1.00  0.00    -0.548 C  
HETATM   18  C   UNL     1     -12.800  15.034  73.121  1.00  0.00    -0.506 C  
HETATM   19  O   UNL     1     -13.651  14.166  73.007  1.00  0.00    -0.651 OA 
HETATM   20  O   UNL     1     -12.290  15.389  74.323  1.00  0.00    -0.631 OA 
ENDBRANCH  16  17
ENDBRANCH  15  16
ENDBRANCH  14  15
ENDBRANCH  13  14
ENDBRANCH  12  13
ENDBRANCH  11  12
ENDBRANCH  10  11
ENDBRANCH   8   9
ENDBRANCH   7   8
ENDBRANCH   5   6
ENDBRANCH   4   5
ENDBRANCH   2   3
TORSDOF 12
ENDMDL
MODEL       34
REMARK 921   NORMALIZED FREE ENERGY PREDICTED BY IDOCK:   -4.71 KCAL/MOL
REMARK 922        TOTAL FREE ENERGY PREDICTED BY IDOCK:   -9.85 KCAL/MOL
REMARK 923 INTER-LIGAND FREE ENERGY PREDICTED BY IDOCK:   -7.97 KCAL/MOL
REMARK 924 INTRA-LIGAND FREE ENERGY PREDICTED BY IDOCK:   -1.88 KCAL/MOL
REMARK 927      BINDING AFFINITY PREDICTED BY RF-SCORE:    0.00 PKD
ROOT
HETATM    1  C   UNL     1     -12.439  15.741  74.200  1.00  0.00    -0.793 C  
HETATM    2  C   UNL     1     -13.407  15.749  73.028  1.00  0.00    -0.679 C  
ENDROOT
BRANCH   2   3
HETATM    3  C   UNL     1     -12.689  15.678  71.710  1.00  0.00    -0.519 C  
HETATM    4  C   UNL     1     -12.465  14.560  71.000  1.00  0.00    -0.412 C  
BRANCH   4   5
HETATM    5  C   UNL     1     -12.874  13.181  71.434  1.00  0.00    -0.401 C  
BRANCH   5   6
HETATM    6  C   UNL     1     -12.322  12.109  70.538  1.00  0.00    -0.358 C  
HETATM    7  C   UNL     1     -12.520  10.789  70.696  1.00  0.00    -0.461 C  
BRANCH   7   8
HETATM    8  C   UNL     1     -13.298  10.192  71.834  1.00  0.00    -0.505 C  
BRANCH   8   9
HETATM    9  C   UNL     1     -13.639   8.750  71.598  1.00  0.00    -0.425 C  
HETATM   10  C   UNL     1     -12.808   7.716  71.820  1.00  0.00    -0.357 C  
BRANCH  10  11
HETATM   11  C   UNL     1     -11.434   7.873  72.409  1.00  0.00    -0.433 C  
BRANCH  11  12
HETATM   12  C   UNL     1     -10.326   7.641  71.387  1.00  0.00    -0.219 C  
BRANCH  12  13
HETATM   13  C   UNL     1      -9.366   8.831  71.367  1.00  0.00    -0.328 C  
BRANCH  13  14
HETATM   14  C   UNL     1      -9.380   9.516  70.004  1.00  0.00    -0.265 C  
BRANCH  14  15
HETATM   15  C   UNL     1      -9.847   8.564  68.903  1.00  0.00    -0.181 C  
BRANCH  15  16
HETATM   16  C   UNL     1     -10.658   9.320  67.853  1.00  0.00    -0.288 C  
BRANCH  16  17
HETATM   17  C   UNL     1      -9.886  10.512  67.294  1.00  0.00    -0.209 C  
HETATM   18  C   UNL     1     -10.807  11.661  66.951  1.00  0.00    -0.278 C  
HETATM   19  O   UNL     1     -12.019  11.669  67.099  1.00  0.00    -0.614 OA 
HETATM   20  O   UNL     1     -10.136  12.723  66.446  1.00  0.00    -0.248 OA 
ENDBRANCH  16  17
ENDBRANCH  15  16
ENDBRANCH  14  15
ENDBRANCH  13  14
ENDBRANCH  12  13
ENDBRANCH  11  12
ENDBRANCH  10  11
ENDBRANCH   8   9
ENDBRANCH   7   8
ENDBRANCH   5   6
ENDBRANCH   4   5
ENDBRANCH   2   3
TORSDOF 12
ENDMDL
MODEL       35
REMARK 921   NORMALIZED FREE ENERGY PREDICTED BY IDOCK:   -4.70 KCAL/MOL
REMARK 922        TOTAL FREE ENERGY PREDICTED BY IDOCK:   -9.84 KCAL/MOL
REMARK 923 INTER-LIGAND FREE ENERGY PREDICTED BY IDOCK:   -7.29 KCAL/MOL
REMARK 924 INTRA-LIGAND FREE ENERGY PREDICTED BY IDOCK:   -2.55 KCAL/MOL
REMARK 927      BINDING AFFINITY PREDICTED BY RF-SCORE:    0.00 PKD
ROOT
HETATM    1  C   UNL     1      -9.410   8.781  71.489  1.00  0.00    -0.337 C  
HETATM    2  C   UNL     1     -10.707   8.006  71.317  1.00  0.00    -0.265 C  
ENDROOT
BRANCH   2   3
HETATM    3  C   UNL     1     -11.639   8.215  72.477  1.00  0.00    -0.468 C  
HETATM    4  C   UNL     1     -12.773   8.934  72.450  1.00  0.00    -0.436 C  
BRANCH   4   5
HETATM    5  C   UNL     1     -13.276   9.684  71.249  1.00  0.00    -0.429 C  
BRANCH   5   6
HETATM    6  C   UNL     1     -12.744  11.087  71.183  1.00  0.00    -0.521 C  
HETATM    7  C   UNL     1     -11.979  11.579  70.193  1.00  0.00    -0.452 C  
BRANCH   7   8
HETATM    8  C   UNL     1     -11.509  10.769  69.019  1.00  0.00    -0.368 C  
BRANCH   8   9
HETATM    9  C   UNL     1     -10.085  11.069  68.652  1.00  0.00    -0.207 C  
HETATM   10  C   UNL     1      -9.638  11.257  67.397  1.00  0.00    -0.182 C  
BRANCH  10  11
HETATM   11  C   UNL     1     -10.535  11.260  66.192  1.00  0.00    -0.305 C  
BRANCH  11  12
HETATM   12  C   UNL     1     -10.574  12.614  65.492  1.00  0.00    -0.301 C  
BRANCH  12  13
HETATM   13  C   UNL     1     -11.971  13.226  65.598  1.00  0.00    -0.455 C  
BRANCH  13  14
HETATM   14  C   UNL     1     -12.149  13.945  66.931  1.00  0.00    -0.467 C  
BRANCH  14  15
HETATM   15  C   UNL     1     -10.906  14.752  67.302  1.00  0.00    -0.309 C  
BRANCH  15  16
HETATM   16  C   UNL     1     -10.913  15.089  68.792  1.00  0.00    -0.259 C  
BRANCH  16  17
HETATM   17  C   UNL     1     -12.305  14.935  69.399  1.00  0.00    -0.168 C  
HETATM   18  C   UNL     1     -12.416  15.653  70.725  1.00  0.00    -0.435 C  
HETATM   19  O   UNL     1     -11.525  16.289  71.266  1.00  0.00    -0.423 OA 
HETATM   20  O   UNL     1     -13.644  15.518  71.279  1.00  0.00    -0.505 OA 
ENDBRANCH  16  17
ENDBRANCH  15  16
ENDBRANCH  14  15
ENDBRANCH  13  14
ENDBRANCH  12  13
ENDBRANCH  11  12
ENDBRANCH  10  11
ENDBRANCH   8   9
ENDBRANCH   7   8
ENDBRANCH   5   6
ENDBRANCH   4   5
ENDBRANCH   2   3
TORSDOF 12
ENDMDL
MODEL       36
REMARK 921   NORMALIZED FREE ENERGY PREDICTED BY IDOCK:   -4.69 KCAL/MOL
REMARK 922        TOTAL FREE ENERGY PREDICTED BY IDOCK:   -9.83 KCAL/MOL
REMARK 923 INTER-LIGAND FREE ENERGY PREDICTED BY IDOCK:   -7.99 KCAL/MOL
REMARK 924 INTRA-LIGAND FREE ENERGY PREDICTED BY IDOCK:   -1.84 KCAL/MOL
REMARK 927      BINDING AFFINITY PREDICTED BY RF-SCORE:    0.00 PKD
ROOT
HETATM    1  C   UNL     1     -12.258   9.348  71.798  1.00  0.00    -0.465 C  
HETATM    2  C   UNL     1     -11.577  10.165  70.710  1.00  0.00    -0.445 C  
ENDROOT
BRANCH   2   3
HETATM    3  C   UNL     1     -12.288  11.464  70.461  1.00  0.00    -0.439 C  
HETATM    4  C   UNL     1     -11.907  12.409  69.585  1.00  0.00    -0.380 C  
BRANCH   4   5
HETATM    5  C   UNL     1     -10.673  12.331  68.733  1.00  0.00    -0.247 C  
BRANCH   5   6
HETATM    6  C   UNL     1     -10.925  11.649  67.419  1.00  0.00    -0.313 C  
HETATM    7  C   UNL     1     -11.657  12.156  66.411  1.00  0.00    -0.429 C  
BRANCH   7   8
HETATM    8  C   UNL     1     -12.370  13.476  66.479  1.00  0.00    -0.382 C  
BRANCH   8   9
HETATM    9  C   UNL     1     -12.592  14.076  65.122  1.00  0.00    -0.453 C  
HETATM   10  C   UNL     1     -11.722  14.881  64.485  1.00  0.00    -0.388 C  
BRANCH  10  11
HETATM   11  C   UNL     1     -10.366  15.228  65.031  1.00  0.00    -0.375 C  
BRANCH  11  12
HETATM   12  C   UNL     1     -10.400  16.429  65.970  1.00  0.00    -0.365 C  
BRANCH  12  13
HETATM   13  C   UNL     1      -9.972  16.013  67.378  1.00  0.00    -0.241 C  
BRANCH  13  14
HETATM   14  C   UNL     1     -10.976  16.504  68.417  1.00  0.00    -0.348 C  
BRANCH  14  15
HETATM   15  C   UNL     1     -10.676  15.928  69.801  1.00  0.00    -0.324 C  
BRANCH  15  16
HETATM   16  C   UNL     1     -11.937  15.926  70.662  1.00  0.00    -0.379 C  
BRANCH  16  17
HETATM   17  C   UNL     1     -11.702  15.245  72.006  1.00  0.00    -0.529 C  
HETATM   18  C   UNL     1     -12.959  15.222  72.847  1.00  0.00    -0.463 C  
HETATM   19  O   UNL     1     -14.043  15.676  72.516  1.00  0.00    -0.558 OA 
HETATM   20  O   UNL     1     -12.763  14.627  74.047  1.00  0.00    -0.470 OA 
ENDBRANCH  16  17
ENDBRANCH  15  16
ENDBRANCH  14  15
ENDBRANCH  13  14
ENDBRANCH  12  13
ENDBRANCH  11  12
ENDBRANCH  10  11
ENDBRANCH   8   9
ENDBRANCH   7   8
ENDBRANCH   5   6
ENDBRANCH   4   5
ENDBRANCH   2   3
TORSDOF 12
ENDMDL
MODEL       37
REMARK 921   NORMALIZED FREE ENERGY PREDICTED BY IDOCK:   -4.69 KCAL/MOL
REMARK 922        TOTAL FREE ENERGY PREDICTED BY IDOCK:   -9.82 KCAL/MOL
REMARK 923 INTER-LIGAND FREE ENERGY PREDICTED BY IDOCK:   -7.95 KCAL/MOL
REMARK 924 INTRA-LIGAND FREE ENERGY PREDICTED BY IDOCK:   -1.87 KCAL/MOL
REMARK 927      BINDING AFFINITY PREDICTED BY RF-SCORE:    0.00 PKD
ROOT
HETATM    1  C   UNL     1     -10.264  10.068  66.193  1.00  0.00    -0.283 C  
HETATM    2  C   UNL     1      -9.831   9.038  67.225  1.00  0.00    -0.252 C  
ENDROOT
BRANCH   2   3
HETATM    3  C   UNL     1     -10.549   7.731  67.044  1.00  0.00    -0.396 C  
HETATM    4  C   UNL     1     -10.938   6.908  68.031  1.00  0.00    -0.241 C  
BRANCH   4   5
HETATM    5  C   UNL     1     -10.680   7.151  69.491  1.00  0.00    -0.255 C  
BRANCH   5   6
HETATM    6  C   UNL     1     -11.690   6.475  70.373  1.00  0.00    -0.439 C  
HETATM    7  C   UNL     1     -12.176   6.979  71.522  1.00  0.00    -0.407 C  
BRANCH   7   8
HETATM    8  C   UNL     1     -11.737   8.288  72.111  1.00  0.00    -0.429 C  
BRANCH   8   9
HETATM    9  C   UNL     1     -12.809   9.335  72.041  1.00  0.00    -0.495 C  
HETATM   10  C   UNL     1     -12.800  10.391  71.207  1.00  0.00    -0.533 C  
BRANCH  10  11
HETATM   11  C   UNL     1     -11.732  10.619  70.175  1.00  0.00    -0.417 C  
BRANCH  11  12
HETATM   12  C   UNL     1     -12.141  11.644  69.123  1.00  0.00    -0.315 C  
BRANCH  12  13
HETATM   13  C   UNL     1     -11.681  13.042  69.537  1.00  0.00    -0.381 C  
BRANCH  13  14
HETATM   14  C   UNL     1     -11.007  13.759  68.372  1.00  0.00    -0.275 C  
BRANCH  14  15
HETATM   15  C   UNL     1     -12.003  14.079  67.258  1.00  0.00    -0.448 C  
BRANCH  15  16
HETATM   16  C   UNL     1     -11.481  13.577  65.914  1.00  0.00    -0.338 C  
BRANCH  16  17
HETATM   17  C   UNL     1     -12.591  12.950  65.076  1.00  0.00    -0.538 C  
HETATM   18  C   UNL     1     -12.059  12.398  63.771  1.00  0.00    -0.529 C  
HETATM   19  O   UNL     1     -10.894  12.429  63.410  1.00  0.00    -0.451 OA 
HETATM   20  O   UNL     1     -13.035  11.846  63.013  1.00  0.00    -0.525 OA 
ENDBRANCH  16  17
ENDBRANCH  15  16
ENDBRANCH  14  15
ENDBRANCH  13  14
ENDBRANCH  12  13
ENDBRANCH  11  12
ENDBRANCH  10  11
ENDBRANCH   8   9
ENDBRANCH   7   8
ENDBRANCH   5   6
ENDBRANCH   4   5
ENDBRANCH   2   3
TORSDOF 12
ENDMDL
MODEL       38
REMARK 921   NORMALIZED FREE ENERGY PREDICTED BY IDOCK:   -4.68 KCAL/MOL
REMARK 922        TOTAL FREE ENERGY PREDICTED BY IDOCK:   -9.81 KCAL/MOL
REMARK 923 INTER-LIGAND FREE ENERGY PREDICTED BY IDOCK:   -8.21 KCAL/MOL
REMARK 924 INTRA-LIGAND FREE ENERGY PREDICTED BY IDOCK:   -1.60 KCAL/MOL
REMARK 927      BINDING AFFINITY PREDICTED BY RF-SCORE:    0.00 PKD
ROOT
HETATM    1  C   UNL     1      -8.283   7.843  71.100  1.00  0.00    -0.109 C  
HETATM    2  C   UNL     1      -9.392   6.879  71.490  1.00  0.00    -0.155 C  
ENDROOT
BRANCH   2   3
HETATM    3  C   UNL     1     -10.328   6.614  70.345  1.00  0.00    -0.231 C  
HETATM    4  C   UNL     1     -11.666   6.528  70.430  1.00  0.00    -0.439 C  
BRANCH   4   5
HETATM    5  C   UNL     1     -12.445   6.651  71.709  1.00  0.00    -0.360 C  
BRANCH   5   6
HETATM    6  C   UNL     1     -13.825   7.203  71.490  1.00  0.00    -0.421 C  
HETATM    7  C   UNL     1     -14.234   8.431  71.854  1.00  0.00    -0.541 C  
BRANCH   7   8
HETATM    8  C   UNL     1     -13.367   9.420  72.578  1.00  0.00    -0.420 C  
BRANCH   8   9
HETATM    9  C   UNL     1     -13.255  10.725  71.847  1.00  0.00    -0.524 C  
HETATM   10  C   UNL     1     -12.301  11.023  70.947  1.00  0.00    -0.503 C  
BRANCH  10  11
HETATM   11  C   UNL     1     -11.252  10.045  70.501  1.00  0.00    -0.408 C  
BRANCH  11  12
HETATM   12  C   UNL     1     -10.635  10.417  69.157  1.00  0.00    -0.255 C  
BRANCH  12  13
HETATM   13  C   UNL     1     -11.600  11.289  68.353  1.00  0.00    -0.378 C  
BRANCH  13  14
HETATM   14  C   UNL     1     -10.921  12.579  67.904  1.00  0.00    -0.262 C  
BRANCH  14  15
HETATM   15  C   UNL     1     -11.806  13.372  66.942  1.00  0.00    -0.453 C  
BRANCH  15  16
HETATM   16  C   UNL     1     -11.192  13.387  65.543  1.00  0.00    -0.303 C  
BRANCH  16  17
HETATM   17  C   UNL     1     -11.880  14.402  64.636  1.00  0.00    -0.460 C  
HETATM   18  C   UNL     1     -11.154  15.729  64.632  1.00  0.00    -0.361 C  
HETATM   19  O   UNL     1     -10.138  15.984  65.260  1.00  0.00    -0.475 OA 
HETATM   20  O   UNL     1     -11.759  16.642  63.837  1.00  0.00    -1.153 OA 
ENDBRANCH  16  17
ENDBRANCH  15  16
ENDBRANCH  14  15
ENDBRANCH  13  14
ENDBRANCH  12  13
ENDBRANCH  11  12
ENDBRANCH  10  11
ENDBRANCH   8   9
ENDBRANCH   7   8
ENDBRANCH   5   6
ENDBRANCH   4   5
ENDBRANCH   2   3
TORSDOF 12
ENDMDL
MODEL       39
REMARK 921   NORMALIZED FREE ENERGY PREDICTED BY IDOCK:   -4.67 KCAL/MOL
REMARK 922        TOTAL FREE ENERGY PREDICTED BY IDOCK:   -9.80 KCAL/MOL
REMARK 923 INTER-LIGAND FREE ENERGY PREDICTED BY IDOCK:   -8.31 KCAL/MOL
REMARK 924 INTRA-LIGAND FREE ENERGY PREDICTED BY IDOCK:   -1.48 KCAL/MOL
REMARK 927      BINDING AFFINITY PREDICTED BY RF-SCORE:    0.00 PKD
ROOT
HETATM    1  C   UNL     1     -11.282  12.293  63.803  1.00  0.00    -0.510 C  
HETATM    2  C   UNL     1     -10.763  12.932  65.081  1.00  0.00    -0.326 C  
ENDROOT
BRANCH   2   3
HETATM    3  C   UNL     1     -11.416  12.348  66.302  1.00  0.00    -0.423 C  
HETATM    4  C   UNL     1     -11.812  13.039  67.384  1.00  0.00    -0.411 C  
BRANCH   4   5
HETATM    5  C   UNL     1     -11.629  14.519  67.561  1.00  0.00    -0.403 C  
BRANCH   5   6
HETATM    6  C   UNL     1     -10.620  14.850  68.624  1.00  0.00    -0.251 C  
HETATM    7  C   UNL     1     -10.912  15.317  69.850  1.00  0.00    -0.303 C  
BRANCH   7   8
HETATM    8  C   UNL     1     -12.307  15.618  70.319  1.00  0.00    -0.402 C  
BRANCH   8   9
HETATM    9  C   UNL     1     -12.393  15.742  71.812  1.00  0.00    -0.523 C  
HETATM   10  C   UNL     1     -13.177  14.988  72.603  1.00  0.00    -0.528 C  
BRANCH  10  11
HETATM   11  C   UNL     1     -14.026  13.860  72.090  1.00  0.00    -0.639 C  
BRANCH  11  12
HETATM   12  C   UNL     1     -13.346  12.502  72.226  1.00  0.00    -0.475 C  
BRANCH  12  13
HETATM   13  C   UNL     1     -12.543  12.182  70.964  1.00  0.00    -0.359 C  
BRANCH  13  14
HETATM   14  C   UNL     1     -12.428  10.674  70.763  1.00  0.00    -0.480 C  
BRANCH  14  15
HETATM   15  C   UNL     1     -13.131   9.904  71.880  1.00  0.00    -0.559 C  
BRANCH  15  16
HETATM   16  C   UNL     1     -12.322   8.669  72.269  1.00  0.00    -0.449 C  
BRANCH  16  17
HETATM   17  C   UNL     1     -12.560   7.511  71.304  1.00  0.00    -0.345 C  
HETATM   18  C   UNL     1     -11.324   7.202  70.489  1.00  0.00    -0.297 C  
HETATM   19  O   UNL     1     -10.254   7.782  70.574  1.00  0.00    -0.199 OA 
HETATM   20  O   UNL     1     -11.524   6.182  69.622  1.00  0.00    -0.429 OA 
ENDBRANCH  16  17
ENDBRANCH  15  16
ENDBRANCH  14  15
ENDBRANCH  13  14
ENDBRANCH  12  13
ENDBRANCH  11  12
ENDBRANCH  10  11
ENDBRANCH   8   9
ENDBRANCH   7   8
ENDBRANCH   5   6
ENDBRANCH   4   5
ENDBRANCH   2   3
TORSDOF 12
ENDMDL
MODEL       40
REMARK 921   NORMALIZED FREE ENERGY PREDICTED BY IDOCK:   -4.66 KCAL/MOL
REMARK 922        TOTAL FREE ENERGY PREDICTED BY IDOCK:   -9.78 KCAL/MOL
REMARK 923 INTER-LIGAND FREE ENERGY PREDICTED BY IDOCK:   -7.63 KCAL/MOL
REMARK 924 INTRA-LIGAND FREE ENERGY PREDICTED BY IDOCK:   -2.15 KCAL/MOL
REMARK 927      BINDING AFFINITY PREDICTED BY RF-SCORE:    0.00 PKD
ROOT
HETATM    1  C   UNL     1      -9.780  14.134  67.882  1.00  0.00    -0.224 C  
HETATM    2  C   UNL     1     -10.590  14.718  66.735  1.00  0.00    -0.302 C  
ENDROOT
BRANCH   2   3
HETATM    3  C   UNL     1     -12.008  14.223  66.744  1.00  0.00    -0.462 C  
HETATM    4  C   UNL     1     -12.724  13.875  65.662  1.00  0.00    -0.534 C  
BRANCH   4   5
HETATM    5  C   UNL     1     -12.223  13.963  64.248  1.00  0.00    -0.447 C  
BRANCH   5   6
HETATM    6  C   UNL     1     -12.266  12.639  63.540  1.00  0.00    -0.638 C  
HETATM    7  C   UNL     1     -11.334  11.675  63.644  1.00  0.00    -0.485 C  
BRANCH   7   8
HETATM    8  C   UNL     1     -10.082  11.808  64.462  1.00  0.00    -0.312 C  
BRANCH   8   9
HETATM    9  C   UNL     1      -9.673  10.512  65.097  1.00  0.00    -0.341 C  
HETATM   10  C   UNL     1     -10.121  10.061  66.282  1.00  0.00    -0.310 C  
BRANCH  10  11
HETATM   11  C   UNL     1     -11.159  10.777  67.100  1.00  0.00    -0.297 C  
BRANCH  11  12
HETATM   12  C   UNL     1     -10.940  10.615  68.600  1.00  0.00    -0.291 C  
BRANCH  12  13
HETATM   13  C   UNL     1     -12.031  11.352  69.378  1.00  0.00    -0.407 C  
BRANCH  13  14
HETATM   14  C   UNL     1     -12.001  10.966  70.853  1.00  0.00    -0.416 C  
BRANCH  14  15
HETATM   15  C   UNL     1     -13.143  10.014  71.207  1.00  0.00    -0.493 C  
BRANCH  15  16
HETATM   16  C   UNL     1     -12.626   8.850  72.049  1.00  0.00    -0.460 C  
BRANCH  16  17
HETATM   17  C   UNL     1     -11.171   8.522  71.727  1.00  0.00    -0.379 C  
HETATM   18  C   UNL     1     -11.056   7.282  70.868  1.00  0.00    -0.261 C  
HETATM   19  O   UNL     1     -11.992   6.611  70.462  1.00  0.00    -0.400 OA 
HETATM   20  O   UNL     1      -9.770   6.975  70.581  1.00  0.00    -0.172 OA 
ENDBRANCH  16  17
ENDBRANCH  15  16
ENDBRANCH  14  15
ENDBRANCH  13  14
ENDBRANCH  12  13
ENDBRANCH  11  12
ENDBRANCH  10  11
ENDBRANCH   8   9
ENDBRANCH   7   8
ENDBRANCH   5   6
ENDBRANCH   4   5
ENDBRANCH   2   3
TORSDOF 12
ENDMDL
MODEL       41
REMARK 921   NORMALIZED FREE ENERGY PREDICTED BY IDOCK:   -4.66 KCAL/MOL
REMARK 922        TOTAL FREE ENERGY PREDICTED BY IDOCK:   -9.78 KCAL/MOL
REMARK 923 INTER-LIGAND FREE ENERGY PREDICTED BY IDOCK:   -8.05 KCAL/MOL
REMARK 924 INTRA-LIGAND FREE ENERGY PREDICTED BY IDOCK:   -1.72 KCAL/MOL
REMARK 927      BINDING AFFINITY PREDICTED BY RF-SCORE:    0.00 PKD
ROOT
HETATM    1  C   UNL     1     -12.419  15.271  73.790  1.00  0.00    -0.746 C  
HETATM    2  C   UNL     1     -13.497  15.284  72.718  1.00  0.00    -0.619 C  
ENDROOT
BRANCH   2   3
HETATM    3  C   UNL     1     -14.013  13.903  72.428  1.00  0.00    -0.633 C  
HETATM    4  C   UNL     1     -13.413  12.992  71.644  1.00  0.00    -0.286 C  
BRANCH   4   5
HETATM    5  C   UNL     1     -12.133  13.227  70.894  1.00  0.00    -0.242 C  
BRANCH   5   6
HETATM    6  C   UNL     1     -12.349  13.975  69.610  1.00  0.00    -0.309 C  
HETATM    7  C   UNL     1     -11.680  15.080  69.236  1.00  0.00    -0.349 C  
BRANCH   7   8
HETATM    8  C   UNL     1     -10.638  15.753  70.083  1.00  0.00    -0.334 C  
BRANCH   8   9
HETATM    9  C   UNL     1      -9.297  15.798  69.411  1.00  0.00    -0.269 C  
HETATM   10  C   UNL     1      -8.824  16.841  68.706  1.00  0.00    -0.258 C  
BRANCH  10  11
HETATM   11  C   UNL     1      -9.563  18.141  68.559  1.00  0.00    -0.349 C  
BRANCH  11  12
HETATM   12  C   UNL     1     -10.589  18.110  67.431  1.00  0.00    -0.406 C  
BRANCH  12  13
HETATM   13  C   UNL     1      -9.916  17.728  66.112  1.00  0.00    -0.283 C  
BRANCH  13  14
HETATM   14  C   UNL     1     -10.774  16.735  65.334  1.00  0.00    -0.201 C  
BRANCH  14  15
HETATM   15  C   UNL     1     -10.676  15.328  65.922  1.00  0.00    -0.340 C  
BRANCH  15  16
HETATM   16  C   UNL     1     -10.574  14.290  64.807  1.00  0.00    -0.434 C  
BRANCH  16  17
HETATM   17  C   UNL     1     -11.951  13.860  64.308  1.00  0.00    -0.477 C  
HETATM   18  C   UNL     1     -12.021  12.366  64.082  1.00  0.00    -0.435 C  
HETATM   19  O   UNL     1     -11.110  11.576  64.274  1.00  0.00    -0.342 OA 
HETATM   20  O   UNL     1     -13.234  11.972  63.631  1.00  0.00    -0.737 OA 
ENDBRANCH  16  17
ENDBRANCH  15  16
ENDBRANCH  14  15
ENDBRANCH  13  14
ENDBRANCH  12  13
ENDBRANCH  11  12
ENDBRANCH  10  11
ENDBRANCH   8   9
ENDBRANCH   7   8
ENDBRANCH   5   6
ENDBRANCH   4   5
ENDBRANCH   2   3
TORSDOF 12
ENDMDL
MODEL       42
REMARK 921   NORMALIZED FREE ENERGY PREDICTED BY IDOCK:   -4.66 KCAL/MOL
REMARK 922        TOTAL FREE ENERGY PREDICTED BY IDOCK:   -9.78 KCAL/MOL
REMARK 923 INTER-LIGAND FREE ENERGY PREDICTED BY IDOCK:   -8.53 KCAL/MOL
REMARK 924 INTRA-LIGAND FREE ENERGY PREDICTED BY IDOCK:   -1.25 KCAL/MOL
REMARK 927      BINDING AFFINITY PREDICTED BY RF-SCORE:    0.00 PKD
ROOT
HETATM    1  C   UNL     1     -11.019   6.181  69.326  1.00  0.00    -0.450 C  
HETATM    2  C   UNL     1     -11.292   6.422  70.802  1.00  0.00    -0.411 C  
ENDROOT
BRANCH   2   3
HETATM    3  C   UNL     1     -10.158   7.148  71.468  1.00  0.00    -0.197 C  
HETATM    4  C   UNL     1     -10.060   8.480  71.616  1.00  0.00    -0.338 C  
BRANCH   4   5
HETATM    5  C   UNL     1     -11.066   9.469  71.098  1.00  0.00    -0.450 C  
BRANCH   5   6
HETATM    6  C   UNL     1     -12.383   9.375  71.813  1.00  0.00    -0.471 C  
HETATM    7  C   UNL     1     -13.232  10.399  72.010  1.00  0.00    -0.497 C  
BRANCH   7   8
HETATM    8  C   UNL     1     -12.955  11.809  71.573  1.00  0.00    -0.446 C  
BRANCH   8   9
HETATM    9  C   UNL     1     -13.886  12.798  72.211  1.00  0.00    -0.395 C  
HETATM   10  C   UNL     1     -13.583  14.082  72.471  1.00  0.00    -0.670 C  
BRANCH  10  11
HETATM   11  C   UNL     1     -12.277  14.718  72.084  1.00  0.00    -0.396 C  
BRANCH  11  12
HETATM   12  C   UNL     1     -12.357  15.462  70.755  1.00  0.00    -0.447 C  
BRANCH  12  13
HETATM   13  C   UNL     1     -11.376  14.858  69.749  1.00  0.00    -0.314 C  
BRANCH  13  14
HETATM   14  C   UNL     1     -12.116  14.047  68.691  1.00  0.00    -0.332 C  
BRANCH  14  15
HETATM   15  C   UNL     1     -11.394  12.735  68.385  1.00  0.00    -0.331 C  
BRANCH  15  16
HETATM   16  C   UNL     1     -11.384  12.468  66.881  1.00  0.00    -0.383 C  
BRANCH  16  17
HETATM   17  C   UNL     1     -11.908  13.665  66.093  1.00  0.00    -0.424 C  
HETATM   18  C   UNL     1     -12.223  13.293  64.661  1.00  0.00    -0.407 C  
HETATM   19  O   UNL     1     -12.093  12.183  64.170  1.00  0.00    -0.400 OA 
HETATM   20  O   UNL     1     -12.681  14.348  63.947  1.00  0.00    -0.771 OA 
ENDBRANCH  16  17
ENDBRANCH  15  16
ENDBRANCH  14  15
ENDBRANCH  13  14
ENDBRANCH  12  13
ENDBRANCH  11  12
ENDBRANCH  10  11
ENDBRANCH   8   9
ENDBRANCH   7   8
ENDBRANCH   5   6
ENDBRANCH   4   5
ENDBRANCH   2   3
TORSDOF 12
ENDMDL
MODEL       43
REMARK 921   NORMALIZED FREE ENERGY PREDICTED BY IDOCK:   -4.66 KCAL/MOL
REMARK 922        TOTAL FREE ENERGY PREDICTED BY IDOCK:   -9.77 KCAL/MOL
REMARK 923 INTER-LIGAND FREE ENERGY PREDICTED BY IDOCK:   -8.36 KCAL/MOL
REMARK 924 INTRA-LIGAND FREE ENERGY PREDICTED BY IDOCK:   -1.41 KCAL/MOL
REMARK 927      BINDING AFFINITY PREDICTED BY RF-SCORE:    0.00 PKD
ROOT
HETATM    1  C   UNL     1     -11.977  16.011  72.098  1.00  0.00    -0.629 C  
HETATM    2  C   UNL     1     -13.123  15.386  71.319  1.00  0.00    -0.564 C  
ENDROOT
BRANCH   2   3
HETATM    3  C   UNL     1     -13.986  14.522  72.194  1.00  0.00    -0.597 C  
HETATM    4  C   UNL     1     -13.906  13.185  72.299  1.00  0.00    -0.586 C  
BRANCH   4   5
HETATM    5  C   UNL     1     -12.950  12.328  71.519  1.00  0.00    -0.390 C  
BRANCH   5   6
HETATM    6  C   UNL     1     -13.158  10.862  71.769  1.00  0.00    -0.564 C  
HETATM    7  C   UNL     1     -12.271   9.893  71.479  1.00  0.00    -0.505 C  
BRANCH   7   8
HETATM    8  C   UNL     1     -10.948  10.144  70.815  1.00  0.00    -0.313 C  
BRANCH   8   9
HETATM    9  C   UNL     1     -10.849   9.484  69.472  1.00  0.00    -0.243 C  
HETATM   10  C   UNL     1     -11.108  10.086  68.297  1.00  0.00    -0.247 C  
BRANCH  10  11
HETATM   11  C   UNL     1     -11.467  11.540  68.177  1.00  0.00    -0.385 C  
BRANCH  11  12
HETATM   12  C   UNL     1     -10.931  12.174  66.898  1.00  0.00    -0.317 C  
BRANCH  12  13
HETATM   13  C   UNL     1     -12.079  12.757  66.073  1.00  0.00    -0.458 C  
BRANCH  13  14
HETATM   14  C   UNL     1     -12.040  14.282  66.090  1.00  0.00    -0.424 C  
BRANCH  14  15
HETATM   15  C   UNL     1     -11.060  14.829  65.053  1.00  0.00    -0.412 C  
BRANCH  15  16
HETATM   16  C   UNL     1     -10.275  16.005  65.629  1.00  0.00    -0.412 C  
BRANCH  16  17
HETATM   17  C   UNL     1     -10.316  16.019  67.154  1.00  0.00    -0.295 C  
HETATM   18  C   UNL     1     -10.622  17.400  67.691  1.00  0.00    -0.350 C  
HETATM   19  O   UNL     1     -10.823  18.396  67.015  1.00  0.00    -0.345 OA 
HETATM   20  O   UNL     1     -10.653  17.428  69.044  1.00  0.00    -0.323 OA 
ENDBRANCH  16  17
ENDBRANCH  15  16
ENDBRANCH  14  15
ENDBRANCH  13  14
ENDBRANCH  12  13
ENDBRANCH  11  12
ENDBRANCH  10  11
ENDBRANCH   8   9
ENDBRANCH   7   8
ENDBRANCH   5   6
ENDBRANCH   4   5
ENDBRANCH   2   3
TORSDOF 12
ENDMDL
MODEL       44
REMARK 921   NORMALIZED FREE ENERGY PREDICTED BY IDOCK:   -4.64 KCAL/MOL
REMARK 922        TOTAL FREE ENERGY PREDICTED BY IDOCK:   -9.75 KCAL/MOL
REMARK 923 INTER-LIGAND FREE ENERGY PREDICTED BY IDOCK:   -7.30 KCAL/MOL
REMARK 924 INTRA-LIGAND FREE ENERGY PREDICTED BY IDOCK:   -2.44 KCAL/MOL
REMARK 927      BINDING AFFINITY PREDICTED BY RF-SCORE:    0.00 PKD
ROOT
HETATM    1  C   UNL     1      -9.462   7.928  69.809  1.00  0.00    -0.163 C  
HETATM    2  C   UNL     1      -9.338   9.004  70.876  1.00  0.00    -0.326 C  
ENDROOT
BRANCH   2   3
HETATM    3  C   UNL     1     -10.043   8.617  72.144  1.00  0.00    -0.388 C  
HETATM    4  C   UNL     1     -11.374   8.600  72.326  1.00  0.00    -0.411 C  
BRANCH   4   5
HETATM    5  C   UNL     1     -12.379   9.007  71.287  1.00  0.00    -0.361 C  
BRANCH   5   6
HETATM    6  C   UNL     1     -13.017  10.332  71.592  1.00  0.00    -0.570 C  
HETATM    7  C   UNL     1     -12.687  11.502  71.016  1.00  0.00    -0.426 C  
BRANCH   7   8
HETATM    8  C   UNL     1     -11.589  11.653  70.003  1.00  0.00    -0.338 C  
BRANCH   8   9
HETATM    9  C   UNL     1     -11.989  11.152  68.647  1.00  0.00    -0.289 C  
HETATM   10  C   UNL     1     -11.135  10.878  67.644  1.00  0.00    -0.376 C  
BRANCH  10  11
HETATM   11  C   UNL     1      -9.642  10.975  67.782  1.00  0.00    -0.180 C  
BRANCH  11  12
HETATM   12  C   UNL     1      -9.043  12.086  66.927  1.00  0.00    -0.196 C  
BRANCH  12  13
HETATM   13  C   UNL     1      -8.974  13.390  67.724  1.00  0.00    -0.205 C  
BRANCH  13  14
HETATM   14  C   UNL     1      -9.751  14.498  67.021  1.00  0.00    -0.247 C  
BRANCH  14  15
HETATM   15  C   UNL     1     -11.174  14.616  67.565  1.00  0.00    -0.343 C  
BRANCH  15  16
HETATM   16  C   UNL     1     -12.188  14.202  66.501  1.00  0.00    -0.463 C  
BRANCH  16  17
HETATM   17  C   UNL     1     -11.532  14.018  65.136  1.00  0.00    -0.328 C  
HETATM   18  C   UNL     1     -12.260  12.987  64.302  1.00  0.00    -0.396 C  
HETATM   19  O   UNL     1     -13.254  12.368  64.647  1.00  0.00    -0.822 OA 
HETATM   20  O   UNL     1     -11.683  12.807  63.091  1.00  0.00    -0.472 OA 
ENDBRANCH  16  17
ENDBRANCH  15  16
ENDBRANCH  14  15
ENDBRANCH  13  14
ENDBRANCH  12  13
ENDBRANCH  11  12
ENDBRANCH  10  11
ENDBRANCH   8   9
ENDBRANCH   7   8
ENDBRANCH   5   6
ENDBRANCH   4   5
ENDBRANCH   2   3
TORSDOF 12
ENDMDL
MODEL       45
REMARK 921   NORMALIZED FREE ENERGY PREDICTED BY IDOCK:   -4.64 KCAL/MOL
REMARK 922        TOTAL FREE ENERGY PREDICTED BY IDOCK:   -9.74 KCAL/MOL
REMARK 923 INTER-LIGAND FREE ENERGY PREDICTED BY IDOCK:   -8.04 KCAL/MOL
REMARK 924 INTRA-LIGAND FREE ENERGY PREDICTED BY IDOCK:   -1.70 KCAL/MOL
REMARK 927      BINDING AFFINITY PREDICTED BY RF-SCORE:    0.00 PKD
ROOT
HETATM    1  C   UNL     1     -13.955  13.862  72.378  1.00  0.00    -0.633 C  
HETATM    2  C   UNL     1     -13.859  15.365  72.175  1.00  0.00    -0.636 C  
ENDROOT
BRANCH   2   3
HETATM    3  C   UNL     1     -12.432  15.838  72.177  1.00  0.00    -0.533 C  
HETATM    4  C   UNL     1     -11.616  15.869  71.111  1.00  0.00    -0.481 C  
BRANCH   4   5
HETATM    5  C   UNL     1     -11.995  15.395  69.736  1.00  0.00    -0.381 C  
BRANCH   5   6
HETATM    6  C   UNL     1     -11.636  13.955  69.506  1.00  0.00    -0.358 C  
HETATM    7  C   UNL     1     -11.638  13.338  68.311  1.00  0.00    -0.369 C  
BRANCH   7   8
HETATM    8  C   UNL     1     -12.047  14.003  67.028  1.00  0.00    -0.455 C  
BRANCH   8   9
HETATM    9  C   UNL     1     -10.874  14.309  66.144  1.00  0.00    -0.310 C  
HETATM   10  C   UNL     1     -10.834  14.092  64.817  1.00  0.00    -0.430 C  
BRANCH  10  11
HETATM   11  C   UNL     1     -12.003  13.573  64.029  1.00  0.00    -0.501 C  
BRANCH  11  12
HETATM   12  C   UNL     1     -11.810  12.131  63.571  1.00  0.00    -0.597 C  
BRANCH  12  13
HETATM   13  C   UNL     1     -10.327  11.759  63.603  1.00  0.00    -0.476 C  
BRANCH  13  14
HETATM   14  C   UNL     1     -10.104  10.495  64.427  1.00  0.00    -0.395 C  
BRANCH  14  15
HETATM   15  C   UNL     1     -10.428  10.723  65.903  1.00  0.00    -0.270 C  
BRANCH  15  16
HETATM   16  C   UNL     1      -9.977   9.528  66.740  1.00  0.00    -0.297 C  
BRANCH  16  17
HETATM   17  C   UNL     1     -10.660   9.503  68.104  1.00  0.00    -0.265 C  
HETATM   18  C   UNL     1      -9.829  10.201  69.157  1.00  0.00    -0.214 C  
HETATM   19  O   UNL     1      -8.747  10.734  68.969  1.00  0.00    -0.161 OA 
HETATM   20  O   UNL     1     -10.420  10.179  70.374  1.00  0.00    -0.280 OA 
ENDBRANCH  16  17
ENDBRANCH  15  16
ENDBRANCH  14  15
ENDBRANCH  13  14
ENDBRANCH  12  13
ENDBRANCH  11  12
ENDBRANCH  10  11
ENDBRANCH   8   9
ENDBRANCH   7   8
ENDBRANCH   5   6
ENDBRANCH   4   5
ENDBRANCH   2   3
TORSDOF 12
ENDMDL
MODEL       46
REMARK 921   NORMALIZED FREE ENERGY PREDICTED BY IDOCK:   -4.64 KCAL/MOL
REMARK 922        TOTAL FREE ENERGY PREDICTED BY IDOCK:   -9.74 KCAL/MOL
REMARK 923 INTER-LIGAND FREE ENERGY PREDICTED BY IDOCK:   -7.06 KCAL/MOL
REMARK 924 INTRA-LIGAND FREE ENERGY PREDICTED BY IDOCK:   -2.68 KCAL/MOL
REMARK 927      BINDING AFFINITY PREDICTED BY RF-SCORE:    0.00 PKD
ROOT
HETATM    1  C   UNL     1      -7.527  14.454  68.904  1.00  0.00    -0.132 C  
HETATM    2  C   UNL     1      -7.585  14.451  67.384  1.00  0.00    -0.196 C  
ENDROOT
BRANCH   2   3
HETATM    3  C   UNL     1      -8.105  15.752  66.844  1.00  0.00    -0.292 C  
HETATM    4  C   UNL     1      -9.201  15.901  66.082  1.00  0.00    -0.384 C  
BRANCH   4   5
HETATM    5  C   UNL     1     -10.071  14.770  65.613  1.00  0.00    -0.393 C  
BRANCH   5   6
HETATM    6  C   UNL     1     -11.239  15.243  64.797  1.00  0.00    -0.405 C  
HETATM    7  C   UNL     1     -12.326  14.508  64.500  1.00  0.00    -0.434 C  
BRANCH   7   8
HETATM    8  C   UNL     1     -12.503  13.075  64.915  1.00  0.00    -0.512 C  
BRANCH   8   9
HETATM    9  C   UNL     1     -12.309  12.121  63.773  1.00  0.00    -0.635 C  
HETATM   10  C   UNL     1     -11.163  11.472  63.500  1.00  0.00    -0.412 C  
BRANCH  10  11
HETATM   11  C   UNL     1      -9.935  11.567  64.359  1.00  0.00    -0.311 C  
BRANCH  11  12
HETATM   12  C   UNL     1      -9.936  10.556  65.501  1.00  0.00    -0.342 C  
BRANCH  12  13
HETATM   13  C   UNL     1      -9.937  11.277  66.849  1.00  0.00    -0.238 C  
BRANCH  13  14
HETATM   14  C   UNL     1     -11.128  10.841  67.696  1.00  0.00    -0.384 C  
BRANCH  14  15
HETATM   15  C   UNL     1     -11.925  12.043  68.204  1.00  0.00    -0.231 C  
BRANCH  15  16
HETATM   16  C   UNL     1     -10.985  13.102  68.777  1.00  0.00    -0.298 C  
BRANCH  16  17
HETATM   17  C   UNL     1     -11.699  14.432  68.993  1.00  0.00    -0.345 C  
HETATM   18  C   UNL     1     -12.339  14.506  70.362  1.00  0.00    -0.338 C  
HETATM   19  O   UNL     1     -12.300  13.630  71.212  1.00  0.00    -0.345 OA 
HETATM   20  O   UNL     1     -12.983  15.678  70.565  1.00  0.00    -0.429 OA 
ENDBRANCH  16  17
ENDBRANCH  15  16
ENDBRANCH  14  15
ENDBRANCH  13  14
ENDBRANCH  12  13
ENDBRANCH  11  12
ENDBRANCH  10  11
ENDBRANCH   8   9
ENDBRANCH   7   8
ENDBRANCH   5   6
ENDBRANCH   4   5
ENDBRANCH   2   3
TORSDOF 12
ENDMDL
MODEL       47
REMARK 921   NORMALIZED FREE ENERGY PREDICTED BY IDOCK:   -4.64 KCAL/MOL
REMARK 922        TOTAL FREE ENERGY PREDICTED BY IDOCK:   -9.74 KCAL/MOL
REMARK 923 INTER-LIGAND FREE ENERGY PREDICTED BY IDOCK:   -8.10 KCAL/MOL
REMARK 924 INTRA-LIGAND FREE ENERGY PREDICTED BY IDOCK:   -1.64 KCAL/MOL
REMARK 927      BINDING AFFINITY PREDICTED BY RF-SCORE:    0.00 PKD
ROOT
HETATM    1  C   UNL     1     -13.887  13.779  72.331  1.00  0.00    -0.681 C  
HETATM    2  C   UNL     1     -13.699  15.284  72.213  1.00  0.00    -0.614 C  
ENDROOT
BRANCH   2   3
HETATM    3  C   UNL     1     -12.247  15.660  72.128  1.00  0.00    -0.528 C  
HETATM    4  C   UNL     1     -11.552  15.850  70.995  1.00  0.00    -0.465 C  
BRANCH   4   5
HETATM    5  C   UNL     1     -12.117  15.678  69.613  1.00  0.00    -0.329 C  
BRANCH   5   6
HETATM    6  C   UNL     1     -11.046  15.566  68.565  1.00  0.00    -0.307 C  
HETATM    7  C   UNL     1     -11.057  14.699  67.538  1.00  0.00    -0.319 C  
BRANCH   7   8
HETATM    8  C   UNL     1     -12.135  13.678  67.317  1.00  0.00    -0.385 C  
BRANCH   8   9
HETATM    9  C   UNL     1     -11.601  12.276  67.306  1.00  0.00    -0.427 C  
HETATM   10  C   UNL     1     -11.507  11.480  68.387  1.00  0.00    -0.364 C  
BRANCH  10  11
HETATM   11  C   UNL     1     -11.998  11.877  69.750  1.00  0.00    -0.377 C  
BRANCH  11  12
HETATM   12  C   UNL     1     -11.887  10.746  70.767  1.00  0.00    -0.443 C  
BRANCH  12  13
HETATM   13  C   UNL     1     -13.276  10.227  71.137  1.00  0.00    -0.429 C  
BRANCH  13  14
HETATM   14  C   UNL     1     -13.179   9.092  72.152  1.00  0.00    -0.524 C  
BRANCH  14  15
HETATM   15  C   UNL     1     -11.755   8.545  72.246  1.00  0.00    -0.443 C  
BRANCH  15  16
HETATM   16  C   UNL     1     -11.742   7.042  71.976  1.00  0.00    -0.332 C  
BRANCH  16  17
HETATM   17  C   UNL     1     -12.031   6.729  70.511  1.00  0.00    -0.385 C  
HETATM   18  C   UNL     1     -10.761   6.432  69.744  1.00  0.00    -0.283 C  
HETATM   19  O   UNL     1      -9.634   6.429  70.212  1.00  0.00    -0.163 OA 
HETATM   20  O   UNL     1     -11.002   6.161  68.440  1.00  0.00    -0.297 OA 
ENDBRANCH  16  17
ENDBRANCH  15  16
ENDBRANCH  14  15
ENDBRANCH  13  14
ENDBRANCH  12  13
ENDBRANCH  11  12
ENDBRANCH  10  11
ENDBRANCH   8   9
ENDBRANCH   7   8
ENDBRANCH   5   6
ENDBRANCH   4   5
ENDBRANCH   2   3
TORSDOF 12
ENDMDL
MODEL       48
REMARK 921   NORMALIZED FREE ENERGY PREDICTED BY IDOCK:   -4.64 KCAL/MOL
REMARK 922        TOTAL FREE ENERGY PREDICTED BY IDOCK:   -9.73 KCAL/MOL
REMARK 923 INTER-LIGAND FREE ENERGY PREDICTED BY IDOCK:   -7.99 KCAL/MOL
REMARK 924 INTRA-LIGAND FREE ENERGY PREDICTED BY IDOCK:   -1.74 KCAL/MOL
REMARK 927      BINDING AFFINITY PREDICTED BY RF-SCORE:    0.00 PKD
ROOT
HETATM    1  C   UNL     1      -8.924   4.711  71.521  1.00  0.00    -0.165 C  
HETATM    2  C   UNL     1      -9.219   6.055  70.874  1.00  0.00    -0.165 C  
ENDROOT
BRANCH   2   3
HETATM    3  C   UNL     1     -10.343   5.962  69.881  1.00  0.00    -0.307 C  
HETATM    4  C   UNL     1     -11.627   6.275  70.120  1.00  0.00    -0.385 C  
BRANCH   4   5
HETATM    5  C   UNL     1     -12.156   6.741  71.447  1.00  0.00    -0.415 C  
BRANCH   5   6
HETATM    6  C   UNL     1     -13.608   7.119  71.386  1.00  0.00    -0.368 C  
HETATM    7  C   UNL     1     -14.114   8.311  71.747  1.00  0.00    -0.510 C  
BRANCH   7   8
HETATM    8  C   UNL     1     -13.289   9.432  72.310  1.00  0.00    -0.539 C  
BRANCH   8   9
HETATM    9  C   UNL     1     -13.158  10.581  71.354  1.00  0.00    -0.509 C  
HETATM   10  C   UNL     1     -12.083  10.821  70.582  1.00  0.00    -0.467 C  
BRANCH  10  11
HETATM   11  C   UNL     1     -10.887   9.913  70.527  1.00  0.00    -0.391 C  
BRANCH  11  12
HETATM   12  C   UNL     1     -10.086  10.074  69.239  1.00  0.00    -0.226 C  
BRANCH  12  13
HETATM   13  C   UNL     1     -11.010   9.980  68.024  1.00  0.00    -0.296 C  
BRANCH  13  14
HETATM   14  C   UNL     1     -10.209   9.717  66.753  1.00  0.00    -0.308 C  
BRANCH  14  15
HETATM   15  C   UNL     1     -10.384  10.846  65.737  1.00  0.00    -0.303 C  
BRANCH  15  16
HETATM   16  C   UNL     1     -11.222  11.975  66.334  1.00  0.00    -0.389 C  
BRANCH  16  17
HETATM   17  C   UNL     1     -11.304  13.174  65.394  1.00  0.00    -0.323 C  
HETATM   18  C   UNL     1     -12.474  13.057  64.443  1.00  0.00    -0.337 C  
HETATM   19  O   UNL     1     -13.274  12.135  64.411  1.00  0.00    -0.758 OA 
HETATM   20  O   UNL     1     -12.554  14.111  63.597  1.00  0.00    -0.831 OA 
ENDBRANCH  16  17
ENDBRANCH  15  16
ENDBRANCH  14  15
ENDBRANCH  13  14
ENDBRANCH  12  13
ENDBRANCH  11  12
ENDBRANCH  10  11
ENDBRANCH   8   9
ENDBRANCH   7   8
ENDBRANCH   5   6
ENDBRANCH   4   5
ENDBRANCH   2   3
TORSDOF 12
ENDMDL
MODEL       49
REMARK 921   NORMALIZED FREE ENERGY PREDICTED BY IDOCK:   -4.63 KCAL/MOL
REMARK 922        TOTAL FREE ENERGY PREDICTED BY IDOCK:   -9.72 KCAL/MOL
REMARK 923 INTER-LIGAND FREE ENERGY PREDICTED BY IDOCK:   -8.00 KCAL/MOL
REMARK 924 INTRA-LIGAND FREE ENERGY PREDICTED BY IDOCK:   -1.71 KCAL/MOL
REMARK 927      BINDING AFFINITY PREDICTED BY RF-SCORE:    0.00 PKD
ROOT
HETATM    1  C   UNL     1     -12.166  15.475  70.315  1.00  0.00    -0.432 C  
HETATM    2  C   UNL     1     -12.219  13.969  70.522  1.00  0.00    -0.435 C  
ENDROOT
BRANCH   2   3
HETATM    3  C   UNL     1     -13.073  13.598  71.702  1.00  0.00    -0.455 C  
HETATM    4  C   UNL     1     -13.322  12.348  72.126  1.00  0.00    -0.508 C  
BRANCH   4   5
HETATM    5  C   UNL     1     -12.808  11.105  71.456  1.00  0.00    -0.542 C  
BRANCH   5   6
HETATM    6  C   UNL     1     -13.732   9.935  71.631  1.00  0.00    -0.243 C  
HETATM    7  C   UNL     1     -13.367   8.719  72.076  1.00  0.00    -0.455 C  
BRANCH   7   8
HETATM    8  C   UNL     1     -11.954   8.347  72.424  1.00  0.00    -0.451 C  
BRANCH   8   9
HETATM    9  C   UNL     1     -11.281   7.573  71.329  1.00  0.00    -0.274 C  
HETATM   10  C   UNL     1     -10.222   8.005  70.620  1.00  0.00    -0.205 C  
BRANCH  10  11
HETATM   11  C   UNL     1      -9.525   9.308  70.887  1.00  0.00    -0.330 C  
BRANCH  11  12
HETATM   12  C   UNL     1      -9.137  10.041  69.608  1.00  0.00    -0.230 C  
BRANCH  12  13
HETATM   13  C   UNL     1     -10.385  10.384  68.793  1.00  0.00    -0.213 C  
BRANCH  13  14
HETATM   14  C   UNL     1     -10.233  11.741  68.113  1.00  0.00    -0.210 C  
BRANCH  14  15
HETATM   15  C   UNL     1     -11.548  12.204  67.487  1.00  0.00    -0.413 C  
BRANCH  15  16
HETATM   16  C   UNL     1     -11.514  12.013  65.972  1.00  0.00    -0.399 C  
BRANCH  16  17
HETATM   17  C   UNL     1     -12.485  12.951  65.262  1.00  0.00    -0.552 C  
HETATM   18  C   UNL     1     -11.770  14.140  64.659  1.00  0.00    -0.417 C  
HETATM   19  O   UNL     1     -10.568  14.347  64.711  1.00  0.00    -0.421 OA 
HETATM   20  O   UNL     1     -12.621  14.986  64.033  1.00  0.00    -0.817 OA 
ENDBRANCH  16  17
ENDBRANCH  15  16
ENDBRANCH  14  15
ENDBRANCH  13  14
ENDBRANCH  12  13
ENDBRANCH  11  12
ENDBRANCH  10  11
ENDBRANCH   8   9
ENDBRANCH   7   8
ENDBRANCH   5   6
ENDBRANCH   4   5
ENDBRANCH   2   3
TORSDOF 12
ENDMDL
MODEL       50
REMARK 921   NORMALIZED FREE ENERGY PREDICTED BY IDOCK:   -4.59 KCAL/MOL
REMARK 922        TOTAL FREE ENERGY PREDICTED BY IDOCK:   -9.66 KCAL/MOL
REMARK 923 INTER-LIGAND FREE ENERGY PREDICTED BY IDOCK:   -7.52 KCAL/MOL
REMARK 924 INTRA-LIGAND FREE ENERGY PREDICTED BY IDOCK:   -2.14 KCAL/MOL
REMARK 927      BINDING AFFINITY PREDICTED BY RF-SCORE:    0.00 PKD
ROOT
HETATM    1  C   UNL     1     -10.343  19.931  66.219  1.00  0.00    -0.608 C  
HETATM    2  C   UNL     1     -10.430  19.110  67.496  1.00  0.00    -0.549 C  
ENDROOT
BRANCH   2   3
HETATM    3  C   UNL     1      -9.090  18.971  68.162  1.00  0.00    -0.364 C  
HETATM    4  C   UNL     1      -8.066  18.228  67.713  1.00  0.00    -0.256 C  
BRANCH   4   5
HETATM    5  C   UNL     1      -8.111  17.377  66.476  1.00  0.00    -0.312 C  
BRANCH   5   6
HETATM    6  C   UNL     1      -8.145  15.909  66.790  1.00  0.00    -0.301 C  
HETATM    7  C   UNL     1      -9.249  15.140  66.781  1.00  0.00    -0.277 C  
BRANCH   7   8
HETATM    8  C   UNL     1     -10.627  15.662  66.495  1.00  0.00    -0.307 C  
BRANCH   8   9
HETATM    9  C   UNL     1     -10.955  15.638  65.031  1.00  0.00    -0.445 C  
HETATM   10  C   UNL     1     -11.866  14.830  64.459  1.00  0.00    -0.428 C  
BRANCH  10  11
HETATM   11  C   UNL     1     -12.735  13.884  65.238  1.00  0.00    -0.485 C  
BRANCH  11  12
HETATM   12  C   UNL     1     -12.809  12.498  64.607  1.00  0.00    -0.325 C  
BRANCH  12  13
HETATM   13  C   UNL     1     -11.800  12.382  63.463  1.00  0.00    -0.605 C  
BRANCH  13  14
HETATM   14  C   UNL     1     -10.812  11.250  63.725  1.00  0.00    -0.424 C  
BRANCH  14  15
HETATM   15  C   UNL     1      -9.713  11.679  64.696  1.00  0.00    -0.210 C  
BRANCH  15  16
HETATM   16  C   UNL     1      -9.895  10.990  66.047  1.00  0.00    -0.273 C  
BRANCH  16  17
HETATM   17  C   UNL     1      -9.898  11.993  67.197  1.00  0.00    -0.205 C  
HETATM   18  C   UNL     1     -11.199  11.954  67.967  1.00  0.00    -0.257 C  
HETATM   19  O   UNL     1     -12.144  11.219  67.727  1.00  0.00    -0.631 OA 
HETATM   20  O   UNL     1     -11.219  12.845  68.985  1.00  0.00    -0.257 OA 
ENDBRANCH  16  17
ENDBRANCH  15  16
ENDBRANCH  14  15
ENDBRANCH  13  14
ENDBRANCH  12  13
ENDBRANCH  11  12
ENDBRANCH  10  11
ENDBRANCH   8   9
ENDBRANCH   7   8
ENDBRANCH   5   6
ENDBRANCH   4   5
ENDBRANCH   2   3
TORSDOF 12
ENDMDL
MODEL       51
REMARK 921   NORMALIZED FREE ENERGY PREDICTED BY IDOCK:   -4.59 KCAL/MOL
REMARK 922        TOTAL FREE ENERGY PREDICTED BY IDOCK:   -9.65 KCAL/MOL
REMARK 923 INTER-LIGAND FREE ENERGY PREDICTED BY IDOCK:   -8.05 KCAL/MOL
REMARK 924 INTRA-LIGAND FREE ENERGY PREDICTED BY IDOCK:   -1.61 KCAL/MOL
REMARK 927      BINDING AFFINITY PREDICTED BY RF-SCORE:    0.00 PKD
ROOT
HETATM    1  C   UNL     1     -10.649   5.298  66.412  1.00  0.00    -0.338 C  
HETATM    2  C   UNL     1     -10.985   6.496  67.286  1.00  0.00    -0.475 C  
ENDROOT
BRANCH   2   3
HETATM    3  C   UNL     1      -9.949   6.716  68.352  1.00  0.00    -0.146 C  
HETATM    4  C   UNL     1     -10.195   6.871  69.663  1.00  0.00    -0.206 C  
BRANCH   4   5
HETATM    5  C   UNL     1     -11.567   6.885  70.275  1.00  0.00    -0.362 C  
BRANCH   5   6
HETATM    6  C   UNL     1     -11.547   7.290  71.721  1.00  0.00    -0.309 C  
HETATM    7  C   UNL     1     -12.310   8.254  72.266  1.00  0.00    -0.410 C  
BRANCH   7   8
HETATM    8  C   UNL     1     -13.272   9.101  71.482  1.00  0.00    -0.413 C  
BRANCH   8   9
HETATM    9  C   UNL     1     -12.911  10.557  71.518  1.00  0.00    -0.565 C  
HETATM   10  C   UNL     1     -12.076  11.164  70.656  1.00  0.00    -0.477 C  
BRANCH  10  11
HETATM   11  C   UNL     1     -11.443  10.464  69.487  1.00  0.00    -0.311 C  
BRANCH  11  12
HETATM   12  C   UNL     1     -11.399  11.334  68.235  1.00  0.00    -0.359 C  
BRANCH  12  13
HETATM   13  C   UNL     1     -10.741  10.573  67.084  1.00  0.00    -0.323 C  
BRANCH  13  14
HETATM   14  C   UNL     1      -9.629  11.404  66.450  1.00  0.00    -0.228 C  
BRANCH  14  15
HETATM   15  C   UNL     1      -9.413  11.026  64.985  1.00  0.00    -0.269 C  
BRANCH  15  16
HETATM   16  C   UNL     1     -10.732  11.089  64.218  1.00  0.00    -0.348 C  
BRANCH  16  17
HETATM   17  C   UNL     1     -10.982  12.478  63.638  1.00  0.00    -0.507 C  
HETATM   18  C   UNL     1     -12.358  12.993  63.999  1.00  0.00    -0.363 C  
HETATM   19  O   UNL     1     -13.184  12.399  64.674  1.00  0.00    -0.822 OA 
HETATM   20  O   UNL     1     -12.596  14.222  63.484  1.00  0.00    -0.814 OA 
ENDBRANCH  16  17
ENDBRANCH  15  16
ENDBRANCH  14  15
ENDBRANCH  13  14
ENDBRANCH  12  13
ENDBRANCH  11  12
ENDBRANCH  10  11
ENDBRANCH   8   9
ENDBRANCH   7   8
ENDBRANCH   5   6
ENDBRANCH   4   5
ENDBRANCH   2   3
TORSDOF 12
ENDMDL
MODEL       52
REMARK 921   NORMALIZED FREE ENERGY PREDICTED BY IDOCK:   -4.59 KCAL/MOL
REMARK 922        TOTAL FREE ENERGY PREDICTED BY IDOCK:   -9.65 KCAL/MOL
REMARK 923 INTER-LIGAND FREE ENERGY PREDICTED BY IDOCK:   -8.02 KCAL/MOL
REMARK 924 INTRA-LIGAND FREE ENERGY PREDICTED BY IDOCK:   -1.63 KCAL/MOL
REMARK 927      BINDING AFFINITY PREDICTED BY RF-SCORE:    0.00 PKD
ROOT
HETATM    1  C   UNL     1     -10.458  10.531  66.506  1.00  0.00    -0.276 C  
HETATM    2  C   UNL     1     -10.636   9.252  67.309  1.00  0.00    -0.303 C  
ENDROOT
BRANCH   2   3
HETATM    3  C   UNL     1      -9.664   8.187  66.885  1.00  0.00    -0.291 C  
HETATM    4  C   UNL     1      -9.803   6.869  67.103  1.00  0.00    -0.214 C  
BRANCH   4   5
HETATM    5  C   UNL     1     -10.949   6.246  67.848  1.00  0.00    -0.421 C  
BRANCH   5   6
HETATM    6  C   UNL     1     -10.505   5.523  69.087  1.00  0.00    -0.315 C  
HETATM    7  C   UNL     1     -10.961   5.763  70.329  1.00  0.00    -0.347 C  
BRANCH   7   8
HETATM    8  C   UNL     1     -11.963   6.832  70.659  1.00  0.00    -0.418 C  
BRANCH   8   9
HETATM    9  C   UNL     1     -11.617   7.568  71.920  1.00  0.00    -0.312 C  
HETATM   10  C   UNL     1     -11.133   8.822  71.971  1.00  0.00    -0.441 C  
BRANCH  10  11
HETATM   11  C   UNL     1     -10.940   9.683  70.755  1.00  0.00    -0.397 C  
BRANCH  11  12
HETATM   12  C   UNL     1     -12.168  10.528  70.432  1.00  0.00    -0.415 C  
BRANCH  12  13
HETATM   13  C   UNL     1     -11.746  11.855  69.800  1.00  0.00    -0.403 C  
BRANCH  13  14
HETATM   14  C   UNL     1     -12.383  13.031  70.533  1.00  0.00    -0.365 C  
BRANCH  14  15
HETATM   15  C   UNL     1     -13.178  12.567  71.753  1.00  0.00    -0.444 C  
BRANCH  15  16
HETATM   16  C   UNL     1     -13.932  13.740  72.376  1.00  0.00    -0.651 C  
BRANCH  16  17
HETATM   17  C   UNL     1     -13.304  15.079  72.000  1.00  0.00    -0.475 C  
HETATM   18  C   UNL     1     -12.411  15.604  73.101  1.00  0.00    -0.475 C  
HETATM   19  O   UNL     1     -12.193  15.047  74.166  1.00  0.00    -0.595 OA 
HETATM   20  O   UNL     1     -11.854  16.796  72.784  1.00  0.00    -0.459 OA 
ENDBRANCH  16  17
ENDBRANCH  15  16
ENDBRANCH  14  15
ENDBRANCH  13  14
ENDBRANCH  12  13
ENDBRANCH  11  12
ENDBRANCH  10  11
ENDBRANCH   8   9
ENDBRANCH   7   8
ENDBRANCH   5   6
ENDBRANCH   4   5
ENDBRANCH   2   3
TORSDOF 12
ENDMDL
MODEL       53
REMARK 921   NORMALIZED FREE ENERGY PREDICTED BY IDOCK:   -4.58 KCAL/MOL
REMARK 922        TOTAL FREE ENERGY PREDICTED BY IDOCK:   -9.63 KCAL/MOL
REMARK 923 INTER-LIGAND FREE ENERGY PREDICTED BY IDOCK:   -7.90 KCAL/MOL
REMARK 924 INTRA-LIGAND FREE ENERGY PREDICTED BY IDOCK:   -1.73 KCAL/MOL
REMARK 927      BINDING AFFINITY PREDICTED BY RF-SCORE:    0.00 PKD
ROOT
HETATM    1  C   UNL     1      -9.750   8.591  71.996  1.00  0.00    -0.377 C  
HETATM    2  C   UNL     1     -10.919   8.247  71.086  1.00  0.00    -0.286 C  
ENDROOT
BRANCH   2   3
HETATM    3  C   UNL     1     -12.215   8.186  71.843  1.00  0.00    -0.373 C  
HETATM    4  C   UNL     1     -13.124   9.172  71.920  1.00  0.00    -0.478 C  
BRANCH   4   5
HETATM    5  C   UNL     1     -12.969  10.523  71.282  1.00  0.00    -0.532 C  
BRANCH   5   6
HETATM    6  C   UNL     1     -13.535  11.627  72.129  1.00  0.00    -0.238 C  
HETATM    7  C   UNL     1     -13.348  12.941  71.914  1.00  0.00    -0.530 C  
BRANCH   7   8
HETATM    8  C   UNL     1     -12.498  13.494  70.807  1.00  0.00    -0.428 C  
BRANCH   8   9
HETATM    9  C   UNL     1     -12.733  14.959  70.584  1.00  0.00    -0.422 C  
HETATM   10  C   UNL     1     -11.770  15.862  70.326  1.00  0.00    -0.352 C  
BRANCH  10  11
HETATM   11  C   UNL     1     -10.322  15.499  70.156  1.00  0.00    -0.279 C  
BRANCH  11  12
HETATM   12  C   UNL     1      -9.673  16.206  68.971  1.00  0.00    -0.248 C  
BRANCH  12  13
HETATM   13  C   UNL     1      -9.708  15.307  67.734  1.00  0.00    -0.215 C  
BRANCH  13  14
HETATM   14  C   UNL     1      -9.702  13.835  68.133  1.00  0.00    -0.227 C  
BRANCH  14  15
HETATM   15  C   UNL     1     -10.774  13.047  67.381  1.00  0.00    -0.256 C  
BRANCH  15  16
HETATM   16  C   UNL     1     -11.945  13.956  67.014  1.00  0.00    -0.459 C  
BRANCH  16  17
HETATM   17  C   UNL     1     -12.585  13.547  65.691  1.00  0.00    -0.512 C  
HETATM   18  C   UNL     1     -12.024  14.340  64.532  1.00  0.00    -0.462 C  
HETATM   19  O   UNL     1     -11.162  15.201  64.612  1.00  0.00    -0.384 OA 
HETATM   20  O   UNL     1     -12.588  13.993  63.352  1.00  0.00    -0.845 OA 
ENDBRANCH  16  17
ENDBRANCH  15  16
ENDBRANCH  14  15
ENDBRANCH  13  14
ENDBRANCH  12  13
ENDBRANCH  11  12
ENDBRANCH  10  11
ENDBRANCH   8   9
ENDBRANCH   7   8
ENDBRANCH   5   6
ENDBRANCH   4   5
ENDBRANCH   2   3
TORSDOF 12
ENDMDL
MODEL       54
REMARK 921   NORMALIZED FREE ENERGY PREDICTED BY IDOCK:   -4.57 KCAL/MOL
REMARK 922        TOTAL FREE ENERGY PREDICTED BY IDOCK:   -9.62 KCAL/MOL
REMARK 923 INTER-LIGAND FREE ENERGY PREDICTED BY IDOCK:   -7.51 KCAL/MOL
REMARK 924 INTRA-LIGAND FREE ENERGY PREDICTED BY IDOCK:   -2.11 KCAL/MOL
REMARK 927      BINDING AFFINITY PREDICTED BY RF-SCORE:    0.00 PKD
ROOT
HETATM    1  C   UNL     1     -14.150   8.662  71.712  1.00  0.00    -0.499 C  
HETATM    2  C   UNL     1     -13.274   9.854  72.064  1.00  0.00    -0.555 C  
ENDROOT
BRANCH   2   3
HETATM    3  C   UNL     1     -12.901  10.651  70.846  1.00  0.00    -0.473 C  
HETATM    4  C   UNL     1     -11.740  10.562  70.178  1.00  0.00    -0.410 C  
BRANCH   4   5
HETATM    5  C   UNL     1     -10.600   9.664  70.569  1.00  0.00    -0.369 C  
BRANCH   5   6
HETATM    6  C   UNL     1     -10.743   8.278  70.008  1.00  0.00    -0.239 C  
HETATM    7  C   UNL     1     -10.231   7.860  68.837  1.00  0.00    -0.215 C  
BRANCH   7   8
HETATM    8  C   UNL     1      -9.471   8.747  67.894  1.00  0.00    -0.160 C  
BRANCH   8   9
HETATM    9  C   UNL     1     -10.368   9.428  66.902  1.00  0.00    -0.308 C  
HETATM   10  C   UNL     1     -10.326  10.738  66.599  1.00  0.00    -0.294 C  
BRANCH  10  11
HETATM   11  C   UNL     1      -9.312  11.686  67.173  1.00  0.00    -0.178 C  
BRANCH  11  12
HETATM   12  C   UNL     1      -9.932  12.707  68.120  1.00  0.00    -0.225 C  
BRANCH  12  13
HETATM   13  C   UNL     1     -10.811  13.687  67.343  1.00  0.00    -0.282 C  
BRANCH  13  14
HETATM   14  C   UNL     1     -11.968  14.180  68.206  1.00  0.00    -0.367 C  
BRANCH  14  15
HETATM   15  C   UNL     1     -11.549  14.341  69.667  1.00  0.00    -0.351 C  
BRANCH  15  16
HETATM   16  C   UNL     1     -12.685  14.952  70.484  1.00  0.00    -0.399 C  
BRANCH  16  17
HETATM   17  C   UNL     1     -12.203  15.437  71.847  1.00  0.00    -0.453 C  
HETATM   18  C   UNL     1     -12.890  14.702  72.976  1.00  0.00    -0.474 C  
HETATM   19  O   UNL     1     -13.725  13.820  72.844  1.00  0.00    -0.684 OA 
HETATM   20  O   UNL     1     -12.478  15.128  74.192  1.00  0.00    -0.580 OA 
ENDBRANCH  16  17
ENDBRANCH  15  16
ENDBRANCH  14  15
ENDBRANCH  13  14
ENDBRANCH  12  13
ENDBRANCH  11  12
ENDBRANCH  10  11
ENDBRANCH   8   9
ENDBRANCH   7   8
ENDBRANCH   5   6
ENDBRANCH   4   5
ENDBRANCH   2   3
TORSDOF 12
ENDMDL
MODEL       55
REMARK 921   NORMALIZED FREE ENERGY PREDICTED BY IDOCK:   -4.57 KCAL/MOL
REMARK 922        TOTAL FREE ENERGY PREDICTED BY IDOCK:   -9.62 KCAL/MOL
REMARK 923 INTER-LIGAND FREE ENERGY PREDICTED BY IDOCK:   -7.81 KCAL/MOL
REMARK 924 INTRA-LIGAND FREE ENERGY PREDICTED BY IDOCK:   -1.81 KCAL/MOL
REMARK 927      BINDING AFFINITY PREDICTED BY RF-SCORE:    0.00 PKD
ROOT
HETATM    1  C   UNL     1     -10.046   8.998  70.866  1.00  0.00    -0.329 C  
HETATM    2  C   UNL     1     -11.045  10.123  70.652  1.00  0.00    -0.397 C  
ENDROOT
BRANCH   2   3
HETATM    3  C   UNL     1     -12.310   9.902  71.433  1.00  0.00    -0.498 C  
HETATM    4  C   UNL     1     -13.193  10.853  71.778  1.00  0.00    -0.513 C  
BRANCH   4   5
HETATM    5  C   UNL     1     -13.036  12.314  71.465  1.00  0.00    -0.390 C  
BRANCH   5   6
HETATM    6  C   UNL     1     -13.673  13.196  72.500  1.00  0.00    -0.563 C  
HETATM    7  C   UNL     1     -13.999  14.488  72.322  1.00  0.00    -0.600 C  
BRANCH   7   8
HETATM    8  C   UNL     1     -13.727  15.252  71.058  1.00  0.00    -0.452 C  
BRANCH   8   9
HETATM    9  C   UNL     1     -12.334  15.808  71.015  1.00  0.00    -0.465 C  
HETATM   10  C   UNL     1     -11.441  15.570  70.038  1.00  0.00    -0.344 C  
BRANCH  10  11
HETATM   11  C   UNL     1     -11.754  14.762  68.811  1.00  0.00    -0.354 C  
BRANCH  11  12
HETATM   12  C   UNL     1     -10.875  13.523  68.683  1.00  0.00    -0.281 C  
BRANCH  12  13
HETATM   13  C   UNL     1     -10.403  13.353  67.238  1.00  0.00    -0.244 C  
BRANCH  13  14
HETATM   14  C   UNL     1     -10.353  14.700  66.523  1.00  0.00    -0.283 C  
BRANCH  14  15
HETATM   15  C   UNL     1      -8.933  15.265  66.492  1.00  0.00    -0.340 C  
BRANCH  15  16
HETATM   16  C   UNL     1      -8.868  16.584  67.258  1.00  0.00    -0.206 C  
BRANCH  16  17
HETATM   17  C   UNL     1      -9.813  17.627  66.670  1.00  0.00    -0.309 C  
HETATM   18  C   UNL     1     -10.295  18.600  67.722  1.00  0.00    -0.410 C  
HETATM   19  O   UNL     1      -9.979  18.584  68.902  1.00  0.00    -0.384 OA 
HETATM   20  O   UNL     1     -11.141  19.526  67.215  1.00  0.00    -0.444 OA 
ENDBRANCH  16  17
ENDBRANCH  15  16
ENDBRANCH  14  15
ENDBRANCH  13  14
ENDBRANCH  12  13
ENDBRANCH  11  12
ENDBRANCH  10  11
ENDBRANCH   8   9
ENDBRANCH   7   8
ENDBRANCH   5   6
ENDBRANCH   4   5
ENDBRANCH   2   3
TORSDOF 12
ENDMDL
MODEL       56
REMARK 921   NORMALIZED FREE ENERGY PREDICTED BY IDOCK:   -4.57 KCAL/MOL
REMARK 922        TOTAL FREE ENERGY PREDICTED BY IDOCK:   -9.62 KCAL/MOL
REMARK 923 INTER-LIGAND FREE ENERGY PREDICTED BY IDOCK:   -7.97 KCAL/MOL
REMARK 924 INTRA-LIGAND FREE ENERGY PREDICTED BY IDOCK:   -1.64 KCAL/MOL
REMARK 927      BINDING AFFINITY PREDICTED BY RF-SCORE:    0.00 PKD
ROOT
HETATM    1  C   UNL     1     -12.768  10.676  71.033  1.00  0.00    -0.512 C  
HETATM    2  C   UNL     1     -12.646  12.191  71.040  1.00  0.00    -0.359 C  
ENDROOT
BRANCH   2   3
HETATM    3  C   UNL     1     -13.440  12.810  72.155  1.00  0.00    -0.591 C  
HETATM    4  C   UNL     1     -13.835  14.093  72.217  1.00  0.00    -0.643 C  
BRANCH   4   5
HETATM    5  C   UNL     1     -13.508  15.133  71.184  1.00  0.00    -0.533 C  
BRANCH   5   6
HETATM    6  C   UNL     1     -12.115  15.674  71.334  1.00  0.00    -0.476 C  
HETATM    7  C   UNL     1     -11.299  16.005  70.318  1.00  0.00    -0.391 C  
BRANCH   7   8
HETATM    8  C   UNL     1     -11.658  15.836  68.869  1.00  0.00    -0.400 C  
BRANCH   8   9
HETATM    9  C   UNL     1     -10.694  14.946  68.141  1.00  0.00    -0.251 C  
HETATM   10  C   UNL     1     -11.024  14.109  67.141  1.00  0.00    -0.304 C  
BRANCH  10  11
HETATM   11  C   UNL     1     -12.410  14.011  66.571  1.00  0.00    -0.442 C  
BRANCH  11  12
HETATM   12  C   UNL     1     -12.411  13.809  65.059  1.00  0.00    -0.456 C  
BRANCH  12  13
HETATM   13  C   UNL     1     -12.160  12.340  64.720  1.00  0.00    -0.436 C  
BRANCH  13  14
HETATM   14  C   UNL     1     -10.995  12.200  63.744  1.00  0.00    -0.494 C  
BRANCH  14  15
HETATM   15  C   UNL     1     -10.120  10.994  64.086  1.00  0.00    -0.403 C  
BRANCH  15  16
HETATM   16  C   UNL     1      -9.523  11.147  65.484  1.00  0.00    -0.251 C  
BRANCH  16  17
HETATM   17  C   UNL     1      -9.512   9.823  66.241  1.00  0.00    -0.250 C  
HETATM   18  C   UNL     1     -10.493   9.832  67.393  1.00  0.00    -0.259 C  
HETATM   19  O   UNL     1     -11.221  10.762  67.698  1.00  0.00    -0.303 OA 
HETATM   20  O   UNL     1     -10.487   8.665  68.079  1.00  0.00    -0.223 OA 
ENDBRANCH  16  17
ENDBRANCH  15  16
ENDBRANCH  14  15
ENDBRANCH  13  14
ENDBRANCH  12  13
ENDBRANCH  11  12
ENDBRANCH  10  11
ENDBRANCH   8   9
ENDBRANCH   7   8
ENDBRANCH   5   6
ENDBRANCH   4   5
ENDBRANCH   2   3
TORSDOF 12
ENDMDL
MODEL       57
REMARK 921   NORMALIZED FREE ENERGY PREDICTED BY IDOCK:   -4.56 KCAL/MOL
REMARK 922        TOTAL FREE ENERGY PREDICTED BY IDOCK:   -9.61 KCAL/MOL
REMARK 923 INTER-LIGAND FREE ENERGY PREDICTED BY IDOCK:   -7.58 KCAL/MOL
REMARK 924 INTRA-LIGAND FREE ENERGY PREDICTED BY IDOCK:   -2.03 KCAL/MOL
REMARK 927      BINDING AFFINITY PREDICTED BY RF-SCORE:    0.00 PKD
ROOT
HETATM    1  C   UNL     1     -12.149   8.365  71.814  1.00  0.00    -0.379 C  
HETATM    2  C   UNL     1     -13.236   9.323  71.353  1.00  0.00    -0.390 C  
ENDROOT
BRANCH   2   3
HETATM    3  C   UNL     1     -12.810  10.758  71.492  1.00  0.00    -0.567 C  
HETATM    4  C   UNL     1     -12.167  11.478  70.558  1.00  0.00    -0.469 C  
BRANCH   4   5
HETATM    5  C   UNL     1     -11.733  10.943  69.223  1.00  0.00    -0.395 C  
BRANCH   5   6
HETATM    6  C   UNL     1     -10.310  10.464  69.231  1.00  0.00    -0.250 C  
HETATM    7  C   UNL     1      -9.442  10.597  68.212  1.00  0.00    -0.161 C  
BRANCH   7   8
HETATM    8  C   UNL     1      -9.794  11.217  66.890  1.00  0.00    -0.223 C  
BRANCH   8   9
HETATM    9  C   UNL     1      -9.986  10.191  65.812  1.00  0.00    -0.339 C  
HETATM   10  C   UNL     1     -10.162  10.470  64.508  1.00  0.00    -0.355 C  
BRANCH  10  11
HETATM   11  C   UNL     1     -10.117  11.863  63.948  1.00  0.00    -0.396 C  
BRANCH  11  12
HETATM   12  C   UNL     1     -11.447  12.295  63.339  1.00  0.00    -0.512 C  
BRANCH  12  13
HETATM   13  C   UNL     1     -12.521  12.389  64.423  1.00  0.00    -0.520 C  
BRANCH  13  14
HETATM   14  C   UNL     1     -12.473  13.747  65.117  1.00  0.00    -0.483 C  
BRANCH  14  15
HETATM   15  C   UNL     1     -12.368  13.596  66.635  1.00  0.00    -0.381 C  
BRANCH  15  16
HETATM   16  C   UNL     1     -11.412  14.640  67.209  1.00  0.00    -0.386 C  
BRANCH  16  17
HETATM   17  C   UNL     1     -11.538  14.748  68.725  1.00  0.00    -0.347 C  
HETATM   18  C   UNL     1     -11.294  16.161  69.206  1.00  0.00    -0.328 C  
HETATM   19  O   UNL     1     -11.034  17.118  68.494  1.00  0.00    -0.317 OA 
HETATM   20  O   UNL     1     -11.394  16.269  70.551  1.00  0.00    -0.378 OA 
ENDBRANCH  16  17
ENDBRANCH  15  16
ENDBRANCH  14  15
ENDBRANCH  13  14
ENDBRANCH  12  13
ENDBRANCH  11  12
ENDBRANCH  10  11
ENDBRANCH   8   9
ENDBRANCH   7   8
ENDBRANCH   5   6
ENDBRANCH   4   5
ENDBRANCH   2   3
TORSDOF 12
ENDMDL
MODEL       58
REMARK 921   NORMALIZED FREE ENERGY PREDICTED BY IDOCK:   -4.56 KCAL/MOL
REMARK 922        TOTAL FREE ENERGY PREDICTED BY IDOCK:   -9.60 KCAL/MOL
REMARK 923 INTER-LIGAND FREE ENERGY PREDICTED BY IDOCK:   -7.04 KCAL/MOL
REMARK 924 INTRA-LIGAND FREE ENERGY PREDICTED BY IDOCK:   -2.56 KCAL/MOL
REMARK 927      BINDING AFFINITY PREDICTED BY RF-SCORE:    0.00 PKD
ROOT
HETATM    1  C   UNL     1      -7.911   8.047  70.982  1.00  0.00    -0.092 C  
HETATM    2  C   UNL     1      -9.114   8.961  71.150  1.00  0.00    -0.315 C  
ENDROOT
BRANCH   2   3
HETATM    3  C   UNL     1      -9.956   8.563  72.329  1.00  0.00    -0.385 C  
HETATM    4  C   UNL     1     -11.043   7.775  72.285  1.00  0.00    -0.355 C  
BRANCH   4   5
HETATM    5  C   UNL     1     -11.616   7.187  71.027  1.00  0.00    -0.345 C  
BRANCH   5   6
HETATM    6  C   UNL     1     -10.891   5.946  70.590  1.00  0.00    -0.363 C  
HETATM    7  C   UNL     1     -10.569   5.644  69.320  1.00  0.00    -0.359 C  
BRANCH   7   8
HETATM    8  C   UNL     1     -10.934   6.498  68.140  1.00  0.00    -0.365 C  
BRANCH   8   9
HETATM    9  C   UNL     1      -9.788   7.346  67.673  1.00  0.00    -0.194 C  
HETATM   10  C   UNL     1      -9.822   8.685  67.547  1.00  0.00    -0.234 C  
BRANCH  10  11
HETATM   11  C   UNL     1     -11.010   9.520  67.934  1.00  0.00    -0.172 C  
BRANCH  11  12
HETATM   12  C   UNL     1     -10.707  11.014  67.922  1.00  0.00    -0.263 C  
BRANCH  12  13
HETATM   13  C   UNL     1     -11.193  11.665  69.218  1.00  0.00    -0.328 C  
BRANCH  13  14
HETATM   14  C   UNL     1     -12.124  10.726  69.979  1.00  0.00    -0.423 C  
BRANCH  14  15
HETATM   15  C   UNL     1     -12.859  11.456  71.103  1.00  0.00    -0.440 C  
BRANCH  15  16
HETATM   16  C   UNL     1     -12.692  12.967  70.956  1.00  0.00    -0.347 C  
BRANCH  16  17
HETATM   17  C   UNL     1     -13.259  13.718  72.157  1.00  0.00    -0.538 C  
HETATM   18  C   UNL     1     -13.408  15.196  71.871  1.00  0.00    -0.399 C  
HETATM   19  O   UNL     1     -13.127  15.747  70.818  1.00  0.00    -0.522 OA 
HETATM   20  O   UNL     1     -13.902  15.876  72.932  1.00  0.00    -0.605 OA 
ENDBRANCH  16  17
ENDBRANCH  15  16
ENDBRANCH  14  15
ENDBRANCH  13  14
ENDBRANCH  12  13
ENDBRANCH  11  12
ENDBRANCH  10  11
ENDBRANCH   8   9
ENDBRANCH   7   8
ENDBRANCH   5   6
ENDBRANCH   4   5
ENDBRANCH   2   3
TORSDOF 12
ENDMDL
MODEL       59
REMARK 921   NORMALIZED FREE ENERGY PREDICTED BY IDOCK:   -4.55 KCAL/MOL
REMARK 922        TOTAL FREE ENERGY PREDICTED BY IDOCK:   -9.59 KCAL/MOL
REMARK 923 INTER-LIGAND FREE ENERGY PREDICTED BY IDOCK:   -7.33 KCAL/MOL
REMARK 924 INTRA-LIGAND FREE ENERGY PREDICTED BY IDOCK:   -2.26 KCAL/MOL
REMARK 927      BINDING AFFINITY PREDICTED BY RF-SCORE:    0.00 PKD
ROOT
HETATM    1  C   UNL     1      -8.219   9.251  67.537  1.00  0.00    -0.114 C  
HETATM    2  C   UNL     1      -9.455   9.080  66.668  1.00  0.00    -0.251 C  
ENDROOT
BRANCH   2   3
HETATM    3  C   UNL     1      -9.105   9.013  65.209  1.00  0.00    -0.226 C  
HETATM    4  C   UNL     1      -9.409   9.941  64.287  1.00  0.00    -0.313 C  
BRANCH   4   5
HETATM    5  C   UNL     1     -10.189  11.194  64.567  1.00  0.00    -0.383 C  
BRANCH   5   6
HETATM    6  C   UNL     1     -11.105  11.566  63.436  1.00  0.00    -0.370 C  
HETATM    7  C   UNL     1     -12.091  12.478  63.506  1.00  0.00    -0.653 C  
BRANCH   7   8
HETATM    8  C   UNL     1     -12.445  13.231  64.756  1.00  0.00    -0.439 C  
BRANCH   8   9
HETATM    9  C   UNL     1     -12.246  14.710  64.608  1.00  0.00    -0.447 C  
HETATM   10  C   UNL     1     -11.138  15.378  64.976  1.00  0.00    -0.428 C  
BRANCH  10  11
HETATM   11  C   UNL     1      -9.913  14.705  65.526  1.00  0.00    -0.384 C  
BRANCH  11  12
HETATM   12  C   UNL     1      -9.910  14.642  67.050  1.00  0.00    -0.244 C  
BRANCH  12  13
HETATM   13  C   UNL     1      -9.513  13.243  67.522  1.00  0.00    -0.220 C  
BRANCH  13  14
HETATM   14  C   UNL     1     -10.738  12.454  67.974  1.00  0.00    -0.247 C  
BRANCH  14  15
HETATM   15  C   UNL     1     -11.852  13.380  68.460  1.00  0.00    -0.401 C  
BRANCH  15  16
HETATM   16  C   UNL     1     -12.013  13.272  69.974  1.00  0.00    -0.399 C  
BRANCH  16  17
HETATM   17  C   UNL     1     -12.151  11.821  70.426  1.00  0.00    -0.440 C  
HETATM   18  C   UNL     1     -13.011  11.702  71.664  1.00  0.00    -0.378 C  
HETATM   19  O   UNL     1     -13.547  12.631  72.248  1.00  0.00    -0.547 OA 
HETATM   20  O   UNL     1     -13.135  10.421  72.081  1.00  0.00    -0.445 OA 
ENDBRANCH  16  17
ENDBRANCH  15  16
ENDBRANCH  14  15
ENDBRANCH  13  14
ENDBRANCH  12  13
ENDBRANCH  11  12
ENDBRANCH  10  11
ENDBRANCH   8   9
ENDBRANCH   7   8
ENDBRANCH   5   6
ENDBRANCH   4   5
ENDBRANCH   2   3
TORSDOF 12
ENDMDL
MODEL       60
REMARK 921   NORMALIZED FREE ENERGY PREDICTED BY IDOCK:   -4.55 KCAL/MOL
REMARK 922        TOTAL FREE ENERGY PREDICTED BY IDOCK:   -9.58 KCAL/MOL
REMARK 923 INTER-LIGAND FREE ENERGY PREDICTED BY IDOCK:   -7.54 KCAL/MOL
REMARK 924 INTRA-LIGAND FREE ENERGY PREDICTED BY IDOCK:   -2.04 KCAL/MOL
REMARK 927      BINDING AFFINITY PREDICTED BY RF-SCORE:    0.00 PKD
ROOT
HETATM    1  C   UNL     1     -10.503   6.821  67.782  1.00  0.00    -0.274 C  
HETATM    2  C   UNL     1     -10.068   8.232  68.143  1.00  0.00    -0.238 C  
ENDROOT
BRANCH   2   3
HETATM    3  C   UNL     1      -8.712   8.250  68.790  1.00  0.00    -0.137 C  
HETATM    4  C   UNL     1      -8.441   8.694  70.029  1.00  0.00    -0.130 C  
BRANCH   4   5
HETATM    5  C   UNL     1      -9.460   9.285  70.961  1.00  0.00    -0.313 C  
BRANCH   5   6
HETATM    6  C   UNL     1      -9.799   8.366  72.100  1.00  0.00    -0.372 C  
HETATM    7  C   UNL     1     -11.024   7.878  72.363  1.00  0.00    -0.386 C  
BRANCH   7   8
HETATM    8  C   UNL     1     -12.249   8.225  71.568  1.00  0.00    -0.334 C  
BRANCH   8   9
HETATM    9  C   UNL     1     -12.980   9.408  72.131  1.00  0.00    -0.503 C  
HETATM   10  C   UNL     1     -12.988  10.638  71.586  1.00  0.00    -0.582 C  
BRANCH  10  11
HETATM   11  C   UNL     1     -12.314  10.969  70.284  1.00  0.00    -0.410 C  
BRANCH  11  12
HETATM   12  C   UNL     1     -11.999  12.454  70.147  1.00  0.00    -0.376 C  
BRANCH  12  13
HETATM   13  C   UNL     1     -11.871  12.835  68.671  1.00  0.00    -0.341 C  
BRANCH  13  14
HETATM   14  C   UNL     1     -11.601  11.602  67.814  1.00  0.00    -0.359 C  
BRANCH  14  15
HETATM   15  C   UNL     1     -10.347  11.777  66.959  1.00  0.00    -0.243 C  
BRANCH  15  16
HETATM   16  C   UNL     1     -10.712  11.807  65.476  1.00  0.00    -0.329 C  
BRANCH  16  17
HETATM   17  C   UNL     1     -10.816  13.235  64.949  1.00  0.00    -0.358 C  
HETATM   18  C   UNL     1     -12.251  13.626  64.678  1.00  0.00    -0.409 C  
HETATM   19  O   UNL     1     -13.227  12.914  64.856  1.00  0.00    -0.782 OA 
HETATM   20  O   UNL     1     -12.357  14.888  64.201  1.00  0.00    -0.668 OA 
ENDBRANCH  16  17
ENDBRANCH  15  16
ENDBRANCH  14  15
ENDBRANCH  13  14
ENDBRANCH  12  13
ENDBRANCH  11  12
ENDBRANCH  10  11
ENDBRANCH   8   9
ENDBRANCH   7   8
ENDBRANCH   5   6
ENDBRANCH   4   5
ENDBRANCH   2   3
TORSDOF 12
ENDMDL
MODEL       61
REMARK 921   NORMALIZED FREE ENERGY PREDICTED BY IDOCK:   -4.54 KCAL/MOL
REMARK 922        TOTAL FREE ENERGY PREDICTED BY IDOCK:   -9.57 KCAL/MOL
REMARK 923 INTER-LIGAND FREE ENERGY PREDICTED BY IDOCK:   -7.61 KCAL/MOL
REMARK 924 INTRA-LIGAND FREE ENERGY PREDICTED BY IDOCK:   -1.96 KCAL/MOL
REMARK 927      BINDING AFFINITY PREDICTED BY RF-SCORE:    0.00 PKD
ROOT
HETATM    1  C   UNL     1     -13.589  13.303  72.187  1.00  0.00    -0.655 C  
HETATM    2  C   UNL     1     -13.942  14.768  71.988  1.00  0.00    -0.582 C  
ENDROOT
BRANCH   2   3
HETATM    3  C   UNL     1     -12.825  15.675  72.423  1.00  0.00    -0.519 C  
HETATM    4  C   UNL     1     -11.826  16.117  71.641  1.00  0.00    -0.557 C  
BRANCH   4   5
HETATM    5  C   UNL     1     -11.646  15.741  70.198  1.00  0.00    -0.364 C  
BRANCH   5   6
HETATM    6  C   UNL     1     -10.201  15.704  69.790  1.00  0.00    -0.303 C  
HETATM    7  C   UNL     1      -9.743  15.923  68.545  1.00  0.00    -0.211 C  
BRANCH   7   8
HETATM    8  C   UNL     1     -10.629  16.195  67.364  1.00  0.00    -0.311 C  
BRANCH   8   9
HETATM    9  C   UNL     1     -10.035  15.702  66.077  1.00  0.00    -0.359 C  
HETATM   10  C   UNL     1     -10.604  14.793  65.266  1.00  0.00    -0.414 C  
BRANCH  10  11
HETATM   11  C   UNL     1     -11.962  14.199  65.514  1.00  0.00    -0.394 C  
BRANCH  11  12
HETATM   12  C   UNL     1     -11.938  12.675  65.562  1.00  0.00    -0.509 C  
BRANCH  12  13
HETATM   13  C   UNL     1     -11.298  12.196  66.866  1.00  0.00    -0.402 C  
BRANCH  13  14
HETATM   14  C   UNL     1     -11.909  12.912  68.066  1.00  0.00    -0.390 C  
BRANCH  14  15
HETATM   15  C   UNL     1     -11.818  12.060  69.332  1.00  0.00    -0.384 C  
BRANCH  15  16
HETATM   16  C   UNL     1     -11.642  10.587  68.972  1.00  0.00    -0.278 C  
BRANCH  16  17
HETATM   17  C   UNL     1     -11.174   9.765  70.170  1.00  0.00    -0.324 C  
HETATM   18  C   UNL     1      -9.666   9.748  70.279  1.00  0.00    -0.223 C  
HETATM   19  O   UNL     1      -8.893  10.316  69.524  1.00  0.00    -0.187 OA 
HETATM   20  O   UNL     1      -9.237   9.015  71.333  1.00  0.00    -0.247 OA 
ENDBRANCH  16  17
ENDBRANCH  15  16
ENDBRANCH  14  15
ENDBRANCH  13  14
ENDBRANCH  12  13
ENDBRANCH  11  12
ENDBRANCH  10  11
ENDBRANCH   8   9
ENDBRANCH   7   8
ENDBRANCH   5   6
ENDBRANCH   4   5
ENDBRANCH   2   3
TORSDOF 12
ENDMDL
MODEL       62
REMARK 921   NORMALIZED FREE ENERGY PREDICTED BY IDOCK:   -4.54 KCAL/MOL
REMARK 922        TOTAL FREE ENERGY PREDICTED BY IDOCK:   -9.57 KCAL/MOL
REMARK 923 INTER-LIGAND FREE ENERGY PREDICTED BY IDOCK:   -7.77 KCAL/MOL
REMARK 924 INTRA-LIGAND FREE ENERGY PREDICTED BY IDOCK:   -1.79 KCAL/MOL
REMARK 927      BINDING AFFINITY PREDICTED BY RF-SCORE:    0.00 PKD
ROOT
HETATM    1  C   UNL     1     -12.658  12.081  63.473  1.00  0.00    -0.625 C  
HETATM    2  C   UNL     1     -12.329  12.775  64.785  1.00  0.00    -0.540 C  
ENDROOT
BRANCH   2   3
HETATM    3  C   UNL     1     -10.873  12.646  65.134  1.00  0.00    -0.321 C  
HETATM    4  C   UNL     1     -10.046  13.662  65.430  1.00  0.00    -0.291 C  
BRANCH   4   5
HETATM    5  C   UNL     1     -10.443  15.111  65.424  1.00  0.00    -0.416 C  
BRANCH   5   6
HETATM    6  C   UNL     1      -9.499  15.968  66.218  1.00  0.00    -0.347 C  
HETATM    7  C   UNL     1      -9.797  16.575  67.381  1.00  0.00    -0.253 C  
BRANCH   7   8
HETATM    8  C   UNL     1     -11.148  16.512  68.034  1.00  0.00    -0.275 C  
BRANCH   8   9
HETATM    9  C   UNL     1     -11.076  16.020  69.450  1.00  0.00    -0.331 C  
HETATM   10  C   UNL     1     -11.458  14.798  69.860  1.00  0.00    -0.322 C  
BRANCH  10  11
HETATM   11  C   UNL     1     -11.948  13.728  68.924  1.00  0.00    -0.394 C  
BRANCH  11  12
HETATM   12  C   UNL     1     -10.970  12.565  68.798  1.00  0.00    -0.294 C  
BRANCH  12  13
HETATM   13  C   UNL     1     -11.703  11.235  68.974  1.00  0.00    -0.410 C  
BRANCH  13  14
HETATM   14  C   UNL     1     -11.520  10.698  70.390  1.00  0.00    -0.422 C  
BRANCH  14  15
HETATM   15  C   UNL     1     -12.745  10.982  71.259  1.00  0.00    -0.537 C  
BRANCH  15  16
HETATM   16  C   UNL     1     -13.037   9.794  72.174  1.00  0.00    -0.513 C  
BRANCH  16  17
HETATM   17  C   UNL     1     -12.001   8.687  72.010  1.00  0.00    -0.442 C  
HETATM   18  C   UNL     1     -12.649   7.364  71.667  1.00  0.00    -0.358 C  
HETATM   19  O   UNL     1     -13.847   7.175  71.526  1.00  0.00    -0.376 OA 
HETATM   20  O   UNL     1     -11.741   6.369  71.527  1.00  0.00    -0.308 OA 
ENDBRANCH  16  17
ENDBRANCH  15  16
ENDBRANCH  14  15
ENDBRANCH  13  14
ENDBRANCH  12  13
ENDBRANCH  11  12
ENDBRANCH  10  11
ENDBRANCH   8   9
ENDBRANCH   7   8
ENDBRANCH   5   6
ENDBRANCH   4   5
ENDBRANCH   2   3
TORSDOF 12
ENDMDL
MODEL       63
REMARK 921   NORMALIZED FREE ENERGY PREDICTED BY IDOCK:   -4.53 KCAL/MOL
REMARK 922        TOTAL FREE ENERGY PREDICTED BY IDOCK:   -9.55 KCAL/MOL
REMARK 923 INTER-LIGAND FREE ENERGY PREDICTED BY IDOCK:   -7.54 KCAL/MOL
REMARK 924 INTRA-LIGAND FREE ENERGY PREDICTED BY IDOCK:   -2.02 KCAL/MOL
REMARK 927      BINDING AFFINITY PREDICTED BY RF-SCORE:    0.00 PKD
ROOT
HETATM    1  C   UNL     1     -10.490   7.721  67.998  1.00  0.00    -0.244 C  
HETATM    2  C   UNL     1     -10.394   7.377  69.476  1.00  0.00    -0.218 C  
ENDROOT
BRANCH   2   3
HETATM    3  C   UNL     1     -11.517   6.480  69.914  1.00  0.00    -0.467 C  
HETATM    4  C   UNL     1     -12.216   6.601  71.055  1.00  0.00    -0.344 C  
BRANCH   4   5
HETATM    5  C   UNL     1     -11.957   7.645  72.104  1.00  0.00    -0.344 C  
BRANCH   5   6
HETATM    6  C   UNL     1     -13.042   8.682  72.162  1.00  0.00    -0.423 C  
HETATM    7  C   UNL     1     -12.948   9.929  71.669  1.00  0.00    -0.536 C  
BRANCH   7   8
HETATM    8  C   UNL     1     -11.710  10.480  71.020  1.00  0.00    -0.384 C  
BRANCH   8   9
HETATM    9  C   UNL     1     -11.992  11.090  69.679  1.00  0.00    -0.424 C  
HETATM   10  C   UNL     1     -12.158  12.405  69.452  1.00  0.00    -0.237 C  
BRANCH  10  11
HETATM   11  C   UNL     1     -12.011  13.453  70.518  1.00  0.00    -0.332 C  
BRANCH  11  12
HETATM   12  C   UNL     1     -12.093  14.871  69.965  1.00  0.00    -0.387 C  
BRANCH  12  13
HETATM   13  C   UNL     1     -10.695  15.482  69.860  1.00  0.00    -0.321 C  
BRANCH  13  14
HETATM   14  C   UNL     1     -10.307  15.701  68.401  1.00  0.00    -0.231 C  
BRANCH  14  15
HETATM   15  C   UNL     1      -9.351  14.616  67.907  1.00  0.00    -0.198 C  
BRANCH  15  16
HETATM   16  C   UNL     1     -10.026  13.754  66.842  1.00  0.00    -0.264 C  
BRANCH  16  17
HETATM   17  C   UNL     1     -11.235  14.456  66.230  1.00  0.00    -0.338 C  
HETATM   18  C   UNL     1     -12.310  13.469  65.833  1.00  0.00    -0.456 C  
HETATM   19  O   UNL     1     -12.251  12.259  65.977  1.00  0.00    -0.646 OA 
HETATM   20  O   UNL     1     -13.385  14.078  65.281  1.00  0.00    -0.741 OA 
ENDBRANCH  16  17
ENDBRANCH  15  16
ENDBRANCH  14  15
ENDBRANCH  13  14
ENDBRANCH  12  13
ENDBRANCH  11  12
ENDBRANCH  10  11
ENDBRANCH   8   9
ENDBRANCH   7   8
ENDBRANCH   5   6
ENDBRANCH   4   5
ENDBRANCH   2   3
TORSDOF 12
ENDMDL
MODEL       64
REMARK 921   NORMALIZED FREE ENERGY PREDICTED BY IDOCK:   -4.52 KCAL/MOL
REMARK 922        TOTAL FREE ENERGY PREDICTED BY IDOCK:   -9.53 KCAL/MOL
REMARK 923 INTER-LIGAND FREE ENERGY PREDICTED BY IDOCK:   -7.67 KCAL/MOL
REMARK 924 INTRA-LIGAND FREE ENERGY PREDICTED BY IDOCK:   -1.85 KCAL/MOL
REMARK 927      BINDING AFFINITY PREDICTED BY RF-SCORE:    0.00 PKD
ROOT
HETATM    1  C   UNL     1     -11.349   6.293  69.997  1.00  0.00    -0.486 C  
HETATM    2  C   UNL     1     -12.117   6.719  71.239  1.00  0.00    -0.421 C  
ENDROOT
BRANCH   2   3
HETATM    3  C   UNL     1     -11.291   7.607  72.127  1.00  0.00    -0.341 C  
HETATM    4  C   UNL     1     -11.122   8.930  71.972  1.00  0.00    -0.421 C  
BRANCH   4   5
HETATM    5  C   UNL     1     -11.710   9.736  70.849  1.00  0.00    -0.429 C  
BRANCH   5   6
HETATM    6  C   UNL     1     -10.664  10.251  69.902  1.00  0.00    -0.344 C  
HETATM    7  C   UNL     1     -10.775  11.364  69.156  1.00  0.00    -0.229 C  
BRANCH   7   8
HETATM    8  C   UNL     1     -11.997  12.236  69.134  1.00  0.00    -0.303 C  
BRANCH   8   9
HETATM    9  C   UNL     1     -12.071  13.144  70.326  1.00  0.00    -0.399 C  
HETATM   10  C   UNL     1     -11.903  14.479  70.289  1.00  0.00    -0.373 C  
BRANCH  10  11
HETATM   11  C   UNL     1     -11.686  15.248  69.017  1.00  0.00    -0.368 C  
BRANCH  11  12
HETATM   12  C   UNL     1     -10.323  15.930  68.968  1.00  0.00    -0.231 C  
BRANCH  12  13
HETATM   13  C   UNL     1      -9.234  14.915  68.621  1.00  0.00    -0.193 C  
BRANCH  13  14
HETATM   14  C   UNL     1      -9.079  14.780  67.110  1.00  0.00    -0.231 C  
BRANCH  14  15
HETATM   15  C   UNL     1      -9.450  13.377  66.631  1.00  0.00    -0.264 C  
BRANCH  15  16
HETATM   16  C   UNL     1     -10.719  13.421  65.783  1.00  0.00    -0.280 C  
BRANCH  16  17
HETATM   17  C   UNL     1     -11.035  14.837  65.312  1.00  0.00    -0.382 C  
HETATM   18  C   UNL     1     -12.096  14.842  64.234  1.00  0.00    -0.394 C  
HETATM   19  O   UNL     1     -12.654  13.854  63.782  1.00  0.00    -0.721 OA 
HETATM   20  O   UNL     1     -12.380  16.092  63.800  1.00  0.00    -0.864 OA 
ENDBRANCH  16  17
ENDBRANCH  15  16
ENDBRANCH  14  15
ENDBRANCH  13  14
ENDBRANCH  12  13
ENDBRANCH  11  12
ENDBRANCH  10  11
ENDBRANCH   8   9
ENDBRANCH   7   8
ENDBRANCH   5   6
ENDBRANCH   4   5
ENDBRANCH   2   3
TORSDOF 12
ENDMDL
MODEL       65
REMARK 921   NORMALIZED FREE ENERGY PREDICTED BY IDOCK:   -4.51 KCAL/MOL
REMARK 922        TOTAL FREE ENERGY PREDICTED BY IDOCK:   -9.52 KCAL/MOL
REMARK 923 INTER-LIGAND FREE ENERGY PREDICTED BY IDOCK:   -7.84 KCAL/MOL
REMARK 924 INTRA-LIGAND FREE ENERGY PREDICTED BY IDOCK:   -1.68 KCAL/MOL
REMARK 927      BINDING AFFINITY PREDICTED BY RF-SCORE:    0.00 PKD
ROOT
HETATM    1  C   UNL     1     -13.090   9.936  71.793  1.00  0.00    -0.553 C  
HETATM    2  C   UNL     1     -12.382  10.593  70.619  1.00  0.00    -0.462 C  
ENDROOT
BRANCH   2   3
HETATM    3  C   UNL     1     -10.952  10.145  70.509  1.00  0.00    -0.380 C  
HETATM    4  C   UNL     1     -10.285   9.929  69.363  1.00  0.00    -0.231 C  
BRANCH   4   5
HETATM    5  C   UNL     1     -10.884  10.069  67.992  1.00  0.00    -0.311 C  
BRANCH   5   6
HETATM    6  C   UNL     1     -10.413   8.999  67.048  1.00  0.00    -0.316 C  
HETATM    7  C   UNL     1      -9.757   9.218  65.895  1.00  0.00    -0.355 C  
BRANCH   7   8
HETATM    8  C   UNL     1      -9.438  10.586  65.362  1.00  0.00    -0.273 C  
BRANCH   8   9
HETATM    9  C   UNL     1      -9.841  10.747  63.926  1.00  0.00    -0.389 C  
HETATM   10  C   UNL     1     -10.498  11.809  63.426  1.00  0.00    -0.485 C  
BRANCH  10  11
HETATM   11  C   UNL     1     -10.856  13.018  64.243  1.00  0.00    -0.430 C  
BRANCH  11  12
HETATM   12  C   UNL     1     -12.178  12.856  64.986  1.00  0.00    -0.515 C  
BRANCH  12  13
HETATM   13  C   UNL     1     -12.262  13.854  66.141  1.00  0.00    -0.498 C  
BRANCH  13  14
HETATM   14  C   UNL     1     -11.770  13.224  67.440  1.00  0.00    -0.419 C  
BRANCH  14  15
HETATM   15  C   UNL     1     -11.046  14.244  68.319  1.00  0.00    -0.276 C  
BRANCH  15  16
HETATM   16  C   UNL     1     -11.106  15.632  67.685  1.00  0.00    -0.305 C  
BRANCH  16  17
HETATM   17  C   UNL     1      -9.713  16.179  67.391  1.00  0.00    -0.233 C  
HETATM   18  C   UNL     1      -9.615  16.726  65.984  1.00  0.00    -0.234 C  
HETATM   19  O   UNL     1     -10.521  16.748  65.166  1.00  0.00    -0.658 OA 
HETATM   20  O   UNL     1      -8.381  17.208  65.707  1.00  0.00    -0.519 OA 
ENDBRANCH  16  17
ENDBRANCH  15  16
ENDBRANCH  14  15
ENDBRANCH  13  14
ENDBRANCH  12  13
ENDBRANCH  11  12
ENDBRANCH  10  11
ENDBRANCH   8   9
ENDBRANCH   7   8
ENDBRANCH   5   6
ENDBRANCH   4   5
ENDBRANCH   2   3
TORSDOF 12
ENDMDL
MODEL       66
REMARK 921   NORMALIZED FREE ENERGY PREDICTED BY IDOCK:   -4.51 KCAL/MOL
REMARK 922        TOTAL FREE ENERGY PREDICTED BY IDOCK:   -9.51 KCAL/MOL
REMARK 923 INTER-LIGAND FREE ENERGY PREDICTED BY IDOCK:   -7.33 KCAL/MOL
REMARK 924 INTRA-LIGAND FREE ENERGY PREDICTED BY IDOCK:   -2.18 KCAL/MOL
REMARK 927      BINDING AFFINITY PREDICTED BY RF-SCORE:    0.00 PKD
ROOT
HETATM    1  C   UNL     1      -9.910  11.136  65.178  1.00  0.00    -0.307 C  
HETATM    2  C   UNL     1     -10.338  11.994  63.999  1.00  0.00    -0.406 C  
ENDROOT
BRANCH   2   3
HETATM    3  C   UNL     1     -11.833  12.044  63.858  1.00  0.00    -0.543 C  
HETATM    4  C   UNL     1     -12.654  12.881  64.514  1.00  0.00    -0.420 C  
BRANCH   4   5
HETATM    5  C   UNL     1     -12.203  13.888  65.533  1.00  0.00    -0.467 C  
BRANCH   5   6
HETATM    6  C   UNL     1     -11.534  15.078  64.907  1.00  0.00    -0.399 C  
HETATM    7  C   UNL     1     -10.308  15.533  65.223  1.00  0.00    -0.416 C  
BRANCH   7   8
HETATM    8  C   UNL     1      -9.444  14.929  66.292  1.00  0.00    -0.339 C  
BRANCH   8   9
HETATM    9  C   UNL     1      -8.517  15.933  66.911  1.00  0.00    -0.275 C  
HETATM   10  C   UNL     1      -8.904  16.960  67.690  1.00  0.00    -0.215 C  
BRANCH  10  11
HETATM   11  C   UNL     1     -10.329  17.192  68.102  1.00  0.00    -0.350 C  
BRANCH  11  12
HETATM   12  C   UNL     1     -10.738  16.352  69.307  1.00  0.00    -0.325 C  
BRANCH  12  13
HETATM   13  C   UNL     1     -11.973  15.514  68.976  1.00  0.00    -0.323 C  
BRANCH  13  14
HETATM   14  C   UNL     1     -11.952  14.193  69.738  1.00  0.00    -0.396 C  
BRANCH  14  15
HETATM   15  C   UNL     1     -11.077  13.154  69.038  1.00  0.00    -0.282 C  
BRANCH  15  16
HETATM   16  C   UNL     1     -11.842  11.845  68.859  1.00  0.00    -0.366 C  
BRANCH  16  17
HETATM   17  C   UNL     1     -11.278  10.736  69.742  1.00  0.00    -0.365 C  
HETATM   18  C   UNL     1     -12.120  10.528  70.981  1.00  0.00    -0.387 C  
HETATM   19  O   UNL     1     -13.133  11.149  71.264  1.00  0.00    -0.366 OA 
HETATM   20  O   UNL     1     -11.626   9.553  71.779  1.00  0.00    -0.385 OA 
ENDBRANCH  16  17
ENDBRANCH  15  16
ENDBRANCH  14  15
ENDBRANCH  13  14
ENDBRANCH  12  13
ENDBRANCH  11  12
ENDBRANCH  10  11
ENDBRANCH   8   9
ENDBRANCH   7   8
ENDBRANCH   5   6
ENDBRANCH   4   5
ENDBRANCH   2   3
TORSDOF 12
ENDMDL
MODEL       67
REMARK 921   NORMALIZED FREE ENERGY PREDICTED BY IDOCK:   -4.50 KCAL/MOL
REMARK 922        TOTAL FREE ENERGY PREDICTED BY IDOCK:   -9.50 KCAL/MOL
REMARK 923 INTER-LIGAND FREE ENERGY PREDICTED BY IDOCK:   -7.29 KCAL/MOL
REMARK 924 INTRA-LIGAND FREE ENERGY PREDICTED BY IDOCK:   -2.21 KCAL/MOL
REMARK 927      BINDING AFFINITY PREDICTED BY RF-SCORE:    0.00 PKD
ROOT
HETATM    1  C   UNL     1     -10.928   7.664  70.608  1.00  0.00    -0.259 C  
HETATM    2  C   UNL     1     -11.169   9.032  71.226  1.00  0.00    -0.385 C  
ENDROOT
BRANCH   2   3
HETATM    3  C   UNL     1     -12.533   9.130  71.849  1.00  0.00    -0.459 C  
HETATM    4  C   UNL     1     -13.280  10.244  71.927  1.00  0.00    -0.550 C  
BRANCH   4   5
HETATM    5  C   UNL     1     -12.848  11.594  71.429  1.00  0.00    -0.461 C  
BRANCH   5   6
HETATM    6  C   UNL     1     -13.433  12.717  72.236  1.00  0.00    -0.591 C  
HETATM    7  C   UNL     1     -13.466  14.007  71.857  1.00  0.00    -0.506 C  
BRANCH   7   8
HETATM    8  C   UNL     1     -12.876  14.516  70.573  1.00  0.00    -0.361 C  
BRANCH   8   9
HETATM    9  C   UNL     1     -11.525  15.137  70.772  1.00  0.00    -0.350 C  
HETATM   10  C   UNL     1     -10.831  15.789  69.822  1.00  0.00    -0.314 C  
BRANCH  10  11
HETATM   11  C   UNL     1     -11.361  16.043  68.439  1.00  0.00    -0.355 C  
BRANCH  11  12
HETATM   12  C   UNL     1     -10.286  15.915  67.365  1.00  0.00    -0.288 C  
BRANCH  12  13
HETATM   13  C   UNL     1     -10.736  14.939  66.277  1.00  0.00    -0.320 C  
BRANCH  13  14
HETATM   14  C   UNL     1     -12.009  14.211  66.695  1.00  0.00    -0.470 C  
BRANCH  14  15
HETATM   15  C   UNL     1     -11.835  12.694  66.625  1.00  0.00    -0.449 C  
BRANCH  15  16
HETATM   16  C   UNL     1     -11.767  12.100  68.030  1.00  0.00    -0.409 C  
BRANCH  16  17
HETATM   17  C   UNL     1     -10.345  11.691  68.402  1.00  0.00    -0.215 C  
HETATM   18  C   UNL     1     -10.048  10.267  67.987  1.00  0.00    -0.162 C  
HETATM   19  O   UNL     1     -10.824   9.517  67.418  1.00  0.00    -0.269 OA 
HETATM   20  O   UNL     1      -8.791   9.889  68.319  1.00  0.00    -0.118 OA 
ENDBRANCH  16  17
ENDBRANCH  15  16
ENDBRANCH  14  15
ENDBRANCH  13  14
ENDBRANCH  12  13
ENDBRANCH  11  12
ENDBRANCH  10  11
ENDBRANCH   8   9
ENDBRANCH   7   8
ENDBRANCH   5   6
ENDBRANCH   4   5
ENDBRANCH   2   3
TORSDOF 12
ENDMDL
MODEL       68
REMARK 921   NORMALIZED FREE ENERGY PREDICTED BY IDOCK:   -4.50 KCAL/MOL
REMARK 922        TOTAL FREE ENERGY PREDICTED BY IDOCK:   -9.49 KCAL/MOL
REMARK 923 INTER-LIGAND FREE ENERGY PREDICTED BY IDOCK:   -7.71 KCAL/MOL
REMARK 924 INTRA-LIGAND FREE ENERGY PREDICTED BY IDOCK:   -1.78 KCAL/MOL
REMARK 927      BINDING AFFINITY PREDICTED BY RF-SCORE:    0.00 PKD
ROOT
HETATM    1  C   UNL     1     -13.020  15.216  70.787  1.00  0.00    -0.468 C  
HETATM    2  C   UNL     1     -12.022  15.144  69.643  1.00  0.00    -0.359 C  
ENDROOT
BRANCH   2   3
HETATM    3  C   UNL     1     -11.813  13.732  69.174  1.00  0.00    -0.398 C  
HETATM    4  C   UNL     1     -11.751  13.333  67.893  1.00  0.00    -0.395 C  
BRANCH   4   5
HETATM    5  C   UNL     1     -11.920  14.244  66.710  1.00  0.00    -0.462 C  
BRANCH   5   6
HETATM    6  C   UNL     1     -12.785  13.642  65.640  1.00  0.00    -0.505 C  
HETATM    7  C   UNL     1     -12.333  12.971  64.566  1.00  0.00    -0.461 C  
BRANCH   7   8
HETATM    8  C   UNL     1     -10.877  12.764  64.262  1.00  0.00    -0.419 C  
BRANCH   8   9
HETATM    9  C   UNL     1     -10.562  11.338  63.921  1.00  0.00    -0.455 C  
HETATM   10  C   UNL     1      -9.981  10.458  64.757  1.00  0.00    -0.409 C  
BRANCH  10  11
HETATM   11  C   UNL     1      -9.635  10.778  66.183  1.00  0.00    -0.236 C  
BRANCH  11  12
HETATM   12  C   UNL     1     -10.625  10.180  67.177  1.00  0.00    -0.308 C  
BRANCH  12  13
HETATM   13  C   UNL     1     -10.527   8.654  67.171  1.00  0.00    -0.360 C  
BRANCH  13  14
HETATM   14  C   UNL     1     -10.003   8.139  68.508  1.00  0.00    -0.204 C  
BRANCH  14  15
HETATM   15  C   UNL     1      -9.990   9.241  69.566  1.00  0.00    -0.194 C  
BRANCH  15  16
HETATM   16  C   UNL     1     -11.256   9.179  70.418  1.00  0.00    -0.279 C  
BRANCH  16  17
HETATM   17  C   UNL     1     -11.792  10.571  70.735  1.00  0.00    -0.465 C  
HETATM   18  C   UNL     1     -12.933  10.516  71.727  1.00  0.00    -0.476 C  
HETATM   19  O   UNL     1     -13.386   9.501  72.233  1.00  0.00    -0.438 OA 
HETATM   20  O   UNL     1     -13.425  11.744  72.011  1.00  0.00    -0.422 OA 
ENDBRANCH  16  17
ENDBRANCH  15  16
ENDBRANCH  14  15
ENDBRANCH  13  14
ENDBRANCH  12  13
ENDBRANCH  11  12
ENDBRANCH  10  11
ENDBRANCH   8   9
ENDBRANCH   7   8
ENDBRANCH   5   6
ENDBRANCH   4   5
ENDBRANCH   2   3
TORSDOF 12
ENDMDL
MODEL       69
REMARK 921   NORMALIZED FREE ENERGY PREDICTED BY IDOCK:   -4.49 KCAL/MOL
REMARK 922        TOTAL FREE ENERGY PREDICTED BY IDOCK:   -9.48 KCAL/MOL
REMARK 923 INTER-LIGAND FREE ENERGY PREDICTED BY IDOCK:   -7.96 KCAL/MOL
REMARK 924 INTRA-LIGAND FREE ENERGY PREDICTED BY IDOCK:   -1.51 KCAL/MOL
REMARK 927      BINDING AFFINITY PREDICTED BY RF-SCORE:    0.00 PKD
ROOT
HETATM    1  C   UNL     1     -10.236   7.767  68.583  1.00  0.00    -0.217 C  
HETATM    2  C   UNL     1     -11.092   6.541  68.857  1.00  0.00    -0.371 C  
ENDROOT
BRANCH   2   3
HETATM    3  C   UNL     1     -10.308   5.455  69.538  1.00  0.00    -0.350 C  
HETATM    4  C   UNL     1     -10.383   5.134  70.840  1.00  0.00    -0.282 C  
BRANCH   4   5
HETATM    5  C   UNL     1     -11.247   5.845  71.843  1.00  0.00    -0.323 C  
BRANCH   5   6
HETATM    6  C   UNL     1     -10.497   6.903  72.600  1.00  0.00    -0.243 C  
HETATM    7  C   UNL     1     -10.924   8.163  72.799  1.00  0.00    -0.401 C  
BRANCH   7   8
HETATM    8  C   UNL     1     -12.210   8.706  72.245  1.00  0.00    -0.447 C  
BRANCH   8   9
HETATM    9  C   UNL     1     -11.997   9.532  71.011  1.00  0.00    -0.407 C  
HETATM   10  C   UNL     1     -12.460  10.782  70.833  1.00  0.00    -0.500 C  
BRANCH  10  11
HETATM   11  C   UNL     1     -13.200  11.548  71.893  1.00  0.00    -0.479 C  
BRANCH  11  12
HETATM   12  C   UNL     1     -13.051  13.058  71.739  1.00  0.00    -0.469 C  
BRANCH  12  13
HETATM   13  C   UNL     1     -12.206  13.385  70.508  1.00  0.00    -0.425 C  
BRANCH  13  14
HETATM   14  C   UNL     1     -11.892  14.876  70.446  1.00  0.00    -0.352 C  
BRANCH  14  15
HETATM   15  C   UNL     1     -11.781  15.366  69.003  1.00  0.00    -0.380 C  
BRANCH  15  16
HETATM   16  C   UNL     1     -11.487  14.198  68.064  1.00  0.00    -0.342 C  
BRANCH  16  17
HETATM   17  C   UNL     1     -12.167  14.377  66.710  1.00  0.00    -0.319 C  
HETATM   18  C   UNL     1     -12.327  13.058  65.988  1.00  0.00    -0.319 C  
HETATM   19  O   UNL     1     -11.973  11.969  66.412  1.00  0.00    -0.611 OA 
HETATM   20  O   UNL     1     -12.921  13.202  64.781  1.00  0.00    -0.725 OA 
ENDBRANCH  16  17
ENDBRANCH  15  16
ENDBRANCH  14  15
ENDBRANCH  13  14
ENDBRANCH  12  13
ENDBRANCH  11  12
ENDBRANCH  10  11
ENDBRANCH   8   9
ENDBRANCH   7   8
ENDBRANCH   5   6
ENDBRANCH   4   5
ENDBRANCH   2   3
TORSDOF 12
ENDMDL
MODEL       70
REMARK 921   NORMALIZED FREE ENERGY PREDICTED BY IDOCK:   -4.47 KCAL/MOL
REMARK 922        TOTAL FREE ENERGY PREDICTED BY IDOCK:   -9.45 KCAL/MOL
REMARK 923 INTER-LIGAND FREE ENERGY PREDICTED BY IDOCK:   -7.87 KCAL/MOL
REMARK 924 INTRA-LIGAND FREE ENERGY PREDICTED BY IDOCK:   -1.59 KCAL/MOL
REMARK 927      BINDING AFFINITY PREDICTED BY RF-SCORE:    0.00 PKD
ROOT
HETATM    1  C   UNL     1     -10.689  18.986  67.382  1.00  0.00    -0.559 C  
HETATM    2  C   UNL     1     -10.503  17.478  67.357  1.00  0.00    -0.342 C  
ENDROOT
BRANCH   2   3
HETATM    3  C   UNL     1     -10.411  16.950  65.953  1.00  0.00    -0.327 C  
HETATM    4  C   UNL     1     -10.742  15.709  65.560  1.00  0.00    -0.403 C  
BRANCH   4   5
HETATM    5  C   UNL     1     -11.230  14.627  66.481  1.00  0.00    -0.346 C  
BRANCH   5   6
HETATM    6  C   UNL     1     -12.437  13.915  65.943  1.00  0.00    -0.519 C  
HETATM    7  C   UNL     1     -12.446  13.114  64.862  1.00  0.00    -0.490 C  
BRANCH   7   8
HETATM    8  C   UNL     1     -11.239  12.852  64.007  1.00  0.00    -0.458 C  
BRANCH   8   9
HETATM    9  C   UNL     1     -10.993  11.386  63.801  1.00  0.00    -0.448 C  
HETATM   10  C   UNL     1     -10.152  10.637  64.536  1.00  0.00    -0.421 C  
BRANCH  10  11
HETATM   11  C   UNL     1      -9.394  11.166  65.720  1.00  0.00    -0.238 C  
BRANCH  11  12
HETATM   12  C   UNL     1      -9.841  10.534  67.034  1.00  0.00    -0.223 C  
BRANCH  12  13
HETATM   13  C   UNL     1     -10.186  11.620  68.054  1.00  0.00    -0.202 C  
BRANCH  13  14
HETATM   14  C   UNL     1     -11.601  11.430  68.591  1.00  0.00    -0.384 C  
BRANCH  14  15
HETATM   15  C   UNL     1     -11.809  12.190  69.901  1.00  0.00    -0.392 C  
BRANCH  15  16
HETATM   16  C   UNL     1     -12.614  11.343  70.885  1.00  0.00    -0.453 C  
BRANCH  16  17
HETATM   17  C   UNL     1     -11.898  10.039  71.225  1.00  0.00    -0.471 C  
HETATM   18  C   UNL     1     -12.763   9.134  72.073  1.00  0.00    -0.398 C  
HETATM   19  O   UNL     1     -13.898   9.384  72.449  1.00  0.00    -0.451 OA 
HETATM   20  O   UNL     1     -12.138   7.976  72.390  1.00  0.00    -0.340 OA 
ENDBRANCH  16  17
ENDBRANCH  15  16
ENDBRANCH  14  15
ENDBRANCH  13  14
ENDBRANCH  12  13
ENDBRANCH  11  12
ENDBRANCH  10  11
ENDBRANCH   8   9
ENDBRANCH   7   8
ENDBRANCH   5   6
ENDBRANCH   4   5
ENDBRANCH   2   3
TORSDOF 12
ENDMDL
MODEL       71
REMARK 921   NORMALIZED FREE ENERGY PREDICTED BY IDOCK:   -4.47 KCAL/MOL
REMARK 922        TOTAL FREE ENERGY PREDICTED BY IDOCK:   -9.44 KCAL/MOL
REMARK 923 INTER-LIGAND FREE ENERGY PREDICTED BY IDOCK:   -7.32 KCAL/MOL
REMARK 924 INTRA-LIGAND FREE ENERGY PREDICTED BY IDOCK:   -2.12 KCAL/MOL
REMARK 927      BINDING AFFINITY PREDICTED BY RF-SCORE:    0.00 PKD
ROOT
HETATM    1  C   UNL     1     -10.991   5.901  70.127  1.00  0.00    -0.412 C  
HETATM    2  C   UNL     1     -10.642   7.380  70.135  1.00  0.00    -0.240 C  
ENDROOT
BRANCH   2   3
HETATM    3  C   UNL     1     -10.464   7.904  71.532  1.00  0.00    -0.251 C  
HETATM    4  C   UNL     1     -11.319   8.712  72.180  1.00  0.00    -0.434 C  
BRANCH   4   5
HETATM    5  C   UNL     1     -12.589   9.256  71.588  1.00  0.00    -0.446 C  
BRANCH   5   6
HETATM    6  C   UNL     1     -12.594  10.756  71.520  1.00  0.00    -0.500 C  
HETATM    7  C   UNL     1     -12.276  11.483  70.434  1.00  0.00    -0.442 C  
BRANCH   7   8
HETATM    8  C   UNL     1     -11.823  10.886  69.133  1.00  0.00    -0.389 C  
BRANCH   8   9
HETATM    9  C   UNL     1     -10.352  11.073  68.900  1.00  0.00    -0.223 C  
HETATM   10  C   UNL     1      -9.746  10.984  67.702  1.00  0.00    -0.184 C  
BRANCH  10  11
HETATM   11  C   UNL     1     -10.488  10.753  66.416  1.00  0.00    -0.293 C  
BRANCH  11  12
HETATM   12  C   UNL     1     -10.570  12.006  65.551  1.00  0.00    -0.313 C  
BRANCH  12  13
HETATM   13  C   UNL     1     -12.029  12.419  65.353  1.00  0.00    -0.457 C  
BRANCH  13  14
HETATM   14  C   UNL     1     -12.270  13.830  65.880  1.00  0.00    -0.501 C  
BRANCH  14  15
HETATM   15  C   UNL     1     -12.154  13.887  67.403  1.00  0.00    -0.380 C  
BRANCH  15  16
HETATM   16  C   UNL     1     -11.311  15.087  67.829  1.00  0.00    -0.340 C  
BRANCH  16  17
HETATM   17  C   UNL     1     -10.564  15.700  66.649  1.00  0.00    -0.307 C  
HETATM   18  C   UNL     1     -10.294  17.173  66.863  1.00  0.00    -0.308 C  
HETATM   19  O   UNL     1     -10.616  17.817  67.850  1.00  0.00    -0.386 OA 
HETATM   20  O   UNL     1      -9.639  17.732  65.819  1.00  0.00    -0.519 OA 
ENDBRANCH  16  17
ENDBRANCH  15  16
ENDBRANCH  14  15
ENDBRANCH  13  14
ENDBRANCH  12  13
ENDBRANCH  11  12
ENDBRANCH  10  11
ENDBRANCH   8   9
ENDBRANCH   7   8
ENDBRANCH   5   6
ENDBRANCH   4   5
ENDBRANCH   2   3
TORSDOF 12
ENDMDL
MODEL       72
REMARK 921   NORMALIZED FREE ENERGY PREDICTED BY IDOCK:   -4.46 KCAL/MOL
REMARK 922        TOTAL FREE ENERGY PREDICTED BY IDOCK:   -9.43 KCAL/MOL
REMARK 923 INTER-LIGAND FREE ENERGY PREDICTED BY IDOCK:   -8.39 KCAL/MOL
REMARK 924 INTRA-LIGAND FREE ENERGY PREDICTED BY IDOCK:   -1.04 KCAL/MOL
REMARK 927      BINDING AFFINITY PREDICTED BY RF-SCORE:    0.00 PKD
ROOT
HETATM    1  C   UNL     1      -9.693  11.666  63.200  1.00  0.00    -0.385 C  
HETATM    2  C   UNL     1     -10.882  11.238  64.046  1.00  0.00    -0.414 C  
ENDROOT
BRANCH   2   3
HETATM    3  C   UNL     1     -12.085  12.103  63.795  1.00  0.00    -0.620 C  
HETATM    4  C   UNL     1     -12.605  12.991  64.658  1.00  0.00    -0.425 C  
BRANCH   4   5
HETATM    5  C   UNL     1     -12.079  13.238  66.044  1.00  0.00    -0.491 C  
BRANCH   5   6
HETATM    6  C   UNL     1     -11.267  14.499  66.134  1.00  0.00    -0.339 C  
HETATM    7  C   UNL     1     -11.049  15.201  67.259  1.00  0.00    -0.332 C  
BRANCH   7   8
HETATM    8  C   UNL     1     -11.633  14.840  68.595  1.00  0.00    -0.345 C  
BRANCH   8   9
HETATM    9  C   UNL     1     -10.837  15.400  69.737  1.00  0.00    -0.297 C  
HETATM   10  C   UNL     1     -11.346  15.744  70.934  1.00  0.00    -0.426 C  
BRANCH  10  11
HETATM   11  C   UNL     1     -12.786  15.540  71.308  1.00  0.00    -0.540 C  
BRANCH  11  12
HETATM   12  C   UNL     1     -12.956  14.638  72.525  1.00  0.00    -0.492 C  
BRANCH  12  13
HETATM   13  C   UNL     1     -13.717  13.368  72.143  1.00  0.00    -0.646 C  
BRANCH  13  14
HETATM   14  C   UNL     1     -12.816  12.404  71.379  1.00  0.00    -0.360 C  
BRANCH  14  15
HETATM   15  C   UNL     1     -13.137  10.949  71.719  1.00  0.00    -0.564 C  
BRANCH  15  16
HETATM   16  C   UNL     1     -11.953  10.047  71.375  1.00  0.00    -0.470 C  
BRANCH  16  17
HETATM   17  C   UNL     1     -12.162   8.623  71.881  1.00  0.00    -0.419 C  
HETATM   18  C   UNL     1     -10.857   7.984  72.300  1.00  0.00    -0.305 C  
HETATM   19  O   UNL     1      -9.759   8.516  72.258  1.00  0.00    -0.280 OA 
HETATM   20  O   UNL     1     -11.026   6.716  72.743  1.00  0.00    -0.241 OA 
ENDBRANCH  16  17
ENDBRANCH  15  16
ENDBRANCH  14  15
ENDBRANCH  13  14
ENDBRANCH  12  13
ENDBRANCH  11  12
ENDBRANCH  10  11
ENDBRANCH   8   9
ENDBRANCH   7   8
ENDBRANCH   5   6
ENDBRANCH   4   5
ENDBRANCH   2   3
TORSDOF 12
ENDMDL
MODEL       73
REMARK 921   NORMALIZED FREE ENERGY PREDICTED BY IDOCK:   -4.45 KCAL/MOL
REMARK 922        TOTAL FREE ENERGY PREDICTED BY IDOCK:   -9.42 KCAL/MOL
REMARK 923 INTER-LIGAND FREE ENERGY PREDICTED BY IDOCK:   -7.83 KCAL/MOL
REMARK 924 INTRA-LIGAND FREE ENERGY PREDICTED BY IDOCK:   -1.59 KCAL/MOL
REMARK 927      BINDING AFFINITY PREDICTED BY RF-SCORE:    0.00 PKD
ROOT
HETATM    1  C   UNL     1      -9.826  20.121  67.022  1.00  0.00    -0.595 C  
HETATM    2  C   UNL     1      -9.815  18.884  67.906  1.00  0.00    -0.398 C  
ENDROOT
BRANCH   2   3
HETATM    3  C   UNL     1     -10.472  17.712  67.233  1.00  0.00    -0.338 C  
HETATM    4  C   UNL     1     -10.891  16.592  67.845  1.00  0.00    -0.326 C  
BRANCH   4   5
HETATM    5  C   UNL     1     -10.734  16.316  69.313  1.00  0.00    -0.307 C  
BRANCH   5   6
HETATM    6  C   UNL     1     -11.967  15.706  69.918  1.00  0.00    -0.376 C  
HETATM    7  C   UNL     1     -12.248  14.391  69.943  1.00  0.00    -0.394 C  
BRANCH   7   8
HETATM    8  C   UNL     1     -11.374  13.339  69.323  1.00  0.00    -0.311 C  
BRANCH   8   9
HETATM    9  C   UNL     1     -11.788  13.008  67.918  1.00  0.00    -0.389 C  
HETATM   10  C   UNL     1     -11.660  11.798  67.344  1.00  0.00    -0.352 C  
BRANCH  10  11
HETATM   11  C   UNL     1     -11.145  10.589  68.071  1.00  0.00    -0.361 C  
BRANCH  11  12
HETATM   12  C   UNL     1     -10.125   9.802  67.254  1.00  0.00    -0.261 C  
BRANCH  12  13
HETATM   13  C   UNL     1      -9.130  10.754  66.589  1.00  0.00    -0.174 C  
BRANCH  13  14
HETATM   14  C   UNL     1      -8.955  10.412  65.113  1.00  0.00    -0.217 C  
BRANCH  14  15
HETATM   15  C   UNL     1     -10.256  10.609  64.335  1.00  0.00    -0.400 C  
BRANCH  15  16
HETATM   16  C   UNL     1     -10.184  11.880  63.491  1.00  0.00    -0.485 C  
BRANCH  16  17
HETATM   17  C   UNL     1     -10.675  13.100  64.265  1.00  0.00    -0.431 C  
HETATM   18  C   UNL     1     -12.143  13.366  64.013  1.00  0.00    -0.449 C  
HETATM   19  O   UNL     1     -12.871  12.702  63.292  1.00  0.00    -0.643 OA 
HETATM   20  O   UNL     1     -12.590  14.451  64.687  1.00  0.00    -0.622 OA 
ENDBRANCH  16  17
ENDBRANCH  15  16
ENDBRANCH  14  15
ENDBRANCH  13  14
ENDBRANCH  12  13
ENDBRANCH  11  12
ENDBRANCH  10  11
ENDBRANCH   8   9
ENDBRANCH   7   8
ENDBRANCH   5   6
ENDBRANCH   4   5
ENDBRANCH   2   3
TORSDOF 12
ENDMDL
MODEL       74
REMARK 921   NORMALIZED FREE ENERGY PREDICTED BY IDOCK:   -4.45 KCAL/MOL
REMARK 922        TOTAL FREE ENERGY PREDICTED BY IDOCK:   -9.42 KCAL/MOL
REMARK 923 INTER-LIGAND FREE ENERGY PREDICTED BY IDOCK:   -7.32 KCAL/MOL
REMARK 924 INTRA-LIGAND FREE ENERGY PREDICTED BY IDOCK:   -2.10 KCAL/MOL
REMARK 927      BINDING AFFINITY PREDICTED BY RF-SCORE:    0.00 PKD
ROOT
HETATM    1  C   UNL     1     -10.846   5.835  70.445  1.00  0.00    -0.360 C  
HETATM    2  C   UNL     1     -10.442   7.287  70.246  1.00  0.00    -0.231 C  
ENDROOT
BRANCH   2   3
HETATM    3  C   UNL     1     -10.295   8.009  71.556  1.00  0.00    -0.258 C  
HETATM    4  C   UNL     1     -11.208   8.828  72.104  1.00  0.00    -0.408 C  
BRANCH   4   5
HETATM    5  C   UNL     1     -12.522   9.184  71.469  1.00  0.00    -0.418 C  
BRANCH   5   6
HETATM    6  C   UNL     1     -12.687  10.665  71.280  1.00  0.00    -0.537 C  
HETATM    7  C   UNL     1     -12.240  11.365  70.222  1.00  0.00    -0.433 C  
BRANCH   7   8
HETATM    8  C   UNL     1     -11.467  10.760  69.087  1.00  0.00    -0.368 C  
BRANCH   8   9
HETATM    9  C   UNL     1     -10.034  11.207  69.069  1.00  0.00    -0.155 C  
HETATM   10  C   UNL     1      -9.512  12.080  68.189  1.00  0.00    -0.200 C  
BRANCH  10  11
HETATM   11  C   UNL     1     -10.327  12.782  67.140  1.00  0.00    -0.237 C  
BRANCH  11  12
HETATM   12  C   UNL     1     -10.851  14.135  67.611  1.00  0.00    -0.266 C  
BRANCH  12  13
HETATM   13  C   UNL     1      -9.911  14.733  68.657  1.00  0.00    -0.225 C  
BRANCH  13  14
HETATM   14  C   UNL     1     -10.689  15.195  69.885  1.00  0.00    -0.274 C  
BRANCH  14  15
HETATM   15  C   UNL     1     -12.129  15.565  69.529  1.00  0.00    -0.326 C  
BRANCH  15  16
HETATM   16  C   UNL     1     -13.044  15.365  70.735  1.00  0.00    -0.479 C  
BRANCH  16  17
HETATM   17  C   UNL     1     -12.253  15.031  71.996  1.00  0.00    -0.436 C  
HETATM   18  C   UNL     1     -12.914  15.594  73.234  1.00  0.00    -0.550 C  
HETATM   19  O   UNL     1     -13.954  16.234  73.256  1.00  0.00    -0.511 OA 
HETATM   20  O   UNL     1     -12.218  15.312  74.360  1.00  0.00    -0.642 OA 
ENDBRANCH  16  17
ENDBRANCH  15  16
ENDBRANCH  14  15
ENDBRANCH  13  14
ENDBRANCH  12  13
ENDBRANCH  11  12
ENDBRANCH  10  11
ENDBRANCH   8   9
ENDBRANCH   7   8
ENDBRANCH   5   6
ENDBRANCH   4   5
ENDBRANCH   2   3
TORSDOF 12
ENDMDL
MODEL       75
REMARK 921   NORMALIZED FREE ENERGY PREDICTED BY IDOCK:   -4.45 KCAL/MOL
REMARK 922        TOTAL FREE ENERGY PREDICTED BY IDOCK:   -9.41 KCAL/MOL
REMARK 923 INTER-LIGAND FREE ENERGY PREDICTED BY IDOCK:   -7.63 KCAL/MOL
REMARK 924 INTRA-LIGAND FREE ENERGY PREDICTED BY IDOCK:   -1.78 KCAL/MOL
REMARK 927      BINDING AFFINITY PREDICTED BY RF-SCORE:    0.00 PKD
ROOT
HETATM    1  C   UNL     1      -9.989   8.544  66.642  1.00  0.00    -0.363 C  
HETATM    2  C   UNL     1      -9.730   7.155  67.202  1.00  0.00    -0.212 C  
ENDROOT
BRANCH   2   3
HETATM    3  C   UNL     1     -10.990   6.515  67.713  1.00  0.00    -0.407 C  
HETATM    4  C   UNL     1     -11.281   6.281  69.004  1.00  0.00    -0.415 C  
BRANCH   4   5
HETATM    5  C   UNL     1     -10.363   6.592  70.152  1.00  0.00    -0.236 C  
BRANCH   5   6
HETATM    6  C   UNL     1     -10.796   5.930  71.429  1.00  0.00    -0.332 C  
HETATM    7  C   UNL     1     -11.321   6.565  72.491  1.00  0.00    -0.299 C  
BRANCH   7   8
HETATM    8  C   UNL     1     -11.511   8.053  72.565  1.00  0.00    -0.471 C  
BRANCH   8   9
HETATM    9  C   UNL     1     -12.837   8.488  72.013  1.00  0.00    -0.414 C  
HETATM   10  C   UNL     1     -13.046   9.619  71.316  1.00  0.00    -0.437 C  
BRANCH  10  11
HETATM   11  C   UNL     1     -11.946  10.569  70.935  1.00  0.00    -0.481 C  
BRANCH  11  12
HETATM   12  C   UNL     1     -11.306  10.221  69.595  1.00  0.00    -0.315 C  
BRANCH  12  13
HETATM   13  C   UNL     1     -10.713  11.474  68.949  1.00  0.00    -0.245 C  
BRANCH  13  14
HETATM   14  C   UNL     1     -11.800  12.508  68.674  1.00  0.00    -0.340 C  
BRANCH  14  15
HETATM   15  C   UNL     1     -11.467  13.855  69.314  1.00  0.00    -0.348 C  
BRANCH  15  16
HETATM   16  C   UNL     1     -12.503  14.211  70.378  1.00  0.00    -0.424 C  
BRANCH  16  17
HETATM   17  C   UNL     1     -11.885  15.004  71.526  1.00  0.00    -0.429 C  
HETATM   18  C   UNL     1     -12.944  15.659  72.384  1.00  0.00    -0.448 C  
HETATM   19  O   UNL     1     -14.149  15.577  72.211  1.00  0.00    -0.529 OA 
HETATM   20  O   UNL     1     -12.409  16.373  73.402  1.00  0.00    -0.488 OA 
ENDBRANCH  16  17
ENDBRANCH  15  16
ENDBRANCH  14  15
ENDBRANCH  13  14
ENDBRANCH  12  13
ENDBRANCH  11  12
ENDBRANCH  10  11
ENDBRANCH   8   9
ENDBRANCH   7   8
ENDBRANCH   5   6
ENDBRANCH   4   5
ENDBRANCH   2   3
TORSDOF 12
ENDMDL
MODEL       76
REMARK 921   NORMALIZED FREE ENERGY PREDICTED BY IDOCK:   -4.44 KCAL/MOL
REMARK 922        TOTAL FREE ENERGY PREDICTED BY IDOCK:   -9.40 KCAL/MOL
REMARK 923 INTER-LIGAND FREE ENERGY PREDICTED BY IDOCK:   -7.31 KCAL/MOL
REMARK 924 INTRA-LIGAND FREE ENERGY PREDICTED BY IDOCK:   -2.09 KCAL/MOL
REMARK 927      BINDING AFFINITY PREDICTED BY RF-SCORE:    0.00 PKD
ROOT
HETATM    1  C   UNL     1      -8.806   9.731  69.715  1.00  0.00    -0.241 C  
HETATM    2  C   UNL     1      -9.116   9.101  68.366  1.00  0.00    -0.132 C  
ENDROOT
BRANCH   2   3
HETATM    3  C   UNL     1     -10.531   9.367  67.939  1.00  0.00    -0.296 C  
HETATM    4  C   UNL     1     -10.907  10.184  66.941  1.00  0.00    -0.176 C  
BRANCH   4   5
HETATM    5  C   UNL     1      -9.960  11.001  66.109  1.00  0.00    -0.277 C  
BRANCH   5   6
HETATM    6  C   UNL     1     -10.295  10.953  64.645  1.00  0.00    -0.407 C  
HETATM    7  C   UNL     1     -11.287  11.643  64.055  1.00  0.00    -0.428 C  
BRANCH   7   8
HETATM    8  C   UNL     1     -12.239  12.537  64.797  1.00  0.00    -0.532 C  
BRANCH   8   9
HETATM    9  C   UNL     1     -12.096  13.977  64.402  1.00  0.00    -0.486 C  
HETATM   10  C   UNL     1     -11.347  14.883  65.055  1.00  0.00    -0.398 C  
BRANCH  10  11
HETATM   11  C   UNL     1     -10.489  14.545  66.241  1.00  0.00    -0.303 C  
BRANCH  11  12
HETATM   12  C   UNL     1     -11.032  15.122  67.544  1.00  0.00    -0.310 C  
BRANCH  12  13
HETATM   13  C   UNL     1     -12.016  14.145  68.187  1.00  0.00    -0.367 C  
BRANCH  13  14
HETATM   14  C   UNL     1     -11.296  13.202  69.146  1.00  0.00    -0.335 C  
BRANCH  14  15
HETATM   15  C   UNL     1     -12.172  12.845  70.345  1.00  0.00    -0.381 C  
BRANCH  15  16
HETATM   16  C   UNL     1     -12.129  11.341  70.609  1.00  0.00    -0.480 C  
BRANCH  16  17
HETATM   17  C   UNL     1     -13.084  10.936  71.727  1.00  0.00    -0.564 C  
HETATM   18  C   UNL     1     -13.224   9.433  71.824  1.00  0.00    -0.411 C  
HETATM   19  O   UNL     1     -12.652   8.620  71.116  1.00  0.00    -0.260 OA 
HETATM   20  O   UNL     1     -14.075   9.059  72.808  1.00  0.00    -0.524 OA 
ENDBRANCH  16  17
ENDBRANCH  15  16
ENDBRANCH  14  15
ENDBRANCH  13  14
ENDBRANCH  12  13
ENDBRANCH  11  12
ENDBRANCH  10  11
ENDBRANCH   8   9
ENDBRANCH   7   8
ENDBRANCH   5   6
ENDBRANCH   4   5
ENDBRANCH   2   3
TORSDOF 12
ENDMDL
MODEL       77
REMARK 921   NORMALIZED FREE ENERGY PREDICTED BY IDOCK:   -4.42 KCAL/MOL
REMARK 922        TOTAL FREE ENERGY PREDICTED BY IDOCK:   -9.37 KCAL/MOL
REMARK 923 INTER-LIGAND FREE ENERGY PREDICTED BY IDOCK:   -7.03 KCAL/MOL
REMARK 924 INTRA-LIGAND FREE ENERGY PREDICTED BY IDOCK:   -2.33 KCAL/MOL
REMARK 927      BINDING AFFINITY PREDICTED BY RF-SCORE:    0.00 PKD
ROOT
HETATM    1  C   UNL     1     -11.866   7.215  71.273  1.00  0.00    -0.355 C  
HETATM    2  C   UNL     1     -11.700   8.453  72.139  1.00  0.00    -0.442 C  
ENDROOT
BRANCH   2   3
HETATM    3  C   UNL     1     -12.994   9.201  72.297  1.00  0.00    -0.492 C  
HETATM    4  C   UNL     1     -13.251  10.430  71.819  1.00  0.00    -0.529 C  
BRANCH   4   5
HETATM    5  C   UNL     1     -12.259  11.277  71.074  1.00  0.00    -0.417 C  
BRANCH   5   6
HETATM    6  C   UNL     1     -12.403  11.151  69.584  1.00  0.00    -0.287 C  
HETATM    7  C   UNL     1     -11.441  10.722  68.747  1.00  0.00    -0.364 C  
BRANCH   7   8
HETATM    8  C   UNL     1     -10.057  10.345  69.189  1.00  0.00    -0.236 C  
BRANCH   8   9
HETATM    9  C   UNL     1      -9.215   9.835  68.056  1.00  0.00    -0.131 C  
HETATM   10  C   UNL     1      -8.215  10.519  67.472  1.00  0.00    -0.114 C  
BRANCH  10  11
HETATM   11  C   UNL     1      -7.762  11.875  67.935  1.00  0.00    -0.131 C  
BRANCH  11  12
HETATM   12  C   UNL     1      -8.523  13.011  67.259  1.00  0.00    -0.199 C  
BRANCH  12  13
HETATM   13  C   UNL     1      -9.043  13.997  68.306  1.00  0.00    -0.191 C  
BRANCH  13  14
HETATM   14  C   UNL     1     -10.557  14.154  68.199  1.00  0.00    -0.249 C  
BRANCH  14  15
HETATM   15  C   UNL     1     -10.974  14.612  66.802  1.00  0.00    -0.323 C  
BRANCH  15  16
HETATM   16  C   UNL     1     -12.315  13.990  66.415  1.00  0.00    -0.468 C  
BRANCH  16  17
HETATM   17  C   UNL     1     -12.132  12.736  65.566  1.00  0.00    -0.517 C  
HETATM   18  C   UNL     1     -12.181  13.051  64.088  1.00  0.00    -0.401 C  
HETATM   19  O   UNL     1     -12.338  14.161  63.604  1.00  0.00    -0.741 OA 
HETATM   20  O   UNL     1     -12.029  11.945  63.323  1.00  0.00    -0.445 OA 
ENDBRANCH  16  17
ENDBRANCH  15  16
ENDBRANCH  14  15
ENDBRANCH  13  14
ENDBRANCH  12  13
ENDBRANCH  11  12
ENDBRANCH  10  11
ENDBRANCH   8   9
ENDBRANCH   7   8
ENDBRANCH   5   6
ENDBRANCH   4   5
ENDBRANCH   2   3
TORSDOF 12
ENDMDL
MODEL       78
REMARK 921   NORMALIZED FREE ENERGY PREDICTED BY IDOCK:   -4.42 KCAL/MOL
REMARK 922        TOTAL FREE ENERGY PREDICTED BY IDOCK:   -9.36 KCAL/MOL
REMARK 923 INTER-LIGAND FREE ENERGY PREDICTED BY IDOCK:   -7.73 KCAL/MOL
REMARK 924 INTRA-LIGAND FREE ENERGY PREDICTED BY IDOCK:   -1.63 KCAL/MOL
REMARK 927      BINDING AFFINITY PREDICTED BY RF-SCORE:    0.00 PKD
ROOT
HETATM    1  C   UNL     1      -6.685   7.423  69.913  1.00  0.00    -0.047 C  
HETATM    2  C   UNL     1      -8.197   7.573  69.958  1.00  0.00    -0.130 C  
ENDROOT
BRANCH   2   3
HETATM    3  C   UNL     1      -8.615   8.783  70.744  1.00  0.00    -0.218 C  
HETATM    4  C   UNL     1      -9.831   8.991  71.274  1.00  0.00    -0.376 C  
BRANCH   4   5
HETATM    5  C   UNL     1     -10.993   8.049  71.133  1.00  0.00    -0.271 C  
BRANCH   5   6
HETATM    6  C   UNL     1     -11.944   8.132  72.292  1.00  0.00    -0.434 C  
HETATM    7  C   UNL     1     -13.049   8.896  72.334  1.00  0.00    -0.476 C  
BRANCH   7   8
HETATM    8  C   UNL     1     -13.468   9.820  71.226  1.00  0.00    -0.362 C  
BRANCH   8   9
HETATM    9  C   UNL     1     -12.872  11.190  71.368  1.00  0.00    -0.544 C  
HETATM   10  C   UNL     1     -12.135  11.808  70.429  1.00  0.00    -0.440 C  
BRANCH  10  11
HETATM   11  C   UNL     1     -11.870  11.225  69.070  1.00  0.00    -0.421 C  
BRANCH  11  12
HETATM   12  C   UNL     1     -11.780  12.289  67.981  1.00  0.00    -0.417 C  
BRANCH  12  13
HETATM   13  C   UNL     1     -11.736  13.685  68.605  1.00  0.00    -0.389 C  
BRANCH  13  14
HETATM   14  C   UNL     1     -11.275  14.721  67.585  1.00  0.00    -0.332 C  
BRANCH  14  15
HETATM   15  C   UNL     1     -10.050  14.237  66.809  1.00  0.00    -0.264 C  
BRANCH  15  16
HETATM   16  C   UNL     1     -10.170  14.614  65.334  1.00  0.00    -0.415 C  
BRANCH  16  17
HETATM   17  C   UNL     1     -10.648  13.439  64.487  1.00  0.00    -0.441 C  
HETATM   18  C   UNL     1     -12.072  13.634  64.018  1.00  0.00    -0.425 C  
HETATM   19  O   UNL     1     -12.775  14.602  64.263  1.00  0.00    -0.679 OA 
HETATM   20  O   UNL     1     -12.513  12.594  63.271  1.00  0.00    -0.648 OA 
ENDBRANCH  16  17
ENDBRANCH  15  16
ENDBRANCH  14  15
ENDBRANCH  13  14
ENDBRANCH  12  13
ENDBRANCH  11  12
ENDBRANCH  10  11
ENDBRANCH   8   9
ENDBRANCH   7   8
ENDBRANCH   5   6
ENDBRANCH   4   5
ENDBRANCH   2   3
TORSDOF 12
ENDMDL
MODEL       79
REMARK 921   NORMALIZED FREE ENERGY PREDICTED BY IDOCK:   -4.41 KCAL/MOL
REMARK 922        TOTAL FREE ENERGY PREDICTED BY IDOCK:   -9.34 KCAL/MOL
REMARK 923 INTER-LIGAND FREE ENERGY PREDICTED BY IDOCK:   -7.14 KCAL/MOL
REMARK 924 INTRA-LIGAND FREE ENERGY PREDICTED BY IDOCK:   -2.20 KCAL/MOL
REMARK 927      BINDING AFFINITY PREDICTED BY RF-SCORE:    0.00 PKD
ROOT
HETATM    1  C   UNL     1      -9.537   7.952  66.616  1.00  0.00    -0.293 C  
HETATM    2  C   UNL     1      -8.565   8.583  65.633  1.00  0.00    -0.200 C  
ENDROOT
BRANCH   2   3
HETATM    3  C   UNL     1      -8.427  10.063  65.856  1.00  0.00    -0.139 C  
HETATM    4  C   UNL     1      -9.196  11.014  65.301  1.00  0.00    -0.229 C  
BRANCH   4   5
HETATM    5  C   UNL     1     -10.309  10.746  64.327  1.00  0.00    -0.401 C  
BRANCH   5   6
HETATM    6  C   UNL     1     -10.610  11.933  63.459  1.00  0.00    -0.507 C  
HETATM    7  C   UNL     1     -11.629  12.791  63.646  1.00  0.00    -0.572 C  
BRANCH   7   8
HETATM    8  C   UNL     1     -12.646  12.652  64.742  1.00  0.00    -0.530 C  
BRANCH   8   9
HETATM    9  C   UNL     1     -12.752  13.890  65.584  1.00  0.00    -0.534 C  
HETATM   10  C   UNL     1     -12.133  14.073  66.764  1.00  0.00    -0.480 C  
BRANCH  10  11
HETATM   11  C   UNL     1     -11.187  13.072  67.364  1.00  0.00    -0.325 C  
BRANCH  11  12
HETATM   12  C   UNL     1     -11.860  12.169  68.392  1.00  0.00    -0.360 C  
BRANCH  12  13
HETATM   13  C   UNL     1     -11.351  10.734  68.252  1.00  0.00    -0.376 C  
BRANCH  13  14
HETATM   14  C   UNL     1     -10.014  10.560  68.965  1.00  0.00    -0.223 C  
BRANCH  14  15
HETATM   15  C   UNL     1      -9.990   9.285  69.807  1.00  0.00    -0.213 C  
BRANCH  15  16
HETATM   16  C   UNL     1     -10.676   9.520  71.152  1.00  0.00    -0.408 C  
BRANCH  16  17
HETATM   17  C   UNL     1     -11.711   8.441  71.454  1.00  0.00    -0.332 C  
HETATM   18  C   UNL     1     -13.120   8.986  71.383  1.00  0.00    -0.284 C  
HETATM   19  O   UNL     1     -13.424  10.137  71.113  1.00  0.00    -0.342 OA 
HETATM   20  O   UNL     1     -14.049   8.041  71.657  1.00  0.00    -0.397 OA 
ENDBRANCH  16  17
ENDBRANCH  15  16
ENDBRANCH  14  15
ENDBRANCH  13  14
ENDBRANCH  12  13
ENDBRANCH  11  12
ENDBRANCH  10  11
ENDBRANCH   8   9
ENDBRANCH   7   8
ENDBRANCH   5   6
ENDBRANCH   4   5
ENDBRANCH   2   3
TORSDOF 12
ENDMDL
MODEL       80
REMARK 921   NORMALIZED FREE ENERGY PREDICTED BY IDOCK:   -4.40 KCAL/MOL
REMARK 922        TOTAL FREE ENERGY PREDICTED BY IDOCK:   -9.34 KCAL/MOL
REMARK 923 INTER-LIGAND FREE ENERGY PREDICTED BY IDOCK:   -8.01 KCAL/MOL
REMARK 924 INTRA-LIGAND FREE ENERGY PREDICTED BY IDOCK:   -1.33 KCAL/MOL
REMARK 927      BINDING AFFINITY PREDICTED BY RF-SCORE:    0.00 PKD
ROOT
HETATM    1  C   UNL     1     -12.259  12.654  65.298  1.00  0.00    -0.532 C  
HETATM    2  C   UNL     1     -12.026  13.050  66.747  1.00  0.00    -0.434 C  
ENDROOT
BRANCH   2   3
HETATM    3  C   UNL     1     -11.308  11.974  67.512  1.00  0.00    -0.387 C  
HETATM    4  C   UNL     1     -11.463  11.706  68.819  1.00  0.00    -0.346 C  
BRANCH   4   5
HETATM    5  C   UNL     1     -12.363  12.475  69.743  1.00  0.00    -0.085 C  
BRANCH   5   6
HETATM    6  C   UNL     1     -12.609  11.753  71.038  1.00  0.00    -0.409 C  
HETATM    7  C   UNL     1     -13.154  12.301  72.138  1.00  0.00    -0.406 C  
BRANCH   7   8
HETATM    8  C   UNL     1     -13.559  13.743  72.240  1.00  0.00    -0.656 C  
BRANCH   8   9
HETATM    9  C   UNL     1     -12.743  14.496  73.250  1.00  0.00    -0.483 C  
HETATM   10  C   UNL     1     -12.034  15.609  72.990  1.00  0.00    -0.590 C  
BRANCH  10  11
HETATM   11  C   UNL     1     -12.027  16.290  71.650  1.00  0.00    -0.436 C  
BRANCH  11  12
HETATM   12  C   UNL     1     -11.189  15.545  70.617  1.00  0.00    -0.373 C  
BRANCH  12  13
HETATM   13  C   UNL     1     -11.823  15.670  69.231  1.00  0.00    -0.378 C  
BRANCH  13  14
HETATM   14  C   UNL     1     -10.894  16.412  68.274  1.00  0.00    -0.347 C  
BRANCH  14  15
HETATM   15  C   UNL     1      -9.467  15.869  68.346  1.00  0.00    -0.201 C  
BRANCH  15  16
HETATM   16  C   UNL     1      -8.929  15.598  66.942  1.00  0.00    -0.267 C  
BRANCH  16  17
HETATM   17  C   UNL     1     -10.043  15.597  65.900  1.00  0.00    -0.378 C  
HETATM   18  C   UNL     1     -10.193  16.951  65.244  1.00  0.00     0.107 C  
HETATM   19  O   UNL     1      -9.518  17.938  65.490  1.00  0.00    -0.204 OA 
HETATM   20  O   UNL     1     -11.184  16.967  64.322  1.00  0.00    -1.204 OA 
ENDBRANCH  16  17
ENDBRANCH  15  16
ENDBRANCH  14  15
ENDBRANCH  13  14
ENDBRANCH  12  13
ENDBRANCH  11  12
ENDBRANCH  10  11
ENDBRANCH   8   9
ENDBRANCH   7   8
ENDBRANCH   5   6
ENDBRANCH   4   5
ENDBRANCH   2   3
TORSDOF 12
ENDMDL
MODEL       81
REMARK 921   NORMALIZED FREE ENERGY PREDICTED BY IDOCK:   -4.40 KCAL/MOL
REMARK 922        TOTAL FREE ENERGY PREDICTED BY IDOCK:   -9.34 KCAL/MOL
REMARK 923 INTER-LIGAND FREE ENERGY PREDICTED BY IDOCK:   -7.90 KCAL/MOL
REMARK 924 INTRA-LIGAND FREE ENERGY PREDICTED BY IDOCK:   -1.43 KCAL/MOL
REMARK 927      BINDING AFFINITY PREDICTED BY RF-SCORE:    0.00 PKD
ROOT
HETATM    1  C   UNL     1      -9.605  16.473  68.942  1.00  0.00    -0.261 C  
HETATM    2  C   UNL     1     -10.382  15.557  69.875  1.00  0.00    -0.322 C  
ENDROOT
BRANCH   2   3
HETATM    3  C   UNL     1     -11.866  15.720  69.707  1.00  0.00    -0.352 C  
HETATM    4  C   UNL     1     -12.781  15.606  70.684  1.00  0.00    -0.443 C  
BRANCH   4   5
HETATM    5  C   UNL     1     -12.463  15.257  72.110  1.00  0.00    -0.434 C  
BRANCH   5   6
HETATM    6  C   UNL     1     -13.435  14.270  72.691  1.00  0.00    -0.623 C  
HETATM    7  C   UNL     1     -13.562  12.989  72.304  1.00  0.00    -0.643 C  
BRANCH   7   8
HETATM    8  C   UNL     1     -12.766  12.370  71.191  1.00  0.00    -0.336 C  
BRANCH   8   9
HETATM    9  C   UNL     1     -12.748  10.872  71.266  1.00  0.00    -0.542 C  
HETATM   10  C   UNL     1     -11.906  10.077  70.581  1.00  0.00    -0.411 C  
BRANCH  10  11
HETATM   11  C   UNL     1     -10.814  10.602  69.693  1.00  0.00    -0.318 C  
BRANCH  11  12
HETATM   12  C   UNL     1     -11.319  10.999  68.310  1.00  0.00    -0.366 C  
BRANCH  12  13
HETATM   13  C   UNL     1     -10.783  12.378  67.925  1.00  0.00    -0.245 C  
BRANCH  13  14
HETATM   14  C   UNL     1     -11.852  13.195  67.206  1.00  0.00    -0.420 C  
BRANCH  14  15
HETATM   15  C   UNL     1     -12.006  12.757  65.750  1.00  0.00    -0.502 C  
BRANCH  15  16
HETATM   16  C   UNL     1     -10.782  13.171  64.936  1.00  0.00    -0.362 C  
BRANCH  16  17
HETATM   17  C   UNL     1     -10.674  12.380  63.636  1.00  0.00    -0.497 C  
HETATM   18  C   UNL     1      -9.845  11.127  63.814  1.00  0.00    -0.331 C  
HETATM   19  O   UNL     1      -9.322  10.764  64.856  1.00  0.00    -0.199 OA 
HETATM   20  O   UNL     1      -9.734  10.419  62.666  1.00  0.00    -0.298 OA 
ENDBRANCH  16  17
ENDBRANCH  15  16
ENDBRANCH  14  15
ENDBRANCH  13  14
ENDBRANCH  12  13
ENDBRANCH  11  12
ENDBRANCH  10  11
ENDBRANCH   8   9
ENDBRANCH   7   8
ENDBRANCH   5   6
ENDBRANCH   4   5
ENDBRANCH   2   3
TORSDOF 12
ENDMDL
MODEL       82
REMARK 921   NORMALIZED FREE ENERGY PREDICTED BY IDOCK:   -4.40 KCAL/MOL
REMARK 922        TOTAL FREE ENERGY PREDICTED BY IDOCK:   -9.33 KCAL/MOL
REMARK 923 INTER-LIGAND FREE ENERGY PREDICTED BY IDOCK:   -7.27 KCAL/MOL
REMARK 924 INTRA-LIGAND FREE ENERGY PREDICTED BY IDOCK:   -2.06 KCAL/MOL
REMARK 927      BINDING AFFINITY PREDICTED BY RF-SCORE:    0.00 PKD
ROOT
HETATM    1  C   UNL     1     -10.036  10.400  65.913  1.00  0.00    -0.326 C  
HETATM    2  C   UNL     1      -9.768  10.375  67.409  1.00  0.00    -0.191 C  
ENDROOT
BRANCH   2   3
HETATM    3  C   UNL     1     -11.003  10.032  68.192  1.00  0.00    -0.289 C  
HETATM    4  C   UNL     1     -11.757  10.902  68.885  1.00  0.00    -0.376 C  
BRANCH   4   5
HETATM    5  C   UNL     1     -11.460  12.368  69.017  1.00  0.00    -0.352 C  
BRANCH   5   6
HETATM    6  C   UNL     1     -12.104  12.979  70.228  1.00  0.00    -0.388 C  
HETATM    7  C   UNL     1     -11.919  14.242  70.651  1.00  0.00    -0.392 C  
BRANCH   7   8
HETATM    8  C   UNL     1     -10.993  15.218  69.983  1.00  0.00    -0.306 C  
BRANCH   8   9
HETATM    9  C   UNL     1     -11.654  15.952  68.854  1.00  0.00    -0.392 C  
HETATM   10  C   UNL     1     -11.229  17.122  68.344  1.00  0.00     0.036 C  
BRANCH  10  11
HETATM   11  C   UNL     1      -9.978  17.817  68.801  1.00  0.00    -0.367 C  
BRANCH  11  12
HETATM   12  C   UNL     1      -9.195  18.436  67.649  1.00  0.00    -0.274 C  
BRANCH  12  13
HETATM   13  C   UNL     1      -9.315  17.564  66.398  1.00  0.00    -0.265 C  
BRANCH  13  14
HETATM   14  C   UNL     1      -8.277  16.447  66.414  1.00  0.00    -0.366 C  
BRANCH  14  15
HETATM   15  C   UNL     1      -8.937  15.069  66.346  1.00  0.00    -0.286 C  
BRANCH  15  16
HETATM   16  C   UNL     1     -10.182  15.117  65.463  1.00  0.00    -0.405 C  
BRANCH  16  17
HETATM   17  C   UNL     1     -11.098  13.923  65.714  1.00  0.00    -0.294 C  
HETATM   18  C   UNL     1     -12.330  13.972  64.837  1.00  0.00    -0.427 C  
HETATM   19  O   UNL     1     -12.583  14.840  64.017  1.00  0.00    -0.822 OA 
HETATM   20  O   UNL     1     -13.156  12.923  65.056  1.00  0.00    -0.794 OA 
ENDBRANCH  16  17
ENDBRANCH  15  16
ENDBRANCH  14  15
ENDBRANCH  13  14
ENDBRANCH  12  13
ENDBRANCH  11  12
ENDBRANCH  10  11
ENDBRANCH   8   9
ENDBRANCH   7   8
ENDBRANCH   5   6
ENDBRANCH   4   5
ENDBRANCH   2   3
TORSDOF 12
ENDMDL
MODEL       83
REMARK 921   NORMALIZED FREE ENERGY PREDICTED BY IDOCK:   -4.39 KCAL/MOL
REMARK 922        TOTAL FREE ENERGY PREDICTED BY IDOCK:   -9.32 KCAL/MOL
REMARK 923 INTER-LIGAND FREE ENERGY PREDICTED BY IDOCK:   -8.18 KCAL/MOL
REMARK 924 INTRA-LIGAND FREE ENERGY PREDICTED BY IDOCK:   -1.14 KCAL/MOL
REMARK 927      BINDING AFFINITY PREDICTED BY RF-SCORE:    0.00 PKD
ROOT
HETATM    1  C   UNL     1     -10.698   2.922  73.008  1.00  0.00    -0.222 C  
HETATM    2  C   UNL     1     -10.198   4.356  72.949  1.00  0.00    -0.229 C  
ENDROOT
BRANCH   2   3
HETATM    3  C   UNL     1     -10.222   4.898  71.548  1.00  0.00    -0.264 C  
HETATM    4  C   UNL     1     -10.861   6.011  71.150  1.00  0.00    -0.338 C  
BRANCH   4   5
HETATM    5  C   UNL     1     -11.693   6.881  72.048  1.00  0.00    -0.336 C  
BRANCH   5   6
HETATM    6  C   UNL     1     -13.099   7.047  71.545  1.00  0.00    -0.395 C  
HETATM    7  C   UNL     1     -13.804   8.191  71.582  1.00  0.00    -0.434 C  
BRANCH   7   8
HETATM    8  C   UNL     1     -13.291   9.470  72.180  1.00  0.00    -0.545 C  
BRANCH   8   9
HETATM    9  C   UNL     1     -12.534  10.302  71.187  1.00  0.00    -0.495 C  
HETATM   10  C   UNL     1     -12.582  11.644  71.114  1.00  0.00    -0.439 C  
BRANCH  10  11
HETATM   11  C   UNL     1     -13.356  12.497  72.078  1.00  0.00    -0.528 C  
BRANCH  11  12
HETATM   12  C   UNL     1     -12.938  13.963  72.033  1.00  0.00    -0.438 C  
BRANCH  12  13
HETATM   13  C   UNL     1     -13.033  14.498  70.603  1.00  0.00    -0.358 C  
BRANCH  13  14
HETATM   14  C   UNL     1     -11.812  15.345  70.259  1.00  0.00    -0.368 C  
BRANCH  14  15
HETATM   15  C   UNL     1     -10.905  14.637  69.253  1.00  0.00    -0.272 C  
BRANCH  15  16
HETATM   16  C   UNL     1     -11.728  13.737  68.333  1.00  0.00    -0.393 C  
BRANCH  16  17
HETATM   17  C   UNL     1     -12.127  14.456  67.048  1.00  0.00    -0.374 C  
HETATM   18  C   UNL     1     -12.352  13.483  65.912  1.00  0.00    -0.456 C  
HETATM   19  O   UNL     1     -12.244  12.269  65.986  1.00  0.00    -0.646 OA 
HETATM   20  O   UNL     1     -12.698  14.108  64.763  1.00  0.00    -0.650 OA 
ENDBRANCH  16  17
ENDBRANCH  15  16
ENDBRANCH  14  15
ENDBRANCH  13  14
ENDBRANCH  12  13
ENDBRANCH  11  12
ENDBRANCH  10  11
ENDBRANCH   8   9
ENDBRANCH   7   8
ENDBRANCH   5   6
ENDBRANCH   4   5
ENDBRANCH   2   3
TORSDOF 12
ENDMDL
MODEL       84
REMARK 921   NORMALIZED FREE ENERGY PREDICTED BY IDOCK:   -4.39 KCAL/MOL
REMARK 922        TOTAL FREE ENERGY PREDICTED BY IDOCK:   -9.32 KCAL/MOL
REMARK 923 INTER-LIGAND FREE ENERGY PREDICTED BY IDOCK:   -7.61 KCAL/MOL
REMARK 924 INTRA-LIGAND FREE ENERGY PREDICTED BY IDOCK:   -1.71 KCAL/MOL
REMARK 927      BINDING AFFINITY PREDICTED BY RF-SCORE:    0.00 PKD
ROOT
HETATM    1  C   UNL     1     -10.666  19.629  67.442  1.00  0.00    -0.563 C  
HETATM    2  C   UNL     1     -10.159  18.521  68.351  1.00  0.00    -0.423 C  
ENDROOT
BRANCH   2   3
HETATM    3  C   UNL     1      -8.661  18.526  68.455  1.00  0.00    -0.355 C  
HETATM    4  C   UNL     1      -7.812  17.974  67.572  1.00  0.00    -0.217 C  
BRANCH   4   5
HETATM    5  C   UNL     1      -8.236  17.222  66.342  1.00  0.00    -0.317 C  
BRANCH   5   6
HETATM    6  C   UNL     1      -8.287  15.738  66.566  1.00  0.00    -0.313 C  
HETATM    7  C   UNL     1      -9.406  14.992  66.562  1.00  0.00    -0.309 C  
BRANCH   7   8
HETATM    8  C   UNL     1     -10.785  15.556  66.373  1.00  0.00    -0.303 C  
BRANCH   8   9
HETATM    9  C   UNL     1     -11.227  15.516  64.940  1.00  0.00    -0.396 C  
HETATM   10  C   UNL     1     -12.024  14.572  64.408  1.00  0.00    -0.467 C  
BRANCH  10  11
HETATM   11  C   UNL     1     -12.638  13.460  65.211  1.00  0.00    -0.518 C  
BRANCH  11  12
HETATM   12  C   UNL     1     -12.022  12.100  64.900  1.00  0.00    -0.356 C  
BRANCH  12  13
HETATM   13  C   UNL     1     -10.971  11.742  65.952  1.00  0.00    -0.354 C  
BRANCH  13  14
HETATM   14  C   UNL     1     -11.487  12.036  67.357  1.00  0.00    -0.406 C  
BRANCH  14  15
HETATM   15  C   UNL     1     -11.437  10.792  68.243  1.00  0.00    -0.353 C  
BRANCH  15  16
HETATM   16  C   UNL     1     -11.972  11.109  69.638  1.00  0.00    -0.429 C  
BRANCH  16  17
HETATM   17  C   UNL     1     -11.326  10.230  70.704  1.00  0.00    -0.431 C  
HETATM   18  C   UNL     1     -12.359   9.432  71.469  1.00  0.00    -0.370 C  
HETATM   19  O   UNL     1     -13.564   9.460  71.276  1.00  0.00    -0.355 OA 
HETATM   20  O   UNL     1     -11.800   8.653  72.425  1.00  0.00    -0.372 OA 
ENDBRANCH  16  17
ENDBRANCH  15  16
ENDBRANCH  14  15
ENDBRANCH  13  14
ENDBRANCH  12  13
ENDBRANCH  11  12
ENDBRANCH  10  11
ENDBRANCH   8   9
ENDBRANCH   7   8
ENDBRANCH   5   6
ENDBRANCH   4   5
ENDBRANCH   2   3
TORSDOF 12
ENDMDL
MODEL       85
REMARK 921   NORMALIZED FREE ENERGY PREDICTED BY IDOCK:   -4.39 KCAL/MOL
REMARK 922        TOTAL FREE ENERGY PREDICTED BY IDOCK:   -9.31 KCAL/MOL
REMARK 923 INTER-LIGAND FREE ENERGY PREDICTED BY IDOCK:   -7.83 KCAL/MOL
REMARK 924 INTRA-LIGAND FREE ENERGY PREDICTED BY IDOCK:   -1.48 KCAL/MOL
REMARK 927      BINDING AFFINITY PREDICTED BY RF-SCORE:    0.00 PKD
ROOT
HETATM    1  C   UNL     1      -9.435  10.700  62.806  1.00  0.00    -0.355 C  
HETATM    2  C   UNL     1     -10.296  11.296  63.908  1.00  0.00    -0.439 C  
ENDROOT
BRANCH   2   3
HETATM    3  C   UNL     1     -11.616  11.784  63.381  1.00  0.00    -0.419 C  
HETATM    4  C   UNL     1     -12.176  12.974  63.654  1.00  0.00    -0.568 C  
BRANCH   4   5
HETATM    5  C   UNL     1     -11.579  14.005  64.570  1.00  0.00    -0.403 C  
BRANCH   5   6
HETATM    6  C   UNL     1     -12.412  14.233  65.798  1.00  0.00    -0.421 C  
HETATM    7  C   UNL     1     -12.146  13.734  67.018  1.00  0.00    -0.436 C  
BRANCH   7   8
HETATM    8  C   UNL     1     -10.985  12.830  67.315  1.00  0.00    -0.294 C  
BRANCH   8   9
HETATM    9  C   UNL     1     -11.406  11.401  67.498  1.00  0.00    -0.362 C  
HETATM   10  C   UNL     1     -11.745  10.844  68.675  1.00  0.00    -0.334 C  
BRANCH  10  11
HETATM   11  C   UNL     1     -11.814  11.613  69.964  1.00  0.00    -0.435 C  
BRANCH  11  12
HETATM   12  C   UNL     1     -12.879  11.075  70.913  1.00  0.00    -0.393 C  
BRANCH  12  13
HETATM   13  C   UNL     1     -12.393   9.788  71.581  1.00  0.00    -0.495 C  
BRANCH  13  14
HETATM   14  C   UNL     1     -13.572   8.936  72.040  1.00  0.00    -0.489 C  
BRANCH  14  15
HETATM   15  C   UNL     1     -13.544   7.549  71.400  1.00  0.00    -0.397 C  
BRANCH  15  16
HETATM   16  C   UNL     1     -12.104   7.097  71.167  1.00  0.00    -0.397 C  
BRANCH  16  17
HETATM   17  C   UNL     1     -11.683   6.017  72.159  1.00  0.00    -0.335 C  
HETATM   18  C   UNL     1     -10.800   6.576  73.251  1.00  0.00    -0.248 C  
HETATM   19  O   UNL     1     -10.455   7.743  73.358  1.00  0.00    -0.338 OA 
HETATM   20  O   UNL     1     -10.412   5.626  74.134  1.00  0.00    -0.270 OA 
ENDBRANCH  16  17
ENDBRANCH  15  16
ENDBRANCH  14  15
ENDBRANCH  13  14
ENDBRANCH  12  13
ENDBRANCH  11  12
ENDBRANCH  10  11
ENDBRANCH   8   9
ENDBRANCH   7   8
ENDBRANCH   5   6
ENDBRANCH   4   5
ENDBRANCH   2   3
TORSDOF 12
ENDMDL
MODEL       86
REMARK 921   NORMALIZED FREE ENERGY PREDICTED BY IDOCK:   -4.39 KCAL/MOL
REMARK 922        TOTAL FREE ENERGY PREDICTED BY IDOCK:   -9.31 KCAL/MOL
REMARK 923 INTER-LIGAND FREE ENERGY PREDICTED BY IDOCK:   -7.58 KCAL/MOL
REMARK 924 INTRA-LIGAND FREE ENERGY PREDICTED BY IDOCK:   -1.73 KCAL/MOL
REMARK 927      BINDING AFFINITY PREDICTED BY RF-SCORE:    0.00 PKD
ROOT
HETATM    1  C   UNL     1     -10.837   7.766  72.893  1.00  0.00    -0.453 C  
HETATM    2  C   UNL     1     -11.490   8.579  71.786  1.00  0.00    -0.378 C  
ENDROOT
BRANCH   2   3
HETATM    3  C   UNL     1     -11.022   8.146  70.426  1.00  0.00    -0.248 C  
HETATM    4  C   UNL     1     -10.577   8.961  69.455  1.00  0.00    -0.226 C  
BRANCH   4   5
HETATM    5  C   UNL     1     -10.511  10.458  69.565  1.00  0.00    -0.274 C  
BRANCH   5   6
HETATM    6  C   UNL     1     -11.567  11.141  68.745  1.00  0.00    -0.389 C  
HETATM    7  C   UNL     1     -11.399  11.596  67.490  1.00  0.00    -0.364 C  
BRANCH   7   8
HETATM    8  C   UNL     1     -10.100  11.519  66.741  1.00  0.00    -0.245 C  
BRANCH   8   9
HETATM    9  C   UNL     1     -10.137  10.505  65.636  1.00  0.00    -0.333 C  
HETATM   10  C   UNL     1     -10.311  10.793  64.333  1.00  0.00    -0.405 C  
BRANCH  10  11
HETATM   11  C   UNL     1     -10.422  12.195  63.805  1.00  0.00    -0.470 C  
BRANCH  11  12
HETATM   12  C   UNL     1     -11.865  12.614  63.547  1.00  0.00    -0.619 C  
BRANCH  12  13
HETATM   13  C   UNL     1     -12.157  13.954  64.222  1.00  0.00    -0.477 C  
BRANCH  13  14
HETATM   14  C   UNL     1     -10.870  14.599  64.727  1.00  0.00    -0.402 C  
BRANCH  14  15
HETATM   15  C   UNL     1     -11.023  15.110  66.159  1.00  0.00    -0.331 C  
BRANCH  15  16
HETATM   16  C   UNL     1      -9.814  15.955  66.556  1.00  0.00    -0.277 C  
BRANCH  16  17
HETATM   17  C   UNL     1     -10.216  17.141  67.427  1.00  0.00    -0.321 C  
HETATM   18  C   UNL     1     -10.544  18.360  66.594  1.00  0.00    -0.325 C  
HETATM   19  O   UNL     1     -10.509  18.416  65.375  1.00  0.00    -0.554 OA 
HETATM   20  O   UNL     1     -10.894  19.422  67.355  1.00  0.00    -0.490 OA 
ENDBRANCH  16  17
ENDBRANCH  15  16
ENDBRANCH  14  15
ENDBRANCH  13  14
ENDBRANCH  12  13
ENDBRANCH  11  12
ENDBRANCH  10  11
ENDBRANCH   8   9
ENDBRANCH   7   8
ENDBRANCH   5   6
ENDBRANCH   4   5
ENDBRANCH   2   3
TORSDOF 12
ENDMDL
MODEL       87
REMARK 921   NORMALIZED FREE ENERGY PREDICTED BY IDOCK:   -4.39 KCAL/MOL
REMARK 922        TOTAL FREE ENERGY PREDICTED BY IDOCK:   -9.30 KCAL/MOL
REMARK 923 INTER-LIGAND FREE ENERGY PREDICTED BY IDOCK:   -7.43 KCAL/MOL
REMARK 924 INTRA-LIGAND FREE ENERGY PREDICTED BY IDOCK:   -1.88 KCAL/MOL
REMARK 927      BINDING AFFINITY PREDICTED BY RF-SCORE:    0.00 PKD
ROOT
HETATM    1  C   UNL     1      -9.610  11.323  68.598  1.00  0.00    -0.195 C  
HETATM    2  C   UNL     1     -10.553  11.139  67.419  1.00  0.00    -0.272 C  
ENDROOT
BRANCH   2   3
HETATM    3  C   UNL     1     -10.605   9.707  66.965  1.00  0.00    -0.267 C  
HETATM    4  C   UNL     1      -9.875   9.174  65.971  1.00  0.00    -0.342 C  
BRANCH   4   5
HETATM    5  C   UNL     1      -8.905   9.945  65.122  1.00  0.00    -0.209 C  
BRANCH   5   6
HETATM    6  C   UNL     1      -9.247   9.885  63.660  1.00  0.00    -0.283 C  
HETATM    7  C   UNL     1      -9.865  10.858  62.969  1.00  0.00    -0.358 C  
BRANCH   7   8
HETATM    8  C   UNL     1     -10.344  12.143  63.582  1.00  0.00    -0.482 C  
BRANCH   8   9
HETATM    9  C   UNL     1     -11.750  12.041  64.097  1.00  0.00    -0.457 C  
HETATM   10  C   UNL     1     -12.484  13.078  64.539  1.00  0.00    -0.427 C  
BRANCH  10  11
HETATM   11  C   UNL     1     -12.006  14.502  64.507  1.00  0.00    -0.482 C  
BRANCH  11  12
HETATM   12  C   UNL     1     -11.408  14.951  65.836  1.00  0.00    -0.306 C  
BRANCH  12  13
HETATM   13  C   UNL     1     -12.134  14.276  67.000  1.00  0.00    -0.424 C  
BRANCH  13  14
HETATM   14  C   UNL     1     -11.332  14.411  68.290  1.00  0.00    -0.311 C  
BRANCH  14  15
HETATM   15  C   UNL     1     -11.753  15.646  69.085  1.00  0.00    -0.402 C  
BRANCH  15  16
HETATM   16  C   UNL     1     -12.120  15.260  70.517  1.00  0.00    -0.395 C  
BRANCH  16  17
HETATM   17  C   UNL     1     -12.178  13.747  70.696  1.00  0.00    -0.434 C  
HETATM   18  C   UNL     1     -13.217  13.347  71.720  1.00  0.00    -0.407 C  
HETATM   19  O   UNL     1     -13.939  14.114  72.337  1.00  0.00    -0.494 OA 
HETATM   20  O   UNL     1     -13.274  12.006  71.896  1.00  0.00    -0.480 OA 
ENDBRANCH  16  17
ENDBRANCH  15  16
ENDBRANCH  14  15
ENDBRANCH  13  14
ENDBRANCH  12  13
ENDBRANCH  11  12
ENDBRANCH  10  11
ENDBRANCH   8   9
ENDBRANCH   7   8
ENDBRANCH   5   6
ENDBRANCH   4   5
ENDBRANCH   2   3
TORSDOF 12
ENDMDL
MODEL       88
REMARK 921   NORMALIZED FREE ENERGY PREDICTED BY IDOCK:   -4.38 KCAL/MOL
REMARK 922        TOTAL FREE ENERGY PREDICTED BY IDOCK:   -9.30 KCAL/MOL
REMARK 923 INTER-LIGAND FREE ENERGY PREDICTED BY IDOCK:   -6.37 KCAL/MOL
REMARK 924 INTRA-LIGAND FREE ENERGY PREDICTED BY IDOCK:   -2.93 KCAL/MOL
REMARK 927      BINDING AFFINITY PREDICTED BY RF-SCORE:    0.00 PKD
ROOT
HETATM    1  C   UNL     1     -11.001  12.696  63.629  1.00  0.00    -0.464 C  
HETATM    2  C   UNL     1     -12.286  12.764  64.439  1.00  0.00    -0.498 C  
ENDROOT
BRANCH   2   3
HETATM    3  C   UNL     1     -12.406  14.061  65.187  1.00  0.00    -0.468 C  
HETATM    4  C   UNL     1     -12.336  14.205  66.521  1.00  0.00    -0.405 C  
BRANCH   4   5
HETATM    5  C   UNL     1     -12.159  13.071  67.490  1.00  0.00    -0.279 C  
BRANCH   5   6
HETATM    6  C   UNL     1     -11.859  13.548  68.883  1.00  0.00    -0.384 C  
HETATM    7  C   UNL     1     -11.753  12.757  69.965  1.00  0.00    -0.282 C  
BRANCH   7   8
HETATM    8  C   UNL     1     -11.966  11.271  69.938  1.00  0.00    -0.440 C  
BRANCH   8   9
HETATM    9  C   UNL     1     -10.675  10.508  70.002  1.00  0.00    -0.282 C  
HETATM   10  C   UNL     1     -10.126   9.839  68.973  1.00  0.00    -0.195 C  
BRANCH  10  11
HETATM   11  C   UNL     1     -10.708   9.830  67.588  1.00  0.00    -0.334 C  
BRANCH  11  12
HETATM   12  C   UNL     1      -9.785  10.472  66.558  1.00  0.00    -0.237 C  
BRANCH  12  13
HETATM   13  C   UNL     1      -8.827  11.449  67.240  1.00  0.00    -0.153 C  
BRANCH  13  14
HETATM   14  C   UNL     1      -8.746  12.760  66.465  1.00  0.00     0.015 C  
BRANCH  14  15
HETATM   15  C   UNL     1      -8.402  13.933  67.382  1.00  0.00    -0.208 C  
BRANCH  15  16
HETATM   16  C   UNL     1      -8.704  15.259  66.687  1.00  0.00    -0.327 C  
BRANCH  16  17
HETATM   17  C   UNL     1      -9.435  16.228  67.611  1.00  0.00    -0.221 C  
HETATM   18  C   UNL     1      -9.792  17.514  66.901  1.00  0.00    -0.302 C  
HETATM   19  O   UNL     1      -9.546  17.772  65.733  1.00  0.00    -0.519 OA 
HETATM   20  O   UNL     1     -10.434  18.387  67.712  1.00  0.00    -0.388 OA 
ENDBRANCH  16  17
ENDBRANCH  15  16
ENDBRANCH  14  15
ENDBRANCH  13  14
ENDBRANCH  12  13
ENDBRANCH  11  12
ENDBRANCH  10  11
ENDBRANCH   8   9
ENDBRANCH   7   8
ENDBRANCH   5   6
ENDBRANCH   4   5
ENDBRANCH   2   3
TORSDOF 12
ENDMDL
MODEL       89
REMARK 921   NORMALIZED FREE ENERGY PREDICTED BY IDOCK:   -4.38 KCAL/MOL
REMARK 922        TOTAL FREE ENERGY PREDICTED BY IDOCK:   -9.29 KCAL/MOL
REMARK 923 INTER-LIGAND FREE ENERGY PREDICTED BY IDOCK:   -7.64 KCAL/MOL
REMARK 924 INTRA-LIGAND FREE ENERGY PREDICTED BY IDOCK:   -1.65 KCAL/MOL
REMARK 927      BINDING AFFINITY PREDICTED BY RF-SCORE:    0.00 PKD
ROOT
HETATM    1  C   UNL     1     -11.599  14.919  68.195  1.00  0.00    -0.356 C  
HETATM    2  C   UNL     1     -11.947  13.593  68.853  1.00  0.00    -0.392 C  
ENDROOT
BRANCH   2   3
HETATM    3  C   UNL     1     -12.408  13.778  70.271  1.00  0.00    -0.407 C  
HETATM    4  C   UNL     1     -12.590  12.796  71.169  1.00  0.00    -0.365 C  
BRANCH   4   5
HETATM    5  C   UNL     1     -12.393  11.334  70.882  1.00  0.00    -0.490 C  
BRANCH   5   6
HETATM    6  C   UNL     1     -13.347  10.465  71.650  1.00  0.00    -0.432 C  
HETATM    7  C   UNL     1     -13.049   9.264  72.176  1.00  0.00    -0.520 C  
BRANCH   7   8
HETATM    8  C   UNL     1     -11.711   8.597  72.030  1.00  0.00    -0.439 C  
BRANCH   8   9
HETATM    9  C   UNL     1     -11.672   7.645  70.871  1.00  0.00    -0.291 C  
HETATM   10  C   UNL     1     -10.821   7.731  69.833  1.00  0.00    -0.228 C  
BRANCH  10  11
HETATM   11  C   UNL     1      -9.738   8.768  69.737  1.00  0.00    -0.179 C  
BRANCH  11  12
HETATM   12  C   UNL     1      -9.314   9.043  68.298  1.00  0.00    -0.145 C  
BRANCH  12  13
HETATM   13  C   UNL     1     -10.508   9.536  67.479  1.00  0.00    -0.336 C  
BRANCH  13  14
HETATM   14  C   UNL     1     -10.061  10.011  66.100  1.00  0.00    -0.317 C  
BRANCH  14  15
HETATM   15  C   UNL     1      -9.394  11.385  66.170  1.00  0.00    -0.232 C  
BRANCH  15  16
HETATM   16  C   UNL     1     -10.329  12.460  65.621  1.00  0.00    -0.284 C  
BRANCH  16  17
HETATM   17  C   UNL     1     -10.982  12.026  64.312  1.00  0.00    -0.401 C  
HETATM   18  C   UNL     1     -12.433  12.450  64.247  1.00  0.00    -0.437 C  
HETATM   19  O   UNL     1     -13.032  13.069  65.112  1.00  0.00    -0.729 OA 
HETATM   20  O   UNL     1     -13.028  12.063  63.094  1.00  0.00    -0.662 OA 
ENDBRANCH  16  17
ENDBRANCH  15  16
ENDBRANCH  14  15
ENDBRANCH  13  14
ENDBRANCH  12  13
ENDBRANCH  11  12
ENDBRANCH  10  11
ENDBRANCH   8   9
ENDBRANCH   7   8
ENDBRANCH   5   6
ENDBRANCH   4   5
ENDBRANCH   2   3
TORSDOF 12
ENDMDL
MODEL       90
REMARK 921   NORMALIZED FREE ENERGY PREDICTED BY IDOCK:   -4.37 KCAL/MOL
REMARK 922        TOTAL FREE ENERGY PREDICTED BY IDOCK:   -9.29 KCAL/MOL
REMARK 923 INTER-LIGAND FREE ENERGY PREDICTED BY IDOCK:   -8.01 KCAL/MOL
REMARK 924 INTRA-LIGAND FREE ENERGY PREDICTED BY IDOCK:   -1.27 KCAL/MOL
REMARK 927      BINDING AFFINITY PREDICTED BY RF-SCORE:    0.00 PKD
ROOT
HETATM    1  C   UNL     1     -12.543  11.923  63.456  1.00  0.00    -0.579 C  
HETATM    2  C   UNL     1     -11.808  13.186  63.879  1.00  0.00    -0.533 C  
ENDROOT
BRANCH   2   3
HETATM    3  C   UNL     1     -12.319  13.715  65.189  1.00  0.00    -0.486 C  
HETATM    4  C   UNL     1     -12.040  13.207  66.401  1.00  0.00    -0.447 C  
BRANCH   4   5
HETATM    5  C   UNL     1     -11.190  11.991  66.638  1.00  0.00    -0.380 C  
BRANCH   5   6
HETATM    6  C   UNL     1     -10.469  12.042  67.955  1.00  0.00    -0.221 C  
HETATM    7  C   UNL     1     -10.894  11.467  69.093  1.00  0.00    -0.260 C  
BRANCH   7   8
HETATM    8  C   UNL     1     -12.190  10.718  69.218  1.00  0.00    -0.185 C  
BRANCH   8   9
HETATM    9  C   UNL     1     -12.503  10.350  70.638  1.00  0.00    -0.437 C  
HETATM   10  C   UNL     1     -12.840  11.224  71.603  1.00  0.00    -0.510 C  
BRANCH  10  11
HETATM   11  C   UNL     1     -13.018  12.696  71.359  1.00  0.00    -0.353 C  
BRANCH  11  12
HETATM   12  C   UNL     1     -13.974  13.346  72.353  1.00  0.00    -0.605 C  
BRANCH  12  13
HETATM   13  C   UNL     1     -13.708  14.849  72.440  1.00  0.00    -0.576 C  
BRANCH  13  14
HETATM   14  C   UNL     1     -12.210  15.135  72.461  1.00  0.00    -0.474 C  
BRANCH  14  15
HETATM   15  C   UNL     1     -11.831  16.216  71.449  1.00  0.00    -0.490 C  
BRANCH  15  16
HETATM   16  C   UNL     1     -11.682  15.613  70.054  1.00  0.00    -0.369 C  
BRANCH  16  17
HETATM   17  C   UNL     1     -10.217  15.467  69.655  1.00  0.00    -0.289 C  
HETATM   18  C   UNL     1      -9.747  16.640  68.823  1.00  0.00    -0.254 C  
HETATM   19  O   UNL     1     -10.428  17.600  68.501  1.00  0.00    -0.359 OA 
HETATM   20  O   UNL     1      -8.450  16.519  68.455  1.00  0.00    -0.205 OA 
ENDBRANCH  16  17
ENDBRANCH  15  16
ENDBRANCH  14  15
ENDBRANCH  13  14
ENDBRANCH  12  13
ENDBRANCH  11  12
ENDBRANCH  10  11
ENDBRANCH   8   9
ENDBRANCH   7   8
ENDBRANCH   5   6
ENDBRANCH   4   5
ENDBRANCH   2   3
TORSDOF 12
ENDMDL
MODEL       91
REMARK 921   NORMALIZED FREE ENERGY PREDICTED BY IDOCK:   -4.37 KCAL/MOL
REMARK 922        TOTAL FREE ENERGY PREDICTED BY IDOCK:   -9.28 KCAL/MOL
REMARK 923 INTER-LIGAND FREE ENERGY PREDICTED BY IDOCK:   -7.61 KCAL/MOL
REMARK 924 INTRA-LIGAND FREE ENERGY PREDICTED BY IDOCK:   -1.67 KCAL/MOL
REMARK 927      BINDING AFFINITY PREDICTED BY RF-SCORE:    0.00 PKD
ROOT
HETATM    1  C   UNL     1     -12.768  15.822  73.828  1.00  0.00    -0.736 C  
HETATM    2  C   UNL     1     -13.646  15.411  72.656  1.00  0.00    -0.641 C  
ENDROOT
BRANCH   2   3
HETATM    3  C   UNL     1     -12.845  15.217  71.400  1.00  0.00    -0.457 C  
HETATM    4  C   UNL     1     -12.499  14.033  70.868  1.00  0.00    -0.439 C  
BRANCH   4   5
HETATM    5  C   UNL     1     -12.834  12.699  71.472  1.00  0.00    -0.368 C  
BRANCH   5   6
HETATM    6  C   UNL     1     -12.526  11.556  70.548  1.00  0.00    -0.367 C  
HETATM    7  C   UNL     1     -12.715  10.256  70.834  1.00  0.00    -0.462 C  
BRANCH   7   8
HETATM    8  C   UNL     1     -13.227   9.757  72.155  1.00  0.00    -0.530 C  
BRANCH   8   9
HETATM    9  C   UNL     1     -14.282   8.703  71.997  1.00  0.00    -0.524 C  
HETATM   10  C   UNL     1     -14.064   7.461  71.527  1.00  0.00    -0.541 C  
BRANCH  10  11
HETATM   11  C   UNL     1     -12.702   6.943  71.162  1.00  0.00    -0.331 C  
BRANCH  11  12
HETATM   12  C   UNL     1     -12.032   6.192  72.307  1.00  0.00    -0.285 C  
BRANCH  12  13
HETATM   13  C   UNL     1     -10.528   6.470  72.315  1.00  0.00    -0.226 C  
BRANCH  13  14
HETATM   14  C   UNL     1     -10.242   7.896  72.772  1.00  0.00    -0.380 C  
BRANCH  14  15
HETATM   15  C   UNL     1      -9.330   8.628  71.787  1.00  0.00    -0.343 C  
BRANCH  15  16
HETATM   16  C   UNL     1      -9.376   7.955  70.417  1.00  0.00    -0.159 C  
BRANCH  16  17
HETATM   17  C   UNL     1      -9.836   8.919  69.328  1.00  0.00    -0.176 C  
HETATM   18  C   UNL     1     -10.243   8.186  68.070  1.00  0.00    -0.212 C  
HETATM   19  O   UNL     1     -10.225   6.975  67.916  1.00  0.00    -0.163 OA 
HETATM   20  O   UNL     1     -10.646   9.031  67.092  1.00  0.00    -0.272 OA 
ENDBRANCH  16  17
ENDBRANCH  15  16
ENDBRANCH  14  15
ENDBRANCH  13  14
ENDBRANCH  12  13
ENDBRANCH  11  12
ENDBRANCH  10  11
ENDBRANCH   8   9
ENDBRANCH   7   8
ENDBRANCH   5   6
ENDBRANCH   4   5
ENDBRANCH   2   3
TORSDOF 12
ENDMDL
MODEL       92
REMARK 921   NORMALIZED FREE ENERGY PREDICTED BY IDOCK:   -4.36 KCAL/MOL
REMARK 922        TOTAL FREE ENERGY PREDICTED BY IDOCK:   -9.27 KCAL/MOL
REMARK 923 INTER-LIGAND FREE ENERGY PREDICTED BY IDOCK:   -7.90 KCAL/MOL
REMARK 924 INTRA-LIGAND FREE ENERGY PREDICTED BY IDOCK:   -1.36 KCAL/MOL
REMARK 927      BINDING AFFINITY PREDICTED BY RF-SCORE:    0.00 PKD
ROOT
HETATM    1  C   UNL     1     -12.486  11.969  63.530  1.00  0.00    -0.654 C  
HETATM    2  C   UNL     1     -11.018  12.279  63.777  1.00  0.00    -0.495 C  
ENDROOT
BRANCH   2   3
HETATM    3  C   UNL     1     -10.141  11.094  63.490  1.00  0.00    -0.437 C  
HETATM    4  C   UNL     1      -9.669  10.230  64.404  1.00  0.00    -0.381 C  
BRANCH   4   5
HETATM    5  C   UNL     1      -9.917  10.335  65.882  1.00  0.00    -0.321 C  
BRANCH   5   6
HETATM    6  C   UNL     1     -10.090   8.993  66.533  1.00  0.00    -0.354 C  
HETATM    7  C   UNL     1     -10.527   8.792  67.788  1.00  0.00    -0.292 C  
BRANCH   7   8
HETATM    8  C   UNL     1     -10.867   9.900  68.742  1.00  0.00    -0.240 C  
BRANCH   8   9
HETATM    9  C   UNL     1     -10.482   9.576  70.156  1.00  0.00    -0.299 C  
HETATM   10  C   UNL     1     -11.300   9.678  71.219  1.00  0.00    -0.458 C  
BRANCH  10  11
HETATM   11  C   UNL     1     -12.747  10.068  71.112  1.00  0.00    -0.484 C  
BRANCH  11  12
HETATM   12  C   UNL     1     -13.029  11.448  71.697  1.00  0.00    -0.523 C  
BRANCH  12  13
HETATM   13  C   UNL     1     -12.395  12.532  70.825  1.00  0.00    -0.376 C  
BRANCH  13  14
HETATM   14  C   UNL     1     -12.881  13.917  71.242  1.00  0.00    -0.435 C  
BRANCH  14  15
HETATM   15  C   UNL     1     -12.018  15.021  70.633  1.00  0.00    -0.370 C  
BRANCH  15  16
HETATM   16  C   UNL     1     -11.192  14.473  69.471  1.00  0.00    -0.300 C  
BRANCH  16  17
HETATM   17  C   UNL     1     -11.633  15.065  68.136  1.00  0.00    -0.360 C  
HETATM   18  C   UNL     1     -12.020  13.987  67.148  1.00  0.00    -0.430 C  
HETATM   19  O   UNL     1     -12.000  12.786  67.364  1.00  0.00    -0.360 OA 
HETATM   20  O   UNL     1     -12.405  14.499  65.956  1.00  0.00    -0.332 OA 
ENDBRANCH  16  17
ENDBRANCH  15  16
ENDBRANCH  14  15
ENDBRANCH  13  14
ENDBRANCH  12  13
ENDBRANCH  11  12
ENDBRANCH  10  11
ENDBRANCH   8   9
ENDBRANCH   7   8
ENDBRANCH   5   6
ENDBRANCH   4   5
ENDBRANCH   2   3
TORSDOF 12
ENDMDL
MODEL       93
REMARK 921   NORMALIZED FREE ENERGY PREDICTED BY IDOCK:   -4.36 KCAL/MOL
REMARK 922        TOTAL FREE ENERGY PREDICTED BY IDOCK:   -9.26 KCAL/MOL
REMARK 923 INTER-LIGAND FREE ENERGY PREDICTED BY IDOCK:   -7.42 KCAL/MOL
REMARK 924 INTRA-LIGAND FREE ENERGY PREDICTED BY IDOCK:   -1.85 KCAL/MOL
REMARK 927      BINDING AFFINITY PREDICTED BY RF-SCORE:    0.00 PKD
ROOT
HETATM    1  C   UNL     1     -11.794  16.028  71.757  1.00  0.00    -0.599 C  
HETATM    2  C   UNL     1     -12.935  15.168  71.238  1.00  0.00    -0.478 C  
ENDROOT
BRANCH   2   3
HETATM    3  C   UNL     1     -12.432  13.957  70.505  1.00  0.00    -0.422 C  
HETATM    4  C   UNL     1     -11.934  13.947  69.257  1.00  0.00    -0.402 C  
BRANCH   4   5
HETATM    5  C   UNL     1     -11.834  15.157  68.373  1.00  0.00    -0.293 C  
BRANCH   5   6
HETATM    6  C   UNL     1     -10.727  15.041  67.364  1.00  0.00    -0.289 C  
HETATM    7  C   UNL     1     -10.882  14.649  66.087  1.00  0.00    -0.321 C  
BRANCH   7   8
HETATM    8  C   UNL     1     -12.196  14.225  65.496  1.00  0.00    -0.408 C  
BRANCH   8   9
HETATM    9  C   UNL     1     -12.102  13.965  64.022  1.00  0.00    -0.437 C  
HETATM   10  C   UNL     1     -11.814  12.774  63.467  1.00  0.00    -0.618 C  
BRANCH  10  11
HETATM   11  C   UNL     1     -11.616  11.517  64.266  1.00  0.00    -0.219 C  
BRANCH  11  12
HETATM   12  C   UNL     1     -10.163  11.056  64.287  1.00  0.00    -0.414 C  
BRANCH  12  13
HETATM   13  C   UNL     1      -9.837  10.391  65.625  1.00  0.00    -0.321 C  
BRANCH  13  14
HETATM   14  C   UNL     1     -10.339  11.238  66.789  1.00  0.00    -0.278 C  
BRANCH  14  15
HETATM   15  C   UNL     1     -11.117  10.397  67.800  1.00  0.00    -0.365 C  
BRANCH  15  16
HETATM   16  C   UNL     1     -10.318  10.241  69.093  1.00  0.00    -0.241 C  
BRANCH  16  17
HETATM   17  C   UNL     1     -11.202  10.398  70.326  1.00  0.00    -0.395 C  
HETATM   18  C   UNL     1     -11.487   9.064  70.980  1.00  0.00    -0.295 C  
HETATM   19  O   UNL     1     -11.070   7.982  70.597  1.00  0.00    -0.256 OA 
HETATM   20  O   UNL     1     -12.278   9.187  72.072  1.00  0.00    -0.367 OA 
ENDBRANCH  16  17
ENDBRANCH  15  16
ENDBRANCH  14  15
ENDBRANCH  13  14
ENDBRANCH  12  13
ENDBRANCH  11  12
ENDBRANCH  10  11
ENDBRANCH   8   9
ENDBRANCH   7   8
ENDBRANCH   5   6
ENDBRANCH   4   5
ENDBRANCH   2   3
TORSDOF 12
ENDMDL
MODEL       94
REMARK 921   NORMALIZED FREE ENERGY PREDICTED BY IDOCK:   -4.36 KCAL/MOL
REMARK 922        TOTAL FREE ENERGY PREDICTED BY IDOCK:   -9.25 KCAL/MOL
REMARK 923 INTER-LIGAND FREE ENERGY PREDICTED BY IDOCK:   -7.79 KCAL/MOL
REMARK 924 INTRA-LIGAND FREE ENERGY PREDICTED BY IDOCK:   -1.47 KCAL/MOL
REMARK 927      BINDING AFFINITY PREDICTED BY RF-SCORE:    0.00 PKD
ROOT
HETATM    1  C   UNL     1     -11.210  12.334  65.778  1.00  0.00    -0.378 C  
HETATM    2  C   UNL     1     -11.657  12.574  67.211  1.00  0.00    -0.434 C  
ENDROOT
BRANCH   2   3
HETATM    3  C   UNL     1     -11.595  11.317  68.032  1.00  0.00    -0.343 C  
HETATM    4  C   UNL     1     -11.842  11.230  69.350  1.00  0.00    -0.424 C  
BRANCH   4   5
HETATM    5  C   UNL     1     -12.189  12.397  70.229  1.00  0.00    -0.345 C  
BRANCH   5   6
HETATM    6  C   UNL     1     -12.942  11.985  71.461  1.00  0.00    -0.407 C  
HETATM    7  C   UNL     1     -13.611  12.820  72.276  1.00  0.00    -0.563 C  
BRANCH   7   8
HETATM    8  C   UNL     1     -13.664  14.308  72.085  1.00  0.00    -0.569 C  
BRANCH   8   9
HETATM    9  C   UNL     1     -12.497  15.007  72.720  1.00  0.00    -0.472 C  
HETATM   10  C   UNL     1     -11.584  15.738  72.055  1.00  0.00    -0.541 C  
BRANCH  10  11
HETATM   11  C   UNL     1     -11.660  16.010  70.579  1.00  0.00    -0.383 C  
BRANCH  11  12
HETATM   12  C   UNL     1     -10.520  15.360  69.803  1.00  0.00    -0.303 C  
BRANCH  12  13
HETATM   13  C   UNL     1     -10.373  16.015  68.429  1.00  0.00    -0.251 C  
BRANCH  13  14
HETATM   14  C   UNL     1     -10.581  17.523  68.522  1.00  0.00    -0.312 C  
BRANCH  14  15
HETATM   15  C   UNL     1     -10.465  18.190  67.152  1.00  0.00    -0.392 C  
BRANCH  15  16
HETATM   16  C   UNL     1      -9.535  19.400  67.225  1.00  0.00    -0.398 C  
BRANCH  16  17
HETATM   17  C   UNL     1      -8.949  19.578  68.621  1.00  0.00    -0.386 C  
HETATM   18  C   UNL     1      -7.437  19.596  68.593  1.00  0.00    -0.333 C  
HETATM   19  O   UNL     1      -6.744  19.491  67.593  1.00  0.00    -0.215 OA 
HETATM   20  O   UNL     1      -6.903  19.745  69.828  1.00  0.00    -0.338 OA 
ENDBRANCH  16  17
ENDBRANCH  15  16
ENDBRANCH  14  15
ENDBRANCH  13  14
ENDBRANCH  12  13
ENDBRANCH  11  12
ENDBRANCH  10  11
ENDBRANCH   8   9
ENDBRANCH   7   8
ENDBRANCH   5   6
ENDBRANCH   4   5
ENDBRANCH   2   3
TORSDOF 12
ENDMDL
MODEL       95
REMARK 921   NORMALIZED FREE ENERGY PREDICTED BY IDOCK:   -4.35 KCAL/MOL
REMARK 922        TOTAL FREE ENERGY PREDICTED BY IDOCK:   -9.25 KCAL/MOL
REMARK 923 INTER-LIGAND FREE ENERGY PREDICTED BY IDOCK:   -7.35 KCAL/MOL
REMARK 924 INTRA-LIGAND FREE ENERGY PREDICTED BY IDOCK:   -1.90 KCAL/MOL
REMARK 927      BINDING AFFINITY PREDICTED BY RF-SCORE:    0.00 PKD
ROOT
HETATM    1  C   UNL     1     -10.695  19.693  65.751  1.00  0.00    -0.493 C  
HETATM    2  C   UNL     1     -10.766  19.170  67.176  1.00  0.00    -0.567 C  
ENDROOT
BRANCH   2   3
HETATM    3  C   UNL     1     -10.042  20.069  68.138  1.00  0.00    -0.547 C  
HETATM    4  C   UNL     1      -8.714  20.099  68.333  1.00  0.00    -0.024 C  
BRANCH   4   5
HETATM    5  C   UNL     1      -7.732  19.198  67.639  1.00  0.00    -0.271 C  
BRANCH   5   6
HETATM    6  C   UNL     1      -7.123  18.187  68.567  1.00  0.00    -0.262 C  
HETATM    7  C   UNL     1      -7.594  16.944  68.775  1.00  0.00    -0.243 C  
BRANCH   7   8
HETATM    8  C   UNL     1      -8.837  16.403  68.129  1.00  0.00    -0.192 C  
BRANCH   8   9
HETATM    9  C   UNL     1      -8.549  15.700  66.835  1.00  0.00    -0.281 C  
HETATM   10  C   UNL     1      -9.468  15.075  66.078  1.00  0.00    -0.337 C  
BRANCH  10  11
HETATM   11  C   UNL     1     -10.935  15.063  66.402  1.00  0.00    -0.336 C  
BRANCH  11  12
HETATM   12  C   UNL     1     -11.518  13.654  66.440  1.00  0.00    -0.358 C  
BRANCH  12  13
HETATM   13  C   UNL     1     -12.147  13.378  67.806  1.00  0.00    -0.299 C  
BRANCH  13  14
HETATM   14  C   UNL     1     -11.080  13.329  68.895  1.00  0.00    -0.304 C  
BRANCH  14  15
HETATM   15  C   UNL     1     -11.362  14.344  70.002  1.00  0.00    -0.253 C  
BRANCH  15  16
HETATM   16  C   UNL     1     -12.848  14.354  70.351  1.00  0.00    -0.301 C  
BRANCH  16  17
HETATM   17  C   UNL     1     -13.229  15.584  71.170  1.00  0.00    -0.576 C  
HETATM   18  C   UNL     1     -13.440  15.240  72.627  1.00  0.00    -0.507 C  
HETATM   19  O   UNL     1     -13.322  14.128  73.119  1.00  0.00    -0.634 OA 
HETATM   20  O   UNL     1     -13.787  16.321  73.364  1.00  0.00    -0.562 OA 
ENDBRANCH  16  17
ENDBRANCH  15  16
ENDBRANCH  14  15
ENDBRANCH  13  14
ENDBRANCH  12  13
ENDBRANCH  11  12
ENDBRANCH  10  11
ENDBRANCH   8   9
ENDBRANCH   7   8
ENDBRANCH   5   6
ENDBRANCH   4   5
ENDBRANCH   2   3
TORSDOF 12
ENDMDL
MODEL       96
REMARK 921   NORMALIZED FREE ENERGY PREDICTED BY IDOCK:   -4.33 KCAL/MOL
REMARK 922        TOTAL FREE ENERGY PREDICTED BY IDOCK:   -9.21 KCAL/MOL
REMARK 923 INTER-LIGAND FREE ENERGY PREDICTED BY IDOCK:   -7.11 KCAL/MOL
REMARK 924 INTRA-LIGAND FREE ENERGY PREDICTED BY IDOCK:   -2.11 KCAL/MOL
REMARK 927      BINDING AFFINITY PREDICTED BY RF-SCORE:    0.00 PKD
ROOT
HETATM    1  C   UNL     1     -11.906  11.447  69.143  1.00  0.00    -0.413 C  
HETATM    2  C   UNL     1     -11.447  11.635  67.705  1.00  0.00    -0.373 C  
ENDROOT
BRANCH   2   3
HETATM    3  C   UNL     1      -9.953  11.752  67.607  1.00  0.00    -0.204 C  
HETATM    4  C   UNL     1      -9.174  11.108  66.722  1.00  0.00    -0.183 C  
BRANCH   4   5
HETATM    5  C   UNL     1      -9.678  10.128  65.701  1.00  0.00    -0.322 C  
BRANCH   5   6
HETATM    6  C   UNL     1      -9.417  10.581  64.293  1.00  0.00    -0.337 C  
HETATM    7  C   UNL     1     -10.289  11.256  63.523  1.00  0.00    -0.463 C  
BRANCH   7   8
HETATM    8  C   UNL     1     -11.680  11.618  63.956  1.00  0.00    -0.339 C  
BRANCH   8   9
HETATM    9  C   UNL     1     -12.157  12.897  63.335  1.00  0.00    -0.610 C  
HETATM   10  C   UNL     1     -12.183  14.091  63.955  1.00  0.00    -0.395 C  
BRANCH  10  11
HETATM   11  C   UNL     1     -11.662  14.309  65.347  1.00  0.00    -0.354 C  
BRANCH  11  12
HETATM   12  C   UNL     1     -10.181  14.676  65.370  1.00  0.00    -0.415 C  
BRANCH  12  13
HETATM   13  C   UNL     1      -9.847  15.453  66.644  1.00  0.00    -0.269 C  
BRANCH  13  14
HETATM   14  C   UNL     1      -8.366  15.325  66.985  1.00  0.00    -0.267 C  
BRANCH  14  15
HETATM   15  C   UNL     1      -7.584  16.567  66.560  1.00  0.00    -0.304 C  
BRANCH  15  16
HETATM   16  C   UNL     1      -8.501  17.788  66.520  1.00  0.00    -0.288 C  
BRANCH  16  17
HETATM   17  C   UNL     1      -8.615  18.453  67.888  1.00  0.00    -0.285 C  
HETATM   18  C   UNL     1      -9.968  19.100  68.082  1.00  0.00    -0.388 C  
HETATM   19  O   UNL     1     -10.878  19.100  67.268  1.00  0.00    -0.476 OA 
HETATM   20  O   UNL     1     -10.081  19.703  69.289  1.00  0.00    -0.423 OA 
ENDBRANCH  16  17
ENDBRANCH  15  16
ENDBRANCH  14  15
ENDBRANCH  13  14
ENDBRANCH  12  13
ENDBRANCH  11  12
ENDBRANCH  10  11
ENDBRANCH   8   9
ENDBRANCH   7   8
ENDBRANCH   5   6
ENDBRANCH   4   5
ENDBRANCH   2   3
TORSDOF 12
ENDMDL
MODEL       97
REMARK 921   NORMALIZED FREE ENERGY PREDICTED BY IDOCK:   -4.33 KCAL/MOL
REMARK 922        TOTAL FREE ENERGY PREDICTED BY IDOCK:   -9.20 KCAL/MOL
REMARK 923 INTER-LIGAND FREE ENERGY PREDICTED BY IDOCK:   -7.48 KCAL/MOL
REMARK 924 INTRA-LIGAND FREE ENERGY PREDICTED BY IDOCK:   -1.73 KCAL/MOL
REMARK 927      BINDING AFFINITY PREDICTED BY RF-SCORE:    0.00 PKD
ROOT
HETATM    1  C   UNL     1     -12.214  13.508  67.531  1.00  0.00    -0.247 C  
HETATM    2  C   UNL     1     -11.477  13.090  66.268  1.00  0.00    -0.379 C  
ENDROOT
BRANCH   2   3
HETATM    3  C   UNL     1     -10.078  12.629  66.565  1.00  0.00    -0.257 C  
HETATM    4  C   UNL     1      -9.725  11.386  66.933  1.00  0.00    -0.213 C  
BRANCH   4   5
HETATM    5  C   UNL     1     -10.691  10.255  67.142  1.00  0.00    -0.303 C  
BRANCH   5   6
HETATM    6  C   UNL     1     -10.362   9.435  68.356  1.00  0.00    -0.238 C  
HETATM    7  C   UNL     1     -10.839   9.658  69.594  1.00  0.00    -0.266 C  
BRANCH   7   8
HETATM    8  C   UNL     1     -11.748  10.801  69.945  1.00  0.00    -0.412 C  
BRANCH   8   9
HETATM    9  C   UNL     1     -12.695  10.457  71.057  1.00  0.00    -0.490 C  
HETATM   10  C   UNL     1     -13.262  11.350  71.888  1.00  0.00    -0.485 C  
BRANCH  10  11
HETATM   11  C   UNL     1     -13.071  12.834  71.760  1.00  0.00    -0.455 C  
BRANCH  11  12
HETATM   12  C   UNL     1     -14.328  13.622  72.116  1.00  0.00    -0.388 C  
BRANCH  12  13
HETATM   13  C   UNL     1     -14.131  15.105  71.800  1.00  0.00    -0.645 C  
BRANCH  13  14
HETATM   14  C   UNL     1     -13.243  15.769  72.847  1.00  0.00    -0.640 C  
BRANCH  14  15
HETATM   15  C   UNL     1     -11.924  16.247  72.240  1.00  0.00    -0.605 C  
BRANCH  15  16
HETATM   16  C   UNL     1     -11.931  16.051  70.725  1.00  0.00    -0.339 C  
BRANCH  16  17
HETATM   17  C   UNL     1     -10.576  15.577  70.210  1.00  0.00    -0.324 C  
HETATM   18  C   UNL     1     -10.237  16.202  68.875  1.00  0.00    -0.245 C  
HETATM   19  O   UNL     1     -10.936  16.996  68.265  1.00  0.00    -0.365 OA 
HETATM   20  O   UNL     1      -9.040  15.783  68.402  1.00  0.00    -0.180 OA 
ENDBRANCH  16  17
ENDBRANCH  15  16
ENDBRANCH  14  15
ENDBRANCH  13  14
ENDBRANCH  12  13
ENDBRANCH  11  12
ENDBRANCH  10  11
ENDBRANCH   8   9
ENDBRANCH   7   8
ENDBRANCH   5   6
ENDBRANCH   4   5
ENDBRANCH   2   3
TORSDOF 12
ENDMDL
MODEL       98
REMARK 921   NORMALIZED FREE ENERGY PREDICTED BY IDOCK:   -4.32 KCAL/MOL
REMARK 922        TOTAL FREE ENERGY PREDICTED BY IDOCK:   -9.20 KCAL/MOL
REMARK 923 INTER-LIGAND FREE ENERGY PREDICTED BY IDOCK:   -7.42 KCAL/MOL
REMARK 924 INTRA-LIGAND FREE ENERGY PREDICTED BY IDOCK:   -1.79 KCAL/MOL
REMARK 927      BINDING AFFINITY PREDICTED BY RF-SCORE:    0.00 PKD
ROOT
HETATM    1  C   UNL     1     -13.511   9.070  71.689  1.00  0.00    -0.442 C  
HETATM    2  C   UNL     1     -12.487   7.947  71.725  1.00  0.00    -0.352 C  
ENDROOT
BRANCH   2   3
HETATM    3  C   UNL     1     -11.346   8.262  72.650  1.00  0.00    -0.421 C  
HETATM    4  C   UNL     1     -10.062   8.412  72.287  1.00  0.00    -0.382 C  
BRANCH   4   5
HETATM    5  C   UNL     1      -9.551   8.250  70.883  1.00  0.00    -0.196 C  
BRANCH   5   6
HETATM    6  C   UNL     1      -8.997   9.529  70.322  1.00  0.00    -0.288 C  
HETATM    7  C   UNL     1      -9.638  10.338  69.461  1.00  0.00    -0.225 C  
BRANCH   7   8
HETATM    8  C   UNL     1     -11.000  10.049  68.899  1.00  0.00    -0.244 C  
BRANCH   8   9
HETATM    9  C   UNL     1     -11.985  11.140  69.198  1.00  0.00    -0.413 C  
HETATM   10  C   UNL     1     -11.895  12.403  68.744  1.00  0.00    -0.358 C  
BRANCH  10  11
HETATM   11  C   UNL     1     -10.816  12.870  67.808  1.00  0.00    -0.248 C  
BRANCH  11  12
HETATM   12  C   UNL     1     -10.042  14.066  68.352  1.00  0.00    -0.236 C  
BRANCH  12  13
HETATM   13  C   UNL     1     -10.605  15.367  67.780  1.00  0.00    -0.274 C  
BRANCH  13  14
HETATM   14  C   UNL     1     -11.228  16.220  68.880  1.00  0.00    -0.337 C  
BRANCH  14  15
HETATM   15  C   UNL     1     -10.922  15.655  70.267  1.00  0.00    -0.363 C  
BRANCH  15  16
HETATM   16  C   UNL     1     -12.101  15.887  71.210  1.00  0.00    -0.487 C  
BRANCH  16  17
HETATM   17  C   UNL     1     -13.071  14.710  71.203  1.00  0.00    -0.428 C  
HETATM   18  C   UNL     1     -13.477  14.314  72.605  1.00  0.00    -0.525 C  
HETATM   19  O   UNL     1     -13.100  14.854  73.632  1.00  0.00    -0.518 OA 
HETATM   20  O   UNL     1     -14.332  13.264  72.613  1.00  0.00    -0.679 OA 
ENDBRANCH  16  17
ENDBRANCH  15  16
ENDBRANCH  14  15
ENDBRANCH  13  14
ENDBRANCH  12  13
ENDBRANCH  11  12
ENDBRANCH  10  11
ENDBRANCH   8   9
ENDBRANCH   7   8
ENDBRANCH   5   6
ENDBRANCH   4   5
ENDBRANCH   2   3
TORSDOF 12
ENDMDL
MODEL       99
REMARK 921   NORMALIZED FREE ENERGY PREDICTED BY IDOCK:   -4.32 KCAL/MOL
REMARK 922        TOTAL FREE ENERGY PREDICTED BY IDOCK:   -9.20 KCAL/MOL
REMARK 923 INTER-LIGAND FREE ENERGY PREDICTED BY IDOCK:   -7.58 KCAL/MOL
REMARK 924 INTRA-LIGAND FREE ENERGY PREDICTED BY IDOCK:   -1.62 KCAL/MOL
REMARK 927      BINDING AFFINITY PREDICTED BY RF-SCORE:    0.00 PKD
ROOT
HETATM    1  C   UNL     1      -8.935   8.206  68.773  1.00  0.00    -0.144 C  
HETATM    2  C   UNL     1     -10.207   7.451  68.424  1.00  0.00    -0.207 C  
ENDROOT
BRANCH   2   3
HETATM    3  C   UNL     1     -10.338   6.182  69.217  1.00  0.00    -0.276 C  
HETATM    4  C   UNL     1     -11.210   5.969  70.216  1.00  0.00    -0.392 C  
BRANCH   4   5
HETATM    5  C   UNL     1     -12.182   6.994  70.729  1.00  0.00    -0.343 C  
BRANCH   5   6
HETATM    6  C   UNL     1     -11.608   7.823  71.842  1.00  0.00    -0.330 C  
HETATM    7  C   UNL     1     -12.039   9.045  72.199  1.00  0.00    -0.412 C  
BRANCH   7   8
HETATM    8  C   UNL     1     -13.144   9.780  71.495  1.00  0.00    -0.506 C  
BRANCH   8   9
HETATM    9  C   UNL     1     -12.806  11.221  71.251  1.00  0.00    -0.491 C  
HETATM   10  C   UNL     1     -12.092  11.678  70.207  1.00  0.00    -0.443 C  
BRANCH  10  11
HETATM   11  C   UNL     1     -11.594  10.795  69.097  1.00  0.00    -0.376 C  
BRANCH  11  12
HETATM   12  C   UNL     1     -10.800  11.563  68.046  1.00  0.00    -0.259 C  
BRANCH  12  13
HETATM   13  C   UNL     1     -10.640  13.025  68.466  1.00  0.00    -0.274 C  
BRANCH  13  14
HETATM   14  C   UNL     1      -9.318  13.593  67.961  1.00  0.00    -0.208 C  
BRANCH  14  15
HETATM   15  C   UNL     1      -9.536  14.825  67.083  1.00  0.00    -0.233 C  
BRANCH  15  16
HETATM   16  C   UNL     1     -10.961  14.844  66.535  1.00  0.00    -0.327 C  
BRANCH  16  17
HETATM   17  C   UNL     1     -10.997  14.534  65.042  1.00  0.00    -0.408 C  
HETATM   18  C   UNL     1     -12.369  14.076  64.600  1.00  0.00    -0.397 C  
HETATM   19  O   UNL     1     -13.347  13.966  65.323  1.00  0.00    -0.732 OA 
HETATM   20  O   UNL     1     -12.413  13.789  63.278  1.00  0.00    -0.819 OA 
ENDBRANCH  16  17
ENDBRANCH  15  16
ENDBRANCH  14  15
ENDBRANCH  13  14
ENDBRANCH  12  13
ENDBRANCH  11  12
ENDBRANCH  10  11
ENDBRANCH   8   9
ENDBRANCH   7   8
ENDBRANCH   5   6
ENDBRANCH   4   5
ENDBRANCH   2   3
TORSDOF 12
ENDMDL
MODEL      100
REMARK 921   NORMALIZED FREE ENERGY PREDICTED BY IDOCK:   -4.32 KCAL/MOL
REMARK 922        TOTAL FREE ENERGY PREDICTED BY IDOCK:   -9.20 KCAL/MOL
REMARK 923 INTER-LIGAND FREE ENERGY PREDICTED BY IDOCK:   -7.66 KCAL/MOL
REMARK 924 INTRA-LIGAND FREE ENERGY PREDICTED BY IDOCK:   -1.54 KCAL/MOL
REMARK 927      BINDING AFFINITY PREDICTED BY RF-SCORE:    0.00 PKD
ROOT
HETATM    1  C   UNL     1     -10.013   5.802  68.687  1.00  0.00    -0.201 C  
HETATM    2  C   UNL     1     -11.262   6.339  69.366  1.00  0.00    -0.489 C  
ENDROOT
BRANCH   2   3
HETATM    3  C   UNL     1     -11.281   6.019  70.834  1.00  0.00    -0.335 C  
HETATM    4  C   UNL     1     -12.163   6.496  71.728  1.00  0.00    -0.374 C  
BRANCH   4   5
HETATM    5  C   UNL     1     -13.262   7.467  71.404  1.00  0.00    -0.368 C  
BRANCH   5   6
HETATM    6  C   UNL     1     -13.110   8.771  72.133  1.00  0.00    -0.451 C  
HETATM    7  C   UNL     1     -12.567   9.888  71.618  1.00  0.00    -0.519 C  
BRANCH   7   8
HETATM    8  C   UNL     1     -11.989   9.975  70.235  1.00  0.00    -0.264 C  
BRANCH   8   9
HETATM    9  C   UNL     1     -10.491  10.063  70.246  1.00  0.00    -0.331 C  
HETATM   10  C   UNL     1      -9.697   9.791  69.195  1.00  0.00    -0.188 C  
BRANCH  10  11
HETATM   11  C   UNL     1     -10.222   9.427  67.835  1.00  0.00    -0.259 C  
BRANCH  11  12
HETATM   12  C   UNL     1     -10.892  10.601  67.130  1.00  0.00    -0.328 C  
BRANCH  12  13
HETATM   13  C   UNL     1      -9.906  11.759  66.973  1.00  0.00    -0.213 C  
BRANCH  13  14
HETATM   14  C   UNL     1      -9.684  12.087  65.500  1.00  0.00    -0.221 C  
BRANCH  14  15
HETATM   15  C   UNL     1     -10.989  12.018  64.708  1.00  0.00    -0.361 C  
BRANCH  15  16
HETATM   16  C   UNL     1     -11.976  13.067  65.214  1.00  0.00    -0.446 C  
BRANCH  16  17
HETATM   17  C   UNL     1     -12.102  14.239  64.245  1.00  0.00    -0.467 C  
HETATM   18  C   UNL     1     -11.378  15.465  64.756  1.00  0.00    -0.376 C  
HETATM   19  O   UNL     1     -10.756  15.537  65.804  1.00  0.00    -0.326 OA 
HETATM   20  O   UNL     1     -11.489  16.515  63.909  1.00  0.00    -1.145 OA 
ENDBRANCH  16  17
ENDBRANCH  15  16
ENDBRANCH  14  15
ENDBRANCH  13  14
ENDBRANCH  12  13
ENDBRANCH  11  12
ENDBRANCH  10  11
ENDBRANCH   8   9
ENDBRANCH   7   8
ENDBRANCH   5   6
ENDBRANCH   4   5
ENDBRANCH   2   3
TORSDOF 12
ENDMDL
MODEL      101
REMARK 921   NORMALIZED FREE ENERGY PREDICTED BY IDOCK:   -4.32 KCAL/MOL
REMARK 922        TOTAL FREE ENERGY PREDICTED BY IDOCK:   -9.19 KCAL/MOL
REMARK 923 INTER-LIGAND FREE ENERGY PREDICTED BY IDOCK:   -7.52 KCAL/MOL
REMARK 924 INTRA-LIGAND FREE ENERGY PREDICTED BY IDOCK:   -1.67 KCAL/MOL
REMARK 927      BINDING AFFINITY PREDICTED BY RF-SCORE:    0.00 PKD
ROOT
HETATM    1  C   UNL     1     -11.168  13.099  64.324  1.00  0.00    -0.422 C  
HETATM    2  C   UNL     1     -11.284  11.599  64.105  1.00  0.00    -0.421 C  
ENDROOT
BRANCH   2   3
HETATM    3  C   UNL     1     -10.159  11.070  63.261  1.00  0.00    -0.400 C  
HETATM    4  C   UNL     1      -9.255  10.154  63.645  1.00  0.00    -0.320 C  
BRANCH   4   5
HETATM    5  C   UNL     1      -9.204   9.531  65.012  1.00  0.00    -0.297 C  
BRANCH   5   6
HETATM    6  C   UNL     1      -8.576  10.436  66.032  1.00  0.00    -0.158 C  
HETATM    7  C   UNL     1      -9.154  10.825  67.182  1.00  0.00    -0.153 C  
BRANCH   7   8
HETATM    8  C   UNL     1     -10.546  10.437  67.591  1.00  0.00    -0.304 C  
BRANCH   8   9
HETATM    9  C   UNL     1     -11.472  11.615  67.658  1.00  0.00    -0.373 C  
HETATM   10  C   UNL     1     -12.010  12.107  68.789  1.00  0.00    -0.292 C  
BRANCH  10  11
HETATM   11  C   UNL     1     -11.690  11.574  70.156  1.00  0.00    -0.395 C  
BRANCH  11  12
HETATM   12  C   UNL     1     -12.774  10.645  70.693  1.00  0.00    -0.445 C  
BRANCH  12  13
HETATM   13  C   UNL     1     -13.385  11.225  71.969  1.00  0.00    -0.386 C  
BRANCH  13  14
HETATM   14  C   UNL     1     -13.070  12.712  72.095  1.00  0.00    -0.438 C  
BRANCH  14  15
HETATM   15  C   UNL     1     -14.337  13.535  72.322  1.00  0.00    -0.343 C  
BRANCH  15  16
HETATM   16  C   UNL     1     -14.107  14.991  71.920  1.00  0.00    -0.627 C  
BRANCH  16  17
HETATM   17  C   UNL     1     -13.048  15.115  70.829  1.00  0.00    -0.450 C  
HETATM   18  C   UNL     1     -11.885  15.972  71.276  1.00  0.00    -0.449 C  
HETATM   19  O   UNL     1     -11.775  16.506  72.368  1.00  0.00    -0.507 OA 
HETATM   20  O   UNL     1     -10.942  16.098  70.313  1.00  0.00    -0.344 OA 
ENDBRANCH  16  17
ENDBRANCH  15  16
ENDBRANCH  14  15
ENDBRANCH  13  14
ENDBRANCH  12  13
ENDBRANCH  11  12
ENDBRANCH  10  11
ENDBRANCH   8   9
ENDBRANCH   7   8
ENDBRANCH   5   6
ENDBRANCH   4   5
ENDBRANCH   2   3
TORSDOF 12
ENDMDL
MODEL      102
REMARK 921   NORMALIZED FREE ENERGY PREDICTED BY IDOCK:   -4.31 KCAL/MOL
REMARK 922        TOTAL FREE ENERGY PREDICTED BY IDOCK:   -9.18 KCAL/MOL
REMARK 923 INTER-LIGAND FREE ENERGY PREDICTED BY IDOCK:   -7.17 KCAL/MOL
REMARK 924 INTRA-LIGAND FREE ENERGY PREDICTED BY IDOCK:   -2.01 KCAL/MOL
REMARK 927      BINDING AFFINITY PREDICTED BY RF-SCORE:    0.00 PKD
ROOT
HETATM    1  C   UNL     1     -12.170  14.151  64.681  1.00  0.00    -0.465 C  
HETATM    2  C   UNL     1     -12.363  12.643  64.647  1.00  0.00    -0.546 C  
ENDROOT
BRANCH   2   3
HETATM    3  C   UNL     1     -11.379  11.976  63.728  1.00  0.00    -0.526 C  
HETATM    4  C   UNL     1     -10.462  11.065  64.092  1.00  0.00    -0.434 C  
BRANCH   4   5
HETATM    5  C   UNL     1     -10.248  10.590  65.501  1.00  0.00    -0.325 C  
BRANCH   5   6
HETATM    6  C   UNL     1      -8.876  10.919  66.016  1.00  0.00    -0.198 C  
HETATM    7  C   UNL     1      -8.496  12.117  66.494  1.00  0.00    -0.026 C  
BRANCH   7   8
HETATM    8  C   UNL     1      -9.392  13.322  66.538  1.00  0.00    -0.221 C  
BRANCH   8   9
HETATM    9  C   UNL     1      -9.536  13.876  67.925  1.00  0.00    -0.212 C  
HETATM   10  C   UNL     1     -10.658  13.817  68.664  1.00  0.00    -0.263 C  
BRANCH  10  11
HETATM   11  C   UNL     1     -11.908  13.116  68.214  1.00  0.00    -0.384 C  
BRANCH  11  12
HETATM   12  C   UNL     1     -11.884  11.621  68.512  1.00  0.00    -0.357 C  
BRANCH  12  13
HETATM   13  C   UNL     1     -11.397  11.373  69.940  1.00  0.00    -0.300 C  
BRANCH  13  14
HETATM   14  C   UNL     1     -12.563  11.393  70.923  1.00  0.00    -0.453 C  
BRANCH  14  15
HETATM   15  C   UNL     1     -12.667  10.079  71.696  1.00  0.00    -0.535 C  
BRANCH  15  16
HETATM   16  C   UNL     1     -11.374   9.277  71.560  1.00  0.00    -0.455 C  
BRANCH  16  17
HETATM   17  C   UNL     1     -11.359   8.069  72.492  1.00  0.00    -0.469 C  
HETATM   18  C   UNL     1     -11.798   6.809  71.779  1.00  0.00    -0.330 C  
HETATM   19  O   UNL     1     -12.124   6.735  70.605  1.00  0.00    -0.392 OA 
HETATM   20  O   UNL     1     -11.798   5.731  72.597  1.00  0.00    -0.278 OA 
ENDBRANCH  16  17
ENDBRANCH  15  16
ENDBRANCH  14  15
ENDBRANCH  13  14
ENDBRANCH  12  13
ENDBRANCH  11  12
ENDBRANCH  10  11
ENDBRANCH   8   9
ENDBRANCH   7   8
ENDBRANCH   5   6
ENDBRANCH   4   5
ENDBRANCH   2   3
TORSDOF 12
ENDMDL
MODEL      103
REMARK 921   NORMALIZED FREE ENERGY PREDICTED BY IDOCK:   -4.31 KCAL/MOL
REMARK 922        TOTAL FREE ENERGY PREDICTED BY IDOCK:   -9.17 KCAL/MOL
REMARK 923 INTER-LIGAND FREE ENERGY PREDICTED BY IDOCK:   -7.64 KCAL/MOL
REMARK 924 INTRA-LIGAND FREE ENERGY PREDICTED BY IDOCK:   -1.53 KCAL/MOL
REMARK 927      BINDING AFFINITY PREDICTED BY RF-SCORE:    0.00 PKD
ROOT
HETATM    1  C   UNL     1      -8.533   9.669  69.747  1.00  0.00    -0.200 C  
HETATM    2  C   UNL     1      -9.352   9.031  70.858  1.00  0.00    -0.326 C  
ENDROOT
BRANCH   2   3
HETATM    3  C   UNL     1      -8.478   8.421  71.917  1.00  0.00    -0.237 C  
HETATM    4  C   UNL     1      -8.403   7.113  72.212  1.00  0.00    -0.117 C  
BRANCH   4   5
HETATM    5  C   UNL     1      -9.219   6.043  71.545  1.00  0.00    -0.151 C  
BRANCH   5   6
HETATM    6  C   UNL     1     -10.330   5.539  72.421  1.00  0.00    -0.251 C  
HETATM    7  C   UNL     1     -11.631   5.847  72.276  1.00  0.00    -0.338 C  
BRANCH   7   8
HETATM    8  C   UNL     1     -12.155   6.787  71.228  1.00  0.00    -0.421 C  
BRANCH   8   9
HETATM    9  C   UNL     1     -13.496   7.354  71.588  1.00  0.00    -0.437 C  
HETATM   10  C   UNL     1     -13.803   8.664  71.587  1.00  0.00    -0.440 C  
BRANCH  10  11
HETATM   11  C   UNL     1     -12.845   9.736  71.151  1.00  0.00    -0.434 C  
BRANCH  11  12
HETATM   12  C   UNL     1     -13.234  11.117  71.669  1.00  0.00    -0.449 C  
BRANCH  12  13
HETATM   13  C   UNL     1     -12.430  12.200  70.947  1.00  0.00    -0.374 C  
BRANCH  13  14
HETATM   14  C   UNL     1     -11.896  11.681  69.616  1.00  0.00    -0.419 C  
BRANCH  14  15
HETATM   15  C   UNL     1     -11.382  12.821  68.736  1.00  0.00    -0.332 C  
BRANCH  15  16
HETATM   16  C   UNL     1     -11.784  12.595  67.281  1.00  0.00    -0.435 C  
BRANCH  16  17
HETATM   17  C   UNL     1     -11.820  13.901  66.494  1.00  0.00    -0.440 C  
HETATM   18  C   UNL     1     -12.521  13.733  65.165  1.00  0.00    -0.450 C  
HETATM   19  O   UNL     1     -13.014  12.697  64.748  1.00  0.00    -0.816 OA 
HETATM   20  O   UNL     1     -12.553  14.884  64.453  1.00  0.00    -0.577 OA 
ENDBRANCH  16  17
ENDBRANCH  15  16
ENDBRANCH  14  15
ENDBRANCH  13  14
ENDBRANCH  12  13
ENDBRANCH  11  12
ENDBRANCH  10  11
ENDBRANCH   8   9
ENDBRANCH   7   8
ENDBRANCH   5   6
ENDBRANCH   4   5
ENDBRANCH   2   3
TORSDOF 12
ENDMDL
MODEL      104
REMARK 921   NORMALIZED FREE ENERGY PREDICTED BY IDOCK:   -4.31 KCAL/MOL
REMARK 922        TOTAL FREE ENERGY PREDICTED BY IDOCK:   -9.17 KCAL/MOL
REMARK 923 INTER-LIGAND FREE ENERGY PREDICTED BY IDOCK:   -7.38 KCAL/MOL
REMARK 924 INTRA-LIGAND FREE ENERGY PREDICTED BY IDOCK:   -1.79 KCAL/MOL
REMARK 927      BINDING AFFINITY PREDICTED BY RF-SCORE:    0.00 PKD
ROOT
HETATM    1  C   UNL     1     -10.438  19.729  65.797  1.00  0.00    -0.545 C  
HETATM    2  C   UNL     1     -10.746  19.075  67.135  1.00  0.00    -0.541 C  
ENDROOT
BRANCH   2   3
HETATM    3  C   UNL     1      -9.917  19.656  68.244  1.00  0.00    -0.543 C  
HETATM    4  C   UNL     1      -8.675  19.269  68.579  1.00  0.00    -0.405 C  
BRANCH   4   5
HETATM    5  C   UNL     1      -7.923  18.153  67.910  1.00  0.00    -0.249 C  
BRANCH   5   6
HETATM    6  C   UNL     1      -7.786  16.945  68.791  1.00  0.00    -0.247 C  
HETATM    7  C   UNL     1      -8.535  15.832  68.701  1.00  0.00    -0.193 C  
BRANCH   7   8
HETATM    8  C   UNL     1      -9.659  15.658  67.719  1.00  0.00    -0.209 C  
BRANCH   8   9
HETATM    9  C   UNL     1      -9.207  15.016  66.441  1.00  0.00    -0.328 C  
HETATM   10  C   UNL     1      -9.983  14.828  65.358  1.00  0.00    -0.369 C  
BRANCH  10  11
HETATM   11  C   UNL     1     -11.403  15.309  65.267  1.00  0.00    -0.282 C  
BRANCH  11  12
HETATM   12  C   UNL     1     -12.277  14.403  64.406  1.00  0.00    -0.481 C  
BRANCH  12  13
HETATM   13  C   UNL     1     -12.068  12.939  64.796  1.00  0.00    -0.474 C  
BRANCH  13  14
HETATM   14  C   UNL     1     -11.925  12.063  63.556  1.00  0.00    -0.605 C  
BRANCH  14  15
HETATM   15  C   UNL     1     -10.540  11.421  63.480  1.00  0.00    -0.468 C  
BRANCH  15  16
HETATM   16  C   UNL     1      -9.914  11.339  64.871  1.00  0.00    -0.323 C  
BRANCH  16  17
HETATM   17  C   UNL     1      -9.699   9.894  65.309  1.00  0.00    -0.383 C  
HETATM   18  C   UNL     1     -10.396   9.599  66.619  1.00  0.00    -0.208 C  
HETATM   19  O   UNL     1     -11.060  10.395  67.264  1.00  0.00    -0.278 OA 
HETATM   20  O   UNL     1     -10.206   8.322  67.025  1.00  0.00    -0.252 OA 
ENDBRANCH  16  17
ENDBRANCH  15  16
ENDBRANCH  14  15
ENDBRANCH  13  14
ENDBRANCH  12  13
ENDBRANCH  11  12
ENDBRANCH  10  11
ENDBRANCH   8   9
ENDBRANCH   7   8
ENDBRANCH   5   6
ENDBRANCH   4   5
ENDBRANCH   2   3
TORSDOF 12
ENDMDL
MODEL      105
REMARK 921   NORMALIZED FREE ENERGY PREDICTED BY IDOCK:   -4.30 KCAL/MOL
REMARK 922        TOTAL FREE ENERGY PREDICTED BY IDOCK:   -9.16 KCAL/MOL
REMARK 923 INTER-LIGAND FREE ENERGY PREDICTED BY IDOCK:   -7.02 KCAL/MOL
REMARK 924 INTRA-LIGAND FREE ENERGY PREDICTED BY IDOCK:   -2.14 KCAL/MOL
REMARK 927      BINDING AFFINITY PREDICTED BY RF-SCORE:    0.00 PKD
ROOT
HETATM    1  C   UNL     1     -12.556  14.067  65.911  1.00  0.00    -0.484 C  
HETATM    2  C   UNL     1     -11.908  14.171  64.540  1.00  0.00    -0.451 C  
ENDROOT
BRANCH   2   3
HETATM    3  C   UNL     1     -12.278  13.011  63.659  1.00  0.00    -0.568 C  
HETATM    4  C   UNL     1     -11.473  11.986  63.334  1.00  0.00    -0.489 C  
BRANCH   4   5
HETATM    5  C   UNL     1     -10.044  11.854  63.778  1.00  0.00    -0.423 C  
BRANCH   5   6
HETATM    6  C   UNL     1      -9.732  10.484  64.308  1.00  0.00    -0.391 C  
HETATM    7  C   UNL     1      -9.914  10.085  65.579  1.00  0.00    -0.367 C  
BRANCH   7   8
HETATM    8  C   UNL     1     -10.423  10.981  66.671  1.00  0.00    -0.307 C  
BRANCH   8   9
HETATM    9  C   UNL     1      -9.409  11.189  67.758  1.00  0.00    -0.166 C  
HETATM   10  C   UNL     1      -8.847  12.371  68.069  1.00  0.00    -0.187 C  
BRANCH  10  11
HETATM   11  C   UNL     1      -9.222  13.665  67.404  1.00  0.00    -0.222 C  
BRANCH  11  12
HETATM   12  C   UNL     1      -9.903  14.640  68.357  1.00  0.00    -0.220 C  
BRANCH  12  13
HETATM   13  C   UNL     1      -9.408  16.065  68.102  1.00  0.00    -0.200 C  
BRANCH  13  14
HETATM   14  C   UNL     1      -9.440  16.392  66.613  1.00  0.00    -0.277 C  
BRANCH  14  15
HETATM   15  C   UNL     1     -10.262  17.649  66.332  1.00  0.00    -0.364 C  
BRANCH  15  16
HETATM   16  C   UNL     1     -10.216  18.595  67.530  1.00  0.00    -0.425 C  
BRANCH  16  17
HETATM   17  C   UNL     1      -9.559  19.925  67.175  1.00  0.00    -0.508 C  
HETATM   18  C   UNL     1      -8.181  20.046  67.787  1.00  0.00    -0.292 C  
HETATM   19  O   UNL     1      -7.633  19.201  68.477  1.00  0.00    -0.305 OA 
HETATM   20  O   UNL     1      -7.589  21.226  67.486  1.00  0.00    -0.373 OA 
ENDBRANCH  16  17
ENDBRANCH  15  16
ENDBRANCH  14  15
ENDBRANCH  13  14
ENDBRANCH  12  13
ENDBRANCH  11  12
ENDBRANCH  10  11
ENDBRANCH   8   9
ENDBRANCH   7   8
ENDBRANCH   5   6
ENDBRANCH   4   5
ENDBRANCH   2   3
TORSDOF 12
ENDMDL
MODEL      106
REMARK 921   NORMALIZED FREE ENERGY PREDICTED BY IDOCK:   -4.30 KCAL/MOL
REMARK 922        TOTAL FREE ENERGY PREDICTED BY IDOCK:   -9.15 KCAL/MOL
REMARK 923 INTER-LIGAND FREE ENERGY PREDICTED BY IDOCK:   -7.14 KCAL/MOL
REMARK 924 INTRA-LIGAND FREE ENERGY PREDICTED BY IDOCK:   -2.02 KCAL/MOL
REMARK 927      BINDING AFFINITY PREDICTED BY RF-SCORE:    0.00 PKD
ROOT
HETATM    1  C   UNL     1      -9.192  17.513  67.944  1.00  0.00    -0.265 C  
HETATM    2  C   UNL     1      -9.862  16.419  68.761  1.00  0.00    -0.250 C  
ENDROOT
BRANCH   2   3
HETATM    3  C   UNL     1     -11.148  15.962  68.133  1.00  0.00    -0.338 C  
HETATM    4  C   UNL     1     -12.072  15.182  68.719  1.00  0.00    -0.199 C  
BRANCH   4   5
HETATM    5  C   UNL     1     -11.946  14.609  70.102  1.00  0.00    -0.372 C  
BRANCH   5   6
HETATM    6  C   UNL     1     -13.256  14.592  70.838  1.00  0.00    -0.373 C  
HETATM    7  C   UNL     1     -13.634  13.653  71.723  1.00  0.00    -0.445 C  
BRANCH   7   8
HETATM    8  C   UNL     1     -12.804  12.451  72.072  1.00  0.00    -0.263 C  
BRANCH   8   9
HETATM    9  C   UNL     1     -13.133  11.263  71.217  1.00  0.00    -0.317 C  
HETATM   10  C   UNL     1     -12.325  10.747  70.273  1.00  0.00    -0.423 C  
BRANCH  10  11
HETATM   11  C   UNL     1     -10.941  11.262  70.000  1.00  0.00    -0.000 C  
BRANCH  11  12
HETATM   12  C   UNL     1     -10.608  11.295  68.512  1.00  0.00    -0.227 C  
BRANCH  12  13
HETATM   13  C   UNL     1     -11.732  11.981  67.733  1.00  0.00    -0.379 C  
BRANCH  13  14
HETATM   14  C   UNL     1     -11.233  12.465  66.375  1.00  0.00    -0.365 C  
BRANCH  14  15
HETATM   15  C   UNL     1     -12.382  12.619  65.379  1.00  0.00    -0.499 C  
BRANCH  15  16
HETATM   16  C   UNL     1     -11.940  13.457  64.181  1.00  0.00    -0.505 C  
BRANCH  16  17
HETATM   17  C   UNL     1     -10.988  14.576  64.594  1.00  0.00    -0.351 C  
HETATM   18  C   UNL     1     -11.558  15.939  64.275  1.00  0.00    -0.178 C  
HETATM   19  O   UNL     1     -12.644  16.152  63.759  1.00  0.00    -0.635 OA 
HETATM   20  O   UNL     1     -10.720  16.941  64.629  1.00  0.00    -0.756 OA 
ENDBRANCH  16  17
ENDBRANCH  15  16
ENDBRANCH  14  15
ENDBRANCH  13  14
ENDBRANCH  12  13
ENDBRANCH  11  12
ENDBRANCH  10  11
ENDBRANCH   8   9
ENDBRANCH   7   8
ENDBRANCH   5   6
ENDBRANCH   4   5
ENDBRANCH   2   3
TORSDOF 12
ENDMDL
MODEL      107
REMARK 921   NORMALIZED FREE ENERGY PREDICTED BY IDOCK:   -4.29 KCAL/MOL
REMARK 922        TOTAL FREE ENERGY PREDICTED BY IDOCK:   -9.15 KCAL/MOL
REMARK 923 INTER-LIGAND FREE ENERGY PREDICTED BY IDOCK:   -6.96 KCAL/MOL
REMARK 924 INTRA-LIGAND FREE ENERGY PREDICTED BY IDOCK:   -2.19 KCAL/MOL
REMARK 927      BINDING AFFINITY PREDICTED BY RF-SCORE:    0.00 PKD
ROOT
HETATM    1  C   UNL     1     -13.392   9.683  71.832  1.00  0.00    -0.526 C  
HETATM    2  C   UNL     1     -12.708  11.002  71.511  1.00  0.00    -0.521 C  
ENDROOT
BRANCH   2   3
HETATM    3  C   UNL     1     -13.480  12.175  72.044  1.00  0.00    -0.388 C  
HETATM    4  C   UNL     1     -13.222  13.467  71.782  1.00  0.00    -0.490 C  
BRANCH   4   5
HETATM    5  C   UNL     1     -12.082  13.950  70.931  1.00  0.00    -0.391 C  
BRANCH   5   6
HETATM    6  C   UNL     1     -12.527  14.917  69.870  1.00  0.00    -0.273 C  
HETATM    7  C   UNL     1     -11.705  15.638  69.087  1.00  0.00    -0.402 C  
BRANCH   7   8
HETATM    8  C   UNL     1     -10.208  15.608  69.194  1.00  0.00    -0.233 C  
BRANCH   8   9
HETATM    9  C   UNL     1      -9.567  16.826  68.598  1.00  0.00    -0.255 C  
HETATM   10  C   UNL     1      -9.088  16.907  67.344  1.00  0.00    -0.221 C  
BRANCH  10  11
HETATM   11  C   UNL     1      -9.199  15.792  66.343  1.00  0.00    -0.347 C  
BRANCH  11  12
HETATM   12  C   UNL     1     -10.317  16.018  65.332  1.00  0.00    -0.386 C  
BRANCH  12  13
HETATM   13  C   UNL     1     -10.903  14.680  64.881  1.00  0.00    -0.436 C  
BRANCH  13  14
HETATM   14  C   UNL     1     -11.986  14.209  65.845  1.00  0.00    -0.420 C  
BRANCH  14  15
HETATM   15  C   UNL     1     -11.908  12.701  66.083  1.00  0.00    -0.477 C  
BRANCH  15  16
HETATM   16  C   UNL     1     -10.921  12.388  67.206  1.00  0.00    -0.302 C  
BRANCH  16  17
HETATM   17  C   UNL     1     -11.458  11.314  68.147  1.00  0.00    -0.376 C  
HETATM   18  C   UNL     1     -10.487  10.164  68.291  1.00  0.00    -0.211 C  
HETATM   19  O   UNL     1      -9.400  10.079  67.742  1.00  0.00    -0.140 OA 
HETATM   20  O   UNL     1     -10.954   9.199  69.117  1.00  0.00    -0.161 OA 
ENDBRANCH  16  17
ENDBRANCH  15  16
ENDBRANCH  14  15
ENDBRANCH  13  14
ENDBRANCH  12  13
ENDBRANCH  11  12
ENDBRANCH  10  11
ENDBRANCH   8   9
ENDBRANCH   7   8
ENDBRANCH   5   6
ENDBRANCH   4   5
ENDBRANCH   2   3
TORSDOF 12
ENDMDL
MODEL      108
REMARK 921   NORMALIZED FREE ENERGY PREDICTED BY IDOCK:   -4.29 KCAL/MOL
REMARK 922        TOTAL FREE ENERGY PREDICTED BY IDOCK:   -9.15 KCAL/MOL
REMARK 923 INTER-LIGAND FREE ENERGY PREDICTED BY IDOCK:   -7.29 KCAL/MOL
REMARK 924 INTRA-LIGAND FREE ENERGY PREDICTED BY IDOCK:   -1.86 KCAL/MOL
REMARK 927      BINDING AFFINITY PREDICTED BY RF-SCORE:    0.00 PKD
ROOT
HETATM    1  C   UNL     1     -11.714  12.894  67.413  1.00  0.00    -0.428 C  
HETATM    2  C   UNL     1     -12.090  13.757  66.220  1.00  0.00    -0.484 C  
ENDROOT
BRANCH   2   3
HETATM    3  C   UNL     1     -12.769  12.957  65.144  1.00  0.00    -0.443 C  
HETATM    4  C   UNL     1     -12.163  12.398  64.084  1.00  0.00    -0.558 C  
BRANCH   4   5
HETATM    5  C   UNL     1     -10.696  12.517  63.783  1.00  0.00    -0.483 C  
BRANCH   5   6
HETATM    6  C   UNL     1     -10.071  11.195  63.442  1.00  0.00    -0.439 C  
HETATM    7  C   UNL     1      -9.640  10.288  64.337  1.00  0.00    -0.378 C  
BRANCH   7   8
HETATM    8  C   UNL     1      -9.687  10.494  65.823  1.00  0.00    -0.277 C  
BRANCH   8   9
HETATM    9  C   UNL     1     -10.688   9.599  66.493  1.00  0.00    -0.044 C  
HETATM   10  C   UNL     1     -10.710   9.320  67.809  1.00  0.00    -0.270 C  
BRANCH  10  11
HETATM   11  C   UNL     1      -9.764   9.935  68.801  1.00  0.00    -0.164 C  
BRANCH  11  12
HETATM   12  C   UNL     1     -10.454  10.339  70.099  1.00  0.00    -0.259 C  
BRANCH  12  13
HETATM   13  C   UNL     1     -11.480   9.281  70.506  1.00  0.00    -0.296 C  
BRANCH  13  14
HETATM   14  C   UNL     1     -12.794   9.932  70.925  1.00  0.00    -0.360 C  
BRANCH  14  15
HETATM   15  C   UNL     1     -12.725  11.455  70.816  1.00  0.00    -0.343 C  
BRANCH  15  16
HETATM   16  C   UNL     1     -13.070  12.102  72.155  1.00  0.00    -0.380 C  
BRANCH  16  17
HETATM   17  C   UNL     1     -14.015  13.287  71.983  1.00  0.00    -0.353 C  
HETATM   18  C   UNL     1     -13.415  14.563  72.530  1.00  0.00    -0.483 C  
HETATM   19  O   UNL     1     -12.312  14.665  73.043  1.00  0.00    -0.297 OA 
HETATM   20  O   UNL     1     -14.247  15.621  72.391  1.00  0.00    -0.551 OA 
ENDBRANCH  16  17
ENDBRANCH  15  16
ENDBRANCH  14  15
ENDBRANCH  13  14
ENDBRANCH  12  13
ENDBRANCH  11  12
ENDBRANCH  10  11
ENDBRANCH   8   9
ENDBRANCH   7   8
ENDBRANCH   5   6
ENDBRANCH   4   5
ENDBRANCH   2   3
TORSDOF 12
ENDMDL
MODEL      109
REMARK 921   NORMALIZED FREE ENERGY PREDICTED BY IDOCK:   -4.29 KCAL/MOL
REMARK 922        TOTAL FREE ENERGY PREDICTED BY IDOCK:   -9.14 KCAL/MOL
REMARK 923 INTER-LIGAND FREE ENERGY PREDICTED BY IDOCK:   -7.01 KCAL/MOL
REMARK 924 INTRA-LIGAND FREE ENERGY PREDICTED BY IDOCK:   -2.13 KCAL/MOL
REMARK 927      BINDING AFFINITY PREDICTED BY RF-SCORE:    0.00 PKD
ROOT
HETATM    1  C   UNL     1     -11.434  10.809  70.330  1.00  0.00    -0.406 C  
HETATM    2  C   UNL     1     -12.732  11.590  70.456  1.00  0.00    -0.193 C  
ENDROOT
BRANCH   2   3
HETATM    3  C   UNL     1     -13.050  11.914  71.888  1.00  0.00    -0.474 C  
HETATM    4  C   UNL     1     -13.556  13.076  72.334  1.00  0.00    -0.628 C  
BRANCH   4   5
HETATM    5  C   UNL     1     -13.854  14.263  71.463  1.00  0.00    -0.428 C  
BRANCH   5   6
HETATM    6  C   UNL     1     -13.013  15.458  71.813  1.00  0.00    -0.509 C  
HETATM    7  C   UNL     1     -11.884  15.821  71.180  1.00  0.00    -0.471 C  
BRANCH   7   8
HETATM    8  C   UNL     1     -11.276  15.048  70.045  1.00  0.00    -0.301 C  
BRANCH   8   9
HETATM    9  C   UNL     1     -11.811  15.475  68.710  1.00  0.00    -0.335 C  
HETATM   10  C   UNL     1     -11.603  14.822  67.553  1.00  0.00    -0.379 C  
BRANCH  10  11
HETATM   11  C   UNL     1     -10.855  13.522  67.462  1.00  0.00    -0.276 C  
BRANCH  11  12
HETATM   12  C   UNL     1      -9.522  13.660  66.734  1.00  0.00    -0.275 C  
BRANCH  12  13
HETATM   13  C   UNL     1      -9.405  15.047  66.100  1.00  0.00    -0.327 C  
BRANCH  13  14
HETATM   14  C   UNL     1      -8.160  15.771  66.604  1.00  0.00    -0.282 C  
BRANCH  14  15
HETATM   15  C   UNL     1      -8.218  16.001  68.114  1.00  0.00    -0.152 C  
BRANCH  15  16
HETATM   16  C   UNL     1      -8.279  17.495  68.424  1.00  0.00    -0.278 C  
BRANCH  16  17
HETATM   17  C   UNL     1      -8.171  18.339  67.158  1.00  0.00    -0.239 C  
HETATM   18  C   UNL     1      -9.486  19.003  66.816  1.00  0.00    -0.329 C  
HETATM   19  O   UNL     1     -10.520  18.901  67.456  1.00  0.00    -0.400 OA 
HETATM   20  O   UNL     1      -9.406  19.749  65.689  1.00  0.00    -0.327 OA 
ENDBRANCH  16  17
ENDBRANCH  15  16
ENDBRANCH  14  15
ENDBRANCH  13  14
ENDBRANCH  12  13
ENDBRANCH  11  12
ENDBRANCH  10  11
ENDBRANCH   8   9
ENDBRANCH   7   8
ENDBRANCH   5   6
ENDBRANCH   4   5
ENDBRANCH   2   3
TORSDOF 12
ENDMDL
MODEL      110
REMARK 921   NORMALIZED FREE ENERGY PREDICTED BY IDOCK:   -4.28 KCAL/MOL
REMARK 922        TOTAL FREE ENERGY PREDICTED BY IDOCK:   -9.13 KCAL/MOL
REMARK 923 INTER-LIGAND FREE ENERGY PREDICTED BY IDOCK:   -7.43 KCAL/MOL
REMARK 924 INTRA-LIGAND FREE ENERGY PREDICTED BY IDOCK:   -1.70 KCAL/MOL
REMARK 927      BINDING AFFINITY PREDICTED BY RF-SCORE:    0.00 PKD
ROOT
HETATM    1  C   UNL     1     -12.646  12.195  63.587  1.00  0.00    -0.616 C  
HETATM    2  C   UNL     1     -11.267  12.387  64.198  1.00  0.00    -0.434 C  
ENDROOT
BRANCH   2   3
HETATM    3  C   UNL     1     -10.222  11.582  63.478  1.00  0.00    -0.462 C  
HETATM    4  C   UNL     1      -9.598  10.496  63.963  1.00  0.00    -0.367 C  
BRANCH   4   5
HETATM    5  C   UNL     1      -9.824   9.928  65.335  1.00  0.00    -0.384 C  
BRANCH   5   6
HETATM    6  C   UNL     1      -9.108   8.624  65.542  1.00  0.00    -0.190 C  
HETATM    7  C   UNL     1      -9.321   7.778  66.566  1.00  0.00    -0.243 C  
BRANCH   7   8
HETATM    8  C   UNL     1     -10.288   8.045  67.683  1.00  0.00    -0.312 C  
BRANCH   8   9
HETATM    9  C   UNL     1      -9.643   7.943  69.034  1.00  0.00    -0.155 C  
HETATM   10  C   UNL     1     -10.203   7.366  70.112  1.00  0.00    -0.207 C  
BRANCH  10  11
HETATM   11  C   UNL     1     -11.537   6.675  70.080  1.00  0.00    -0.446 C  
BRANCH  11  12
HETATM   12  C   UNL     1     -12.325   6.860  71.372  1.00  0.00    -0.421 C  
BRANCH  12  13
HETATM   13  C   UNL     1     -11.949   8.184  72.039  1.00  0.00    -0.390 C  
BRANCH  13  14
HETATM   14  C   UNL     1     -13.188   9.039  72.284  1.00  0.00    -0.519 C  
BRANCH  14  15
HETATM   15  C   UNL     1     -13.185  10.292  71.409  1.00  0.00    -0.464 C  
BRANCH  15  16
HETATM   16  C   UNL     1     -11.789  10.545  70.843  1.00  0.00    -0.455 C  
BRANCH  16  17
HETATM   17  C   UNL     1     -11.842  10.985  69.383  1.00  0.00    -0.407 C  
HETATM   18  C   UNL     1     -11.886  12.491  69.257  1.00  0.00    -0.304 C  
HETATM   19  O   UNL     1     -11.875  13.283  70.186  1.00  0.00    -0.312 OA 
HETATM   20  O   UNL     1     -11.942  12.896  67.966  1.00  0.00    -0.346 OA 
ENDBRANCH  16  17
ENDBRANCH  15  16
ENDBRANCH  14  15
ENDBRANCH  13  14
ENDBRANCH  12  13
ENDBRANCH  11  12
ENDBRANCH  10  11
ENDBRANCH   8   9
ENDBRANCH   7   8
ENDBRANCH   5   6
ENDBRANCH   4   5
ENDBRANCH   2   3
TORSDOF 12
ENDMDL
MODEL      111
REMARK 921   NORMALIZED FREE ENERGY PREDICTED BY IDOCK:   -4.28 KCAL/MOL
REMARK 922        TOTAL FREE ENERGY PREDICTED BY IDOCK:   -9.13 KCAL/MOL
REMARK 923 INTER-LIGAND FREE ENERGY PREDICTED BY IDOCK:   -6.96 KCAL/MOL
REMARK 924 INTRA-LIGAND FREE ENERGY PREDICTED BY IDOCK:   -2.16 KCAL/MOL
REMARK 927      BINDING AFFINITY PREDICTED BY RF-SCORE:    0.00 PKD
ROOT
HETATM    1  C   UNL     1     -12.222  10.909  69.952  1.00  0.00    -0.408 C  
HETATM    2  C   UNL     1     -11.742  11.050  68.516  1.00  0.00    -0.348 C  
ENDROOT
BRANCH   2   3
HETATM    3  C   UNL     1     -10.247  11.175  68.438  1.00  0.00    -0.200 C  
HETATM    4  C   UNL     1      -9.480  10.765  67.414  1.00  0.00    -0.171 C  
BRANCH   4   5
HETATM    5  C   UNL     1     -10.000  10.076  66.184  1.00  0.00    -0.322 C  
BRANCH   5   6
HETATM    6  C   UNL     1      -9.500  10.707  64.917  1.00  0.00    -0.293 C  
HETATM    7  C   UNL     1     -10.273  11.295  63.987  1.00  0.00    -0.403 C  
BRANCH   7   8
HETATM    8  C   UNL     1     -11.771  11.364  64.069  1.00  0.00    -0.055 C  
BRANCH   8   9
HETATM    9  C   UNL     1     -12.297  12.736  63.767  1.00  0.00    -0.533 C  
HETATM   10  C   UNL     1     -12.517  13.695  64.684  1.00  0.00    -0.359 C  
BRANCH  10  11
HETATM   11  C   UNL     1     -12.191  13.534  66.142  1.00  0.00    -0.484 C  
BRANCH  11  12
HETATM   12  C   UNL     1     -11.081  14.472  66.603  1.00  0.00    -0.333 C  
BRANCH  12  13
HETATM   13  C   UNL     1     -11.257  14.815  68.083  1.00  0.00    -0.307 C  
BRANCH  13  14
HETATM   14  C   UNL     1     -10.030  15.543  68.621  1.00  0.00    -0.208 C  
BRANCH  14  15
HETATM   15  C   UNL     1     -10.411  16.863  69.291  1.00  0.00    -0.298 C  
BRANCH  15  16
HETATM   16  C   UNL     1      -9.837  18.043  68.509  1.00  0.00    -0.383 C  
BRANCH  16  17
HETATM   17  C   UNL     1     -10.745  18.450  67.353  1.00  0.00    -0.397 C  
HETATM   18  C   UNL     1     -10.164  18.041  66.018  1.00  0.00    -0.303 C  
HETATM   19  O   UNL     1      -9.108  17.452  65.854  1.00  0.00    -0.515 OA 
HETATM   20  O   UNL     1     -10.956  18.404  64.982  1.00  0.00    -0.644 OA 
ENDBRANCH  16  17
ENDBRANCH  15  16
ENDBRANCH  14  15
ENDBRANCH  13  14
ENDBRANCH  12  13
ENDBRANCH  11  12
ENDBRANCH  10  11
ENDBRANCH   8   9
ENDBRANCH   7   8
ENDBRANCH   5   6
ENDBRANCH   4   5
ENDBRANCH   2   3
TORSDOF 12
ENDMDL
MODEL      112
REMARK 921   NORMALIZED FREE ENERGY PREDICTED BY IDOCK:   -4.27 KCAL/MOL
REMARK 922        TOTAL FREE ENERGY PREDICTED BY IDOCK:   -9.11 KCAL/MOL
REMARK 923 INTER-LIGAND FREE ENERGY PREDICTED BY IDOCK:   -7.09 KCAL/MOL
REMARK 924 INTRA-LIGAND FREE ENERGY PREDICTED BY IDOCK:   -2.01 KCAL/MOL
REMARK 927      BINDING AFFINITY PREDICTED BY RF-SCORE:    0.00 PKD
ROOT
HETATM    1  C   UNL     1      -8.901  13.906  67.885  1.00  0.00    -0.184 C  
HETATM    2  C   UNL     1      -9.513  14.095  66.506  1.00  0.00    -0.303 C  
ENDROOT
BRANCH   2   3
HETATM    3  C   UNL     1     -10.887  14.697  66.583  1.00  0.00    -0.312 C  
HETATM    4  C   UNL     1     -12.037  14.062  66.298  1.00  0.00    -0.482 C  
BRANCH   4   5
HETATM    5  C   UNL     1     -12.126  12.642  65.816  1.00  0.00    -0.484 C  
BRANCH   5   6
HETATM    6  C   UNL     1     -12.542  12.549  64.376  1.00  0.00    -0.497 C  
HETATM    7  C   UNL     1     -11.719  12.276  63.348  1.00  0.00    -0.542 C  
BRANCH   7   8
HETATM    8  C   UNL     1     -10.240  12.065  63.497  1.00  0.00    -0.477 C  
BRANCH   8   9
HETATM    9  C   UNL     1      -9.865  10.612  63.479  1.00  0.00    -0.384 C  
HETATM   10  C   UNL     1      -9.419   9.920  64.542  1.00  0.00    -0.328 C  
BRANCH  10  11
HETATM   11  C   UNL     1      -9.304  10.506  65.921  1.00  0.00    -0.220 C  
BRANCH  11  12
HETATM   12  C   UNL     1     -10.169   9.778  66.943  1.00  0.00    -0.310 C  
BRANCH  12  13
HETATM   13  C   UNL     1      -9.808  10.227  68.360  1.00  0.00    -0.168 C  
BRANCH  13  14
HETATM   14  C   UNL     1      -9.509   9.026  69.250  1.00  0.00    -0.157 C  
BRANCH  14  15
HETATM   15  C   UNL     1      -9.572   9.397  70.732  1.00  0.00    -0.322 C  
BRANCH  15  16
HETATM   16  C   UNL     1     -11.017   9.644  71.159  1.00  0.00    -0.430 C  
BRANCH  16  17
HETATM   17  C   UNL     1     -11.866   8.382  71.037  1.00  0.00    -0.278 C  
HETATM   18  C   UNL     1     -13.182   8.523  71.769  1.00  0.00    -0.364 C  
HETATM   19  O   UNL     1     -13.551   9.512  72.382  1.00  0.00    -0.452 OA 
HETATM   20  O   UNL     1     -13.942   7.407  71.676  1.00  0.00    -0.400 OA 
ENDBRANCH  16  17
ENDBRANCH  15  16
ENDBRANCH  14  15
ENDBRANCH  13  14
ENDBRANCH  12  13
ENDBRANCH  11  12
ENDBRANCH  10  11
ENDBRANCH   8   9
ENDBRANCH   7   8
ENDBRANCH   5   6
ENDBRANCH   4   5
ENDBRANCH   2   3
TORSDOF 12
ENDMDL
MODEL      113
REMARK 921   NORMALIZED FREE ENERGY PREDICTED BY IDOCK:   -4.27 KCAL/MOL
REMARK 922        TOTAL FREE ENERGY PREDICTED BY IDOCK:   -9.10 KCAL/MOL
REMARK 923 INTER-LIGAND FREE ENERGY PREDICTED BY IDOCK:   -7.45 KCAL/MOL
REMARK 924 INTRA-LIGAND FREE ENERGY PREDICTED BY IDOCK:   -1.66 KCAL/MOL
REMARK 927      BINDING AFFINITY PREDICTED BY RF-SCORE:    0.00 PKD
ROOT
HETATM    1  C   UNL     1     -11.661  11.845  63.747  1.00  0.00    -0.554 C  
HETATM    2  C   UNL     1     -10.772  11.966  64.974  1.00  0.00    -0.341 C  
ENDROOT
BRANCH   2   3
HETATM    3  C   UNL     1     -10.295  13.376  65.179  1.00  0.00    -0.349 C  
HETATM    4  C   UNL     1     -10.876  14.292  65.971  1.00  0.00    -0.303 C  
BRANCH   4   5
HETATM    5  C   UNL     1     -12.134  14.059  66.759  1.00  0.00    -0.480 C  
BRANCH   5   6
HETATM    6  C   UNL     1     -11.912  14.170  68.240  1.00  0.00    -0.367 C  
HETATM    7  C   UNL     1     -11.780  13.131  69.083  1.00  0.00    -0.376 C  
BRANCH   7   8
HETATM    8  C   UNL     1     -11.879  11.693  68.660  1.00  0.00    -0.370 C  
BRANCH   8   9
HETATM    9  C   UNL     1     -11.105  10.777  69.561  1.00  0.00    -0.334 C  
HETATM   10  C   UNL     1     -11.596  10.189  70.666  1.00  0.00    -0.429 C  
BRANCH  10  11
HETATM   11  C   UNL     1     -13.027  10.321  71.105  1.00  0.00    -0.503 C  
BRANCH  11  12
HETATM   12  C   UNL     1     -13.519   9.103  71.879  1.00  0.00    -0.492 C  
BRANCH  12  13
HETATM   13  C   UNL     1     -12.335   8.246  72.329  1.00  0.00    -0.410 C  
BRANCH  13  14
HETATM   14  C   UNL     1     -12.495   6.806  71.850  1.00  0.00    -0.355 C  
BRANCH  14  15
HETATM   15  C   UNL     1     -11.169   6.047  71.907  1.00  0.00    -0.338 C  
BRANCH  15  16
HETATM   16  C   UNL     1     -10.324   6.355  70.673  1.00  0.00    -0.243 C  
BRANCH  16  17
HETATM   17  C   UNL     1     -11.129   6.210  69.386  1.00  0.00    -0.479 C  
HETATM   18  C   UNL     1     -10.478   6.943  68.235  1.00  0.00    -0.206 C  
HETATM   19  O   UNL     1      -9.435   7.575  68.295  1.00  0.00    -0.144 OA 
HETATM   20  O   UNL     1     -11.187   6.829  67.088  1.00  0.00    -0.379 OA 
ENDBRANCH  16  17
ENDBRANCH  15  16
ENDBRANCH  14  15
ENDBRANCH  13  14
ENDBRANCH  12  13
ENDBRANCH  11  12
ENDBRANCH  10  11
ENDBRANCH   8   9
ENDBRANCH   7   8
ENDBRANCH   5   6
ENDBRANCH   4   5
ENDBRANCH   2   3
TORSDOF 12
ENDMDL
MODEL      114
REMARK 921   NORMALIZED FREE ENERGY PREDICTED BY IDOCK:   -4.26 KCAL/MOL
REMARK 922        TOTAL FREE ENERGY PREDICTED BY IDOCK:   -9.10 KCAL/MOL
REMARK 923 INTER-LIGAND FREE ENERGY PREDICTED BY IDOCK:   -7.33 KCAL/MOL
REMARK 924 INTRA-LIGAND FREE ENERGY PREDICTED BY IDOCK:   -1.76 KCAL/MOL
REMARK 927      BINDING AFFINITY PREDICTED BY RF-SCORE:    0.00 PKD
ROOT
HETATM    1  C   UNL     1     -11.736   5.784  72.494  1.00  0.00    -0.280 C  
HETATM    2  C   UNL     1     -12.446   6.650  71.465  1.00  0.00    -0.326 C  
ENDROOT
BRANCH   2   3
HETATM    3  C   UNL     1     -11.659   6.758  70.190  1.00  0.00    -0.397 C  
HETATM    4  C   UNL     1     -10.799   7.744  69.882  1.00  0.00    -0.228 C  
BRANCH   4   5
HETATM    5  C   UNL     1     -10.513   8.928  70.761  1.00  0.00    -0.283 C  
BRANCH   5   6
HETATM    6  C   UNL     1     -10.453  10.215  69.990  1.00  0.00    -0.325 C  
HETATM    7  C   UNL     1     -11.482  11.064  69.819  1.00  0.00    -0.387 C  
BRANCH   7   8
HETATM    8  C   UNL     1     -12.865  10.817  70.348  1.00  0.00    -0.285 C  
BRANCH   8   9
HETATM    9  C   UNL     1     -13.019  11.259  71.774  1.00  0.00    -0.519 C  
HETATM   10  C   UNL     1     -13.255  12.524  72.166  1.00  0.00    -0.508 C  
BRANCH  10  11
HETATM   11  C   UNL     1     -13.468  13.660  71.206  1.00  0.00    -0.196 C  
BRANCH  11  12
HETATM   12  C   UNL     1     -12.872  14.972  71.705  1.00  0.00    -0.415 C  
BRANCH  12  13
HETATM   13  C   UNL     1     -12.004  15.608  70.619  1.00  0.00    -0.438 C  
BRANCH  13  14
HETATM   14  C   UNL     1     -11.915  14.701  69.395  1.00  0.00    -0.351 C  
BRANCH  14  15
HETATM   15  C   UNL     1     -10.467  14.502  68.950  1.00  0.00    -0.246 C  
BRANCH  15  16
HETATM   16  C   UNL     1     -10.398  14.275  67.441  1.00  0.00    -0.259 C  
BRANCH  16  17
HETATM   17  C   UNL     1     -11.787  14.114  66.831  1.00  0.00    -0.458 C  
HETATM   18  C   UNL     1     -11.755  14.261  65.326  1.00  0.00    -0.357 C  
HETATM   19  O   UNL     1     -10.758  14.476  64.655  1.00  0.00    -0.399 OA 
HETATM   20  O   UNL     1     -12.983  14.128  64.772  1.00  0.00    -0.674 OA 
ENDBRANCH  16  17
ENDBRANCH  15  16
ENDBRANCH  14  15
ENDBRANCH  13  14
ENDBRANCH  12  13
ENDBRANCH  11  12
ENDBRANCH  10  11
ENDBRANCH   8   9
ENDBRANCH   7   8
ENDBRANCH   5   6
ENDBRANCH   4   5
ENDBRANCH   2   3
TORSDOF 12
ENDMDL
MODEL      115
REMARK 921   NORMALIZED FREE ENERGY PREDICTED BY IDOCK:   -4.26 KCAL/MOL
REMARK 922        TOTAL FREE ENERGY PREDICTED BY IDOCK:   -9.09 KCAL/MOL
REMARK 923 INTER-LIGAND FREE ENERGY PREDICTED BY IDOCK:   -7.19 KCAL/MOL
REMARK 924 INTRA-LIGAND FREE ENERGY PREDICTED BY IDOCK:   -1.90 KCAL/MOL
REMARK 927      BINDING AFFINITY PREDICTED BY RF-SCORE:    0.00 PKD
ROOT
HETATM    1  C   UNL     1     -11.503  15.774  70.933  1.00  0.00    -0.438 C  
HETATM    2  C   UNL     1     -11.800  14.295  70.744  1.00  0.00    -0.336 C  
ENDROOT
BRANCH   2   3
HETATM    3  C   UNL     1     -12.900  13.827  71.654  1.00  0.00    -0.438 C  
HETATM    4  C   UNL     1     -13.200  12.546  71.925  1.00  0.00    -0.495 C  
BRANCH   4   5
HETATM    5  C   UNL     1     -12.496  11.363  71.323  1.00  0.00    -0.423 C  
BRANCH   5   6
HETATM    6  C   UNL     1     -13.055  10.055  71.806  1.00  0.00    -0.562 C  
HETATM    7  C   UNL     1     -12.327   8.962  72.096  1.00  0.00    -0.449 C  
BRANCH   7   8
HETATM    8  C   UNL     1     -10.837   8.883  71.932  1.00  0.00    -0.433 C  
BRANCH   8   9
HETATM    9  C   UNL     1     -10.436   8.107  70.712  1.00  0.00    -0.223 C  
HETATM   10  C   UNL     1      -9.874   8.640  69.612  1.00  0.00    -0.186 C  
BRANCH  10  11
HETATM   11  C   UNL     1      -9.507  10.091  69.493  1.00  0.00    -0.245 C  
BRANCH  11  12
HETATM   12  C   UNL     1      -9.874  10.681  68.135  1.00  0.00    -0.170 C  
BRANCH  12  13
HETATM   13  C   UNL     1     -11.368  11.003  68.084  1.00  0.00    -0.374 C  
BRANCH  13  14
HETATM   14  C   UNL     1     -11.605  12.378  67.466  1.00  0.00    -0.431 C  
BRANCH  14  15
HETATM   15  C   UNL     1     -10.353  13.250  67.543  1.00  0.00    -0.229 C  
BRANCH  15  16
HETATM   16  C   UNL     1     -10.662  14.670  67.071  1.00  0.00    -0.290 C  
BRANCH  16  17
HETATM   17  C   UNL     1      -9.442  15.333  66.440  1.00  0.00    -0.326 C  
HETATM   18  C   UNL     1      -9.579  16.839  66.411  1.00  0.00    -0.281 C  
HETATM   19  O   UNL     1     -10.531  17.474  66.838  1.00  0.00    -0.328 OA 
HETATM   20  O   UNL     1      -8.507  17.441  65.845  1.00  0.00    -0.530 OA 
ENDBRANCH  16  17
ENDBRANCH  15  16
ENDBRANCH  14  15
ENDBRANCH  13  14
ENDBRANCH  12  13
ENDBRANCH  11  12
ENDBRANCH  10  11
ENDBRANCH   8   9
ENDBRANCH   7   8
ENDBRANCH   5   6
ENDBRANCH   4   5
ENDBRANCH   2   3
TORSDOF 12
ENDMDL
MODEL      116
REMARK 921   NORMALIZED FREE ENERGY PREDICTED BY IDOCK:   -4.25 KCAL/MOL
REMARK 922        TOTAL FREE ENERGY PREDICTED BY IDOCK:   -9.08 KCAL/MOL
REMARK 923 INTER-LIGAND FREE ENERGY PREDICTED BY IDOCK:   -7.15 KCAL/MOL
REMARK 924 INTRA-LIGAND FREE ENERGY PREDICTED BY IDOCK:   -1.94 KCAL/MOL
REMARK 927      BINDING AFFINITY PREDICTED BY RF-SCORE:    0.00 PKD
ROOT
HETATM    1  C   UNL     1      -9.452  16.672  67.409  1.00  0.00    -0.232 C  
HETATM    2  C   UNL     1     -10.446  15.619  66.945  1.00  0.00    -0.307 C  
ENDROOT
BRANCH   2   3
HETATM    3  C   UNL     1     -10.550  15.571  65.447  1.00  0.00    -0.428 C  
HETATM    4  C   UNL     1     -11.273  14.686  64.740  1.00  0.00    -0.395 C  
BRANCH   4   5
HETATM    5  C   UNL     1     -12.074  13.568  65.344  1.00  0.00    -0.447 C  
BRANCH   5   6
HETATM    6  C   UNL     1     -12.626  12.632  64.307  1.00  0.00    -0.453 C  
HETATM    7  C   UNL     1     -11.909  11.725  63.621  1.00  0.00    -0.498 C  
BRANCH   7   8
HETATM    8  C   UNL     1     -10.425  11.548  63.770  1.00  0.00    -0.459 C  
BRANCH   8   9
HETATM    9  C   UNL     1     -10.073  10.488  64.771  1.00  0.00    -0.406 C  
HETATM   10  C   UNL     1      -9.435  10.709  65.935  1.00  0.00    -0.239 C  
BRANCH  10  11
HETATM   11  C   UNL     1      -9.052  12.079  66.419  1.00  0.00    -0.193 C  
BRANCH  11  12
HETATM   12  C   UNL     1      -9.597  12.385  67.810  1.00  0.00    -0.202 C  
BRANCH  12  13
HETATM   13  C   UNL     1     -10.799  11.491  68.117  1.00  0.00    -0.259 C  
BRANCH  13  14
HETATM   14  C   UNL     1     -11.749  12.176  69.094  1.00  0.00    -0.384 C  
BRANCH  14  15
HETATM   15  C   UNL     1     -12.062  11.280  70.292  1.00  0.00    -0.459 C  
BRANCH  15  16
HETATM   16  C   UNL     1     -11.080  10.112  70.356  1.00  0.00    -0.393 C  
BRANCH  16  17
HETATM   17  C   UNL     1     -11.338   9.223  71.568  1.00  0.00    -0.455 C  
HETATM   18  C   UNL     1     -10.049   8.703  72.163  1.00  0.00    -0.318 C  
HETATM   19  O   UNL     1      -8.926   8.952  71.751  1.00  0.00    -0.297 OA 
HETATM   20  O   UNL     1     -10.263   7.905  73.235  1.00  0.00    -0.324 OA 
ENDBRANCH  16  17
ENDBRANCH  15  16
ENDBRANCH  14  15
ENDBRANCH  13  14
ENDBRANCH  12  13
ENDBRANCH  11  12
ENDBRANCH  10  11
ENDBRANCH   8   9
ENDBRANCH   7   8
ENDBRANCH   5   6
ENDBRANCH   4   5
ENDBRANCH   2   3
TORSDOF 12
ENDMDL
MODEL      117
REMARK 921   NORMALIZED FREE ENERGY PREDICTED BY IDOCK:   -4.25 KCAL/MOL
REMARK 922        TOTAL FREE ENERGY PREDICTED BY IDOCK:   -9.07 KCAL/MOL
REMARK 923 INTER-LIGAND FREE ENERGY PREDICTED BY IDOCK:   -7.43 KCAL/MOL
REMARK 924 INTRA-LIGAND FREE ENERGY PREDICTED BY IDOCK:   -1.64 KCAL/MOL
REMARK 927      BINDING AFFINITY PREDICTED BY RF-SCORE:    0.00 PKD
ROOT
HETATM    1  C   UNL     1     -12.942  15.290  71.028  1.00  0.00    -0.526 C  
HETATM    2  C   UNL     1     -12.060  15.209  69.793  1.00  0.00    -0.354 C  
ENDROOT
BRANCH   2   3
HETATM    3  C   UNL     1     -11.972  13.806  69.261  1.00  0.00    -0.399 C  
HETATM    4  C   UNL     1     -11.884  13.464  67.965  1.00  0.00    -0.392 C  
BRANCH   4   5
HETATM    5  C   UNL     1     -11.896  14.442  66.825  1.00  0.00    -0.431 C  
BRANCH   5   6
HETATM    6  C   UNL     1     -12.670  13.937  65.642  1.00  0.00    -0.534 C  
HETATM    7  C   UNL     1     -12.151  13.235  64.619  1.00  0.00    -0.458 C  
BRANCH   7   8
HETATM    8  C   UNL     1     -10.695  12.891  64.496  1.00  0.00    -0.392 C  
BRANCH   8   9
HETATM    9  C   UNL     1     -10.478  11.515  63.939  1.00  0.00    -0.439 C  
HETATM   10  C   UNL     1     -10.019  10.464  64.643  1.00  0.00    -0.408 C  
BRANCH  10  11
HETATM   11  C   UNL     1      -9.729  10.519  66.116  1.00  0.00    -0.259 C  
BRANCH  11  12
HETATM   12  C   UNL     1     -10.946  10.177  66.968  1.00  0.00    -0.162 C  
BRANCH  12  13
HETATM   13  C   UNL     1     -10.513   9.464  68.250  1.00  0.00    -0.260 C  
BRANCH  13  14
HETATM   14  C   UNL     1     -10.340  10.459  69.393  1.00  0.00    -0.259 C  
BRANCH  14  15
HETATM   15  C   UNL     1     -11.487  10.362  70.399  1.00  0.00    -0.420 C  
BRANCH  15  16
HETATM   16  C   UNL     1     -11.673   8.917  70.857  1.00  0.00    -0.312 C  
BRANCH  16  17
HETATM   17  C   UNL     1     -10.882   8.621  72.127  1.00  0.00    -0.424 C  
HETATM   18  C   UNL     1     -11.193   7.244  72.670  1.00  0.00    -0.313 C  
HETATM   19  O   UNL     1     -11.970   6.444  72.172  1.00  0.00    -0.325 OA 
HETATM   20  O   UNL     1     -10.504   6.971  73.802  1.00  0.00    -0.364 OA 
ENDBRANCH  16  17
ENDBRANCH  15  16
ENDBRANCH  14  15
ENDBRANCH  13  14
ENDBRANCH  12  13
ENDBRANCH  11  12
ENDBRANCH  10  11
ENDBRANCH   8   9
ENDBRANCH   7   8
ENDBRANCH   5   6
ENDBRANCH   4   5
ENDBRANCH   2   3
TORSDOF 12
ENDMDL
MODEL      118
REMARK 921   NORMALIZED FREE ENERGY PREDICTED BY IDOCK:   -4.24 KCAL/MOL
REMARK 922        TOTAL FREE ENERGY PREDICTED BY IDOCK:   -9.07 KCAL/MOL
REMARK 923 INTER-LIGAND FREE ENERGY PREDICTED BY IDOCK:   -7.65 KCAL/MOL
REMARK 924 INTRA-LIGAND FREE ENERGY PREDICTED BY IDOCK:   -1.42 KCAL/MOL
REMARK 927      BINDING AFFINITY PREDICTED BY RF-SCORE:    0.00 PKD
ROOT
HETATM    1  C   UNL     1      -9.308   9.105  68.838  1.00  0.00    -0.146 C  
HETATM    2  C   UNL     1     -10.531   8.296  68.434  1.00  0.00    -0.206 C  
ENDROOT
BRANCH   2   3
HETATM    3  C   UNL     1     -10.358   6.834  68.735  1.00  0.00    -0.211 C  
HETATM    4  C   UNL     1     -11.031   6.142  69.669  1.00  0.00    -0.459 C  
BRANCH   4   5
HETATM    5  C   UNL     1     -12.052   6.736  70.596  1.00  0.00    -0.371 C  
BRANCH   5   6
HETATM    6  C   UNL     1     -11.428   7.376  71.804  1.00  0.00    -0.297 C  
HETATM    7  C   UNL     1     -11.761   8.579  72.302  1.00  0.00    -0.443 C  
BRANCH   7   8
HETATM    8  C   UNL     1     -12.790   9.483  71.685  1.00  0.00    -0.483 C  
BRANCH   8   9
HETATM    9  C   UNL     1     -12.172  10.643  70.962  1.00  0.00    -0.498 C  
HETATM   10  C   UNL     1     -12.545  11.927  71.107  1.00  0.00    -0.390 C  
BRANCH  10  11
HETATM   11  C   UNL     1     -13.596  12.377  72.082  1.00  0.00    -0.405 C  
BRANCH  11  12
HETATM   12  C   UNL     1     -13.396  13.817  72.540  1.00  0.00    -0.656 C  
BRANCH  12  13
HETATM   13  C   UNL     1     -12.216  14.450  71.801  1.00  0.00    -0.357 C  
BRANCH  13  14
HETATM   14  C   UNL     1     -12.702  15.447  70.755  1.00  0.00    -0.516 C  
BRANCH  14  15
HETATM   15  C   UNL     1     -11.978  15.259  69.422  1.00  0.00    -0.342 C  
BRANCH  15  16
HETATM   16  C   UNL     1     -10.949  16.368  69.213  1.00  0.00    -0.322 C  
BRANCH  16  17
HETATM   17  C   UNL     1     -10.458  16.419  67.770  1.00  0.00    -0.300 C  
HETATM   18  C   UNL     1     -10.377  17.840  67.259  1.00  0.00    -0.363 C  
HETATM   19  O   UNL     1     -10.655  18.842  67.899  1.00  0.00    -0.390 OA 
HETATM   20  O   UNL     1      -9.951  17.899  65.975  1.00  0.00    -0.490 OA 
ENDBRANCH  16  17
ENDBRANCH  15  16
ENDBRANCH  14  15
ENDBRANCH  13  14
ENDBRANCH  12  13
ENDBRANCH  11  12
ENDBRANCH  10  11
ENDBRANCH   8   9
ENDBRANCH   7   8
ENDBRANCH   5   6
ENDBRANCH   4   5
ENDBRANCH   2   3
TORSDOF 12
ENDMDL
MODEL      119
REMARK 921   NORMALIZED FREE ENERGY PREDICTED BY IDOCK:   -4.24 KCAL/MOL
REMARK 922        TOTAL FREE ENERGY PREDICTED BY IDOCK:   -9.06 KCAL/MOL
REMARK 923 INTER-LIGAND FREE ENERGY PREDICTED BY IDOCK:   -7.85 KCAL/MOL
REMARK 924 INTRA-LIGAND FREE ENERGY PREDICTED BY IDOCK:   -1.22 KCAL/MOL
REMARK 927      BINDING AFFINITY PREDICTED BY RF-SCORE:    0.00 PKD
ROOT
HETATM    1  C   UNL     1     -13.244   9.259  72.304  1.00  0.00    -0.535 C  
HETATM    2  C   UNL     1     -12.132   8.613  71.493  1.00  0.00    -0.369 C  
ENDROOT
BRANCH   2   3
HETATM    3  C   UNL     1     -12.394   7.154  71.249  1.00  0.00    -0.418 C  
HETATM    4  C   UNL     1     -11.733   6.375  70.378  1.00  0.00    -0.389 C  
BRANCH   4   5
HETATM    5  C   UNL     1     -10.634   6.854  69.472  1.00  0.00    -0.261 C  
BRANCH   5   6
HETATM    6  C   UNL     1     -10.831   6.417  68.049  1.00  0.00    -0.396 C  
HETATM    7  C   UNL     1     -10.729   7.216  66.972  1.00  0.00    -0.420 C  
BRANCH   7   8
HETATM    8  C   UNL     1     -10.441   8.688  67.049  1.00  0.00    -0.354 C  
BRANCH   8   9
HETATM    9  C   UNL     1      -9.300   9.094  66.162  1.00  0.00    -0.288 C  
HETATM   10  C   UNL     1      -9.388   9.982  65.155  1.00  0.00    -0.302 C  
BRANCH  10  11
HETATM   11  C   UNL     1     -10.641  10.744  64.832  1.00  0.00    -0.258 C  
BRANCH  11  12
HETATM   12  C   UNL     1     -10.504  11.596  63.575  1.00  0.00    -0.498 C  
BRANCH  12  13
HETATM   13  C   UNL     1     -11.580  12.683  63.551  1.00  0.00    -0.584 C  
BRANCH  13  14
HETATM   14  C   UNL     1     -12.565  12.496  64.700  1.00  0.00    -0.507 C  
BRANCH  14  15
HETATM   15  C   UNL     1     -12.658  13.751  65.567  1.00  0.00    -0.551 C  
BRANCH  15  16
HETATM   16  C   UNL     1     -11.449  13.848  66.496  1.00  0.00    -0.361 C  
BRANCH  16  17
HETATM   17  C   UNL     1     -11.800  13.442  67.924  1.00  0.00    -0.392 C  
HETATM   18  C   UNL     1     -11.928  14.646  68.830  1.00  0.00    -0.274 C  
HETATM   19  O   UNL     1     -11.783  15.810  68.490  1.00  0.00    -0.383 OA 
HETATM   20  O   UNL     1     -12.231  14.299  70.103  1.00  0.00    -0.307 OA 
ENDBRANCH  16  17
ENDBRANCH  15  16
ENDBRANCH  14  15
ENDBRANCH  13  14
ENDBRANCH  12  13
ENDBRANCH  11  12
ENDBRANCH  10  11
ENDBRANCH   8   9
ENDBRANCH   7   8
ENDBRANCH   5   6
ENDBRANCH   4   5
ENDBRANCH   2   3
TORSDOF 12
ENDMDL
MODEL      120
REMARK 921   NORMALIZED FREE ENERGY PREDICTED BY IDOCK:   -4.24 KCAL/MOL
REMARK 922        TOTAL FREE ENERGY PREDICTED BY IDOCK:   -9.06 KCAL/MOL
REMARK 923 INTER-LIGAND FREE ENERGY PREDICTED BY IDOCK:   -6.40 KCAL/MOL
REMARK 924 INTRA-LIGAND FREE ENERGY PREDICTED BY IDOCK:   -2.66 KCAL/MOL
REMARK 927      BINDING AFFINITY PREDICTED BY RF-SCORE:    0.00 PKD
ROOT
HETATM    1  C   UNL     1      -7.449  13.453  68.339  1.00  0.00    -0.117 C  
HETATM    2  C   UNL     1      -8.636  12.560  68.013  1.00  0.00    -0.185 C  
ENDROOT
BRANCH   2   3
HETATM    3  C   UNL     1      -8.497  11.200  68.636  1.00  0.00    -0.153 C  
HETATM    4  C   UNL     1      -9.249  10.125  68.346  1.00  0.00    -0.133 C  
BRANCH   4   5
HETATM    5  C   UNL     1     -10.387  10.124  67.365  1.00  0.00    -0.289 C  
BRANCH   5   6
HETATM    6  C   UNL     1     -10.025   9.460  66.067  1.00  0.00    -0.352 C  
HETATM    7  C   UNL     1      -9.820  10.098  64.901  1.00  0.00    -0.390 C  
BRANCH   7   8
HETATM    8  C   UNL     1      -9.969  11.582  64.724  1.00  0.00    -0.304 C  
BRANCH   8   9
HETATM    9  C   UNL     1     -11.349  11.969  64.279  1.00  0.00    -0.433 C  
HETATM   10  C   UNL     1     -12.114  12.904  64.869  1.00  0.00    -0.479 C  
BRANCH  10  11
HETATM   11  C   UNL     1     -11.648  13.743  66.025  1.00  0.00    -0.361 C  
BRANCH  11  12
HETATM   12  C   UNL     1     -12.231  13.285  67.357  1.00  0.00    -0.236 C  
BRANCH  12  13
HETATM   13  C   UNL     1     -11.894  14.291  68.458  1.00  0.00    -0.382 C  
BRANCH  13  14
HETATM   14  C   UNL     1     -12.139  13.688  69.838  1.00  0.00    -0.406 C  
BRANCH  14  15
HETATM   15  C   UNL     1     -11.911  12.177  69.837  1.00  0.00    -0.380 C  
BRANCH  15  16
HETATM   16  C   UNL     1     -12.440  11.557  71.129  1.00  0.00    -0.442 C  
BRANCH  16  17
HETATM   17  C   UNL     1     -12.823  10.093  70.937  1.00  0.00    -0.442 C  
HETATM   18  C   UNL     1     -11.680   9.167  71.288  1.00  0.00    -0.326 C  
HETATM   19  O   UNL     1     -10.579   9.517  71.684  1.00  0.00    -0.291 OA 
HETATM   20  O   UNL     1     -12.003   7.865  71.114  1.00  0.00    -0.296 OA 
ENDBRANCH  16  17
ENDBRANCH  15  16
ENDBRANCH  14  15
ENDBRANCH  13  14
ENDBRANCH  12  13
ENDBRANCH  11  12
ENDBRANCH  10  11
ENDBRANCH   8   9
ENDBRANCH   7   8
ENDBRANCH   5   6
ENDBRANCH   4   5
ENDBRANCH   2   3
TORSDOF 12
ENDMDL
MODEL      121
REMARK 921   NORMALIZED FREE ENERGY PREDICTED BY IDOCK:   -4.23 KCAL/MOL
REMARK 922        TOTAL FREE ENERGY PREDICTED BY IDOCK:   -9.05 KCAL/MOL
REMARK 923 INTER-LIGAND FREE ENERGY PREDICTED BY IDOCK:   -6.97 KCAL/MOL
REMARK 924 INTRA-LIGAND FREE ENERGY PREDICTED BY IDOCK:   -2.08 KCAL/MOL
REMARK 927      BINDING AFFINITY PREDICTED BY RF-SCORE:    0.00 PKD
ROOT
HETATM    1  C   UNL     1     -13.303  15.039  72.663  1.00  0.00    -0.556 C  
HETATM    2  C   UNL     1     -13.377  15.409  71.190  1.00  0.00    -0.580 C  
ENDROOT
BRANCH   2   3
HETATM    3  C   UNL     1     -12.011  15.614  70.598  1.00  0.00    -0.438 C  
HETATM    4  C   UNL     1     -11.463  14.875  69.620  1.00  0.00    -0.325 C  
BRANCH   4   5
HETATM    5  C   UNL     1     -12.124  13.687  68.980  1.00  0.00    -0.348 C  
BRANCH   5   6
HETATM    6  C   UNL     1     -12.067  12.462  69.846  1.00  0.00    -0.317 C  
HETATM    7  C   UNL     1     -11.244  11.416  69.655  1.00  0.00    -0.301 C  
BRANCH   7   8
HETATM    8  C   UNL     1     -10.283  11.308  68.506  1.00  0.00    -0.214 C  
BRANCH   8   9
HETATM    9  C   UNL     1     -10.474  10.045  67.718  1.00  0.00    -0.282 C  
HETATM   10  C   UNL     1     -10.263   9.925  66.395  1.00  0.00    -0.292 C  
BRANCH  10  11
HETATM   11  C   UNL     1      -9.734  11.040  65.538  1.00  0.00    -0.274 C  
BRANCH  11  12
HETATM   12  C   UNL     1     -10.792  11.616  64.603  1.00  0.00    -0.373 C  
BRANCH  12  13
HETATM   13  C   UNL     1     -11.402  12.882  65.208  1.00  0.00    -0.333 C  
BRANCH  13  14
HETATM   14  C   UNL     1     -10.311  13.843  65.667  1.00  0.00    -0.337 C  
BRANCH  14  15
HETATM   15  C   UNL     1     -10.814  15.286  65.703  1.00  0.00    -0.371 C  
BRANCH  15  16
HETATM   16  C   UNL     1      -9.697  16.230  66.141  1.00  0.00    -0.357 C  
BRANCH  16  17
HETATM   17  C   UNL     1     -10.242  17.440  66.894  1.00  0.00    -0.322 C  
HETATM   18  C   UNL     1      -9.564  17.614  68.235  1.00  0.00    -0.306 C  
HETATM   19  O   UNL     1      -8.683  16.897  68.684  1.00  0.00    -0.251 OA 
HETATM   20  O   UNL     1     -10.044  18.679  68.918  1.00  0.00    -0.391 OA 
ENDBRANCH  16  17
ENDBRANCH  15  16
ENDBRANCH  14  15
ENDBRANCH  13  14
ENDBRANCH  12  13
ENDBRANCH  11  12
ENDBRANCH  10  11
ENDBRANCH   8   9
ENDBRANCH   7   8
ENDBRANCH   5   6
ENDBRANCH   4   5
ENDBRANCH   2   3
TORSDOF 12
ENDMDL
MODEL      122
REMARK 921   NORMALIZED FREE ENERGY PREDICTED BY IDOCK:   -4.22 KCAL/MOL
REMARK 922        TOTAL FREE ENERGY PREDICTED BY IDOCK:   -9.03 KCAL/MOL
REMARK 923 INTER-LIGAND FREE ENERGY PREDICTED BY IDOCK:   -6.92 KCAL/MOL
REMARK 924 INTRA-LIGAND FREE ENERGY PREDICTED BY IDOCK:   -2.11 KCAL/MOL
REMARK 927      BINDING AFFINITY PREDICTED BY RF-SCORE:    0.00 PKD
ROOT
HETATM    1  C   UNL     1     -12.861  11.364  71.335  1.00  0.00    -0.502 C  
HETATM    2  C   UNL     1     -12.435  10.768  70.003  1.00  0.00    -0.317 C  
ENDROOT
BRANCH   2   3
HETATM    3  C   UNL     1     -11.057  11.217  69.607  1.00  0.00    -0.297 C  
HETATM    4  C   UNL     1     -10.752  11.941  68.517  1.00  0.00    -0.254 C  
BRANCH   4   5
HETATM    5  C   UNL     1     -11.751  12.393  67.490  1.00  0.00    -0.425 C  
BRANCH   5   6
HETATM    6  C   UNL     1     -11.899  13.887  67.452  1.00  0.00    -0.437 C  
HETATM    7  C   UNL     1     -11.491  14.680  66.446  1.00  0.00    -0.348 C  
BRANCH   7   8
HETATM    8  C   UNL     1     -10.780  14.178  65.222  1.00  0.00    -0.374 C  
BRANCH   8   9
HETATM    9  C   UNL     1     -11.716  13.949  64.071  1.00  0.00    -0.319 C  
HETATM   10  C   UNL     1     -11.922  12.763  63.471  1.00  0.00    -0.633 C  
BRANCH  10  11
HETATM   11  C   UNL     1     -11.284  11.483  63.930  1.00  0.00    -0.439 C  
BRANCH  11  12
HETATM   12  C   UNL     1      -9.991  11.169  63.185  1.00  0.00    -0.393 C  
BRANCH  12  13
HETATM   13  C   UNL     1      -9.145  10.177  63.983  1.00  0.00    -0.289 C  
BRANCH  13  14
HETATM   14  C   UNL     1      -9.651  10.065  65.418  1.00  0.00    -0.342 C  
BRANCH  14  15
HETATM   15  C   UNL     1      -9.511   8.640  65.951  1.00  0.00    -0.243 C  
BRANCH  15  16
HETATM   16  C   UNL     1     -10.534   8.381  67.056  1.00  0.00    -0.375 C  
BRANCH  16  17
HETATM   17  C   UNL     1      -9.864   8.208  68.416  1.00  0.00    -0.186 C  
HETATM   18  C   UNL     1     -10.383   6.987  69.141  1.00  0.00    -0.201 C  
HETATM   19  O   UNL     1     -11.226   6.213  68.716  1.00  0.00    -0.367 OA 
HETATM   20  O   UNL     1      -9.803   6.826  70.354  1.00  0.00    -0.175 OA 
ENDBRANCH  16  17
ENDBRANCH  15  16
ENDBRANCH  14  15
ENDBRANCH  13  14
ENDBRANCH  12  13
ENDBRANCH  11  12
ENDBRANCH  10  11
ENDBRANCH   8   9
ENDBRANCH   7   8
ENDBRANCH   5   6
ENDBRANCH   4   5
ENDBRANCH   2   3
TORSDOF 12
ENDMDL
MODEL      123
REMARK 921   NORMALIZED FREE ENERGY PREDICTED BY IDOCK:   -4.22 KCAL/MOL
REMARK 922        TOTAL FREE ENERGY PREDICTED BY IDOCK:   -9.02 KCAL/MOL
REMARK 923 INTER-LIGAND FREE ENERGY PREDICTED BY IDOCK:   -6.66 KCAL/MOL
REMARK 924 INTRA-LIGAND FREE ENERGY PREDICTED BY IDOCK:   -2.35 KCAL/MOL
REMARK 927      BINDING AFFINITY PREDICTED BY RF-SCORE:    0.00 PKD
ROOT
HETATM    1  C   UNL     1     -12.642  11.956  63.383  1.00  0.00    -0.555 C  
HETATM    2  C   UNL     1     -12.051  12.537  64.657  1.00  0.00    -0.496 C  
ENDROOT
BRANCH   2   3
HETATM    3  C   UNL     1     -10.735  13.216  64.402  1.00  0.00    -0.426 C  
HETATM    4  C   UNL     1     -10.322  14.360  64.972  1.00  0.00    -0.449 C  
BRANCH   4   5
HETATM    5  C   UNL     1     -11.136  15.171  65.939  1.00  0.00    -0.319 C  
BRANCH   5   6
HETATM    6  C   UNL     1     -10.319  15.681  67.092  1.00  0.00    -0.285 C  
HETATM    7  C   UNL     1     -10.681  15.618  68.385  1.00  0.00    -0.271 C  
BRANCH   7   8
HETATM    8  C   UNL     1     -11.992  15.060  68.859  1.00  0.00    -0.287 C  
BRANCH   8   9
HETATM    9  C   UNL     1     -11.816  14.000  69.907  1.00  0.00    -0.393 C  
HETATM   10  C   UNL     1     -11.726  12.681  69.659  1.00  0.00    -0.373 C  
BRANCH  10  11
HETATM   11  C   UNL     1     -11.719  12.099  68.274  1.00  0.00    -0.401 C  
BRANCH  11  12
HETATM   12  C   UNL     1     -10.311  11.818  67.762  1.00  0.00    -0.211 C  
BRANCH  12  13
HETATM   13  C   UNL     1     -10.282  10.502  66.984  1.00  0.00    -0.275 C  
BRANCH  13  14
HETATM   14  C   UNL     1     -10.811   9.355  67.839  1.00  0.00    -0.215 C  
BRANCH  14  15
HETATM   15  C   UNL     1      -9.676   8.604  68.534  1.00  0.00    -0.174 C  
BRANCH  15  16
HETATM   16  C   UNL     1      -9.809   8.721  70.051  1.00  0.00    -0.187 C  
BRANCH  16  17
HETATM   17  C   UNL     1     -11.257   8.951  70.475  1.00  0.00    -0.287 C  
HETATM   18  C   UNL     1     -11.448   8.711  71.956  1.00  0.00    -0.367 C  
HETATM   19  O   UNL     1     -10.573   8.382  72.741  1.00  0.00    -0.305 OA 
HETATM   20  O   UNL     1     -12.730   8.903  72.344  1.00  0.00    -0.388 OA 
ENDBRANCH  16  17
ENDBRANCH  15  16
ENDBRANCH  14  15
ENDBRANCH  13  14
ENDBRANCH  12  13
ENDBRANCH  11  12
ENDBRANCH  10  11
ENDBRANCH   8   9
ENDBRANCH   7   8
ENDBRANCH   5   6
ENDBRANCH   4   5
ENDBRANCH   2   3
TORSDOF 12
ENDMDL
MODEL      124
REMARK 921   NORMALIZED FREE ENERGY PREDICTED BY IDOCK:   -4.21 KCAL/MOL
REMARK 922        TOTAL FREE ENERGY PREDICTED BY IDOCK:   -9.01 KCAL/MOL
REMARK 923 INTER-LIGAND FREE ENERGY PREDICTED BY IDOCK:   -6.41 KCAL/MOL
REMARK 924 INTRA-LIGAND FREE ENERGY PREDICTED BY IDOCK:   -2.60 KCAL/MOL
REMARK 927      BINDING AFFINITY PREDICTED BY RF-SCORE:    0.00 PKD
ROOT
HETATM    1  C   UNL     1     -12.504  12.372  63.352  1.00  0.00    -0.554 C  
HETATM    2  C   UNL     1     -12.685  12.790  64.803  1.00  0.00    -0.469 C  
ENDROOT
BRANCH   2   3
HETATM    3  C   UNL     1     -12.157  14.174  65.055  1.00  0.00    -0.428 C  
HETATM    4  C   UNL     1     -10.895  14.479  65.398  1.00  0.00    -0.362 C  
BRANCH   4   5
HETATM    5  C   UNL     1      -9.806  13.468  65.622  1.00  0.00    -0.187 C  
BRANCH   5   6
HETATM    6  C   UNL     1      -9.809  12.921  67.021  1.00  0.00    -0.233 C  
HETATM    7  C   UNL     1      -8.778  12.992  67.882  1.00  0.00    -0.189 C  
BRANCH   7   8
HETATM    8  C   UNL     1      -7.447  13.598  67.543  1.00  0.00    -0.181 C  
BRANCH   8   9
HETATM    9  C   UNL     1      -7.122  14.781  68.407  1.00  0.00    -0.114 C  
HETATM   10  C   UNL     1      -7.077  16.056  67.980  1.00  0.00    -0.143 C  
BRANCH  10  11
HETATM   11  C   UNL     1      -7.422  16.470  66.577  1.00  0.00    -0.270 C  
BRANCH  11  12
HETATM   12  C   UNL     1      -8.902  16.796  66.407  1.00  0.00    -0.331 C  
BRANCH  12  13
HETATM   13  C   UNL     1      -9.373  17.723  67.528  1.00  0.00    -0.245 C  
BRANCH  13  14
HETATM   14  C   UNL     1     -10.754  17.310  68.030  1.00  0.00    -0.367 C  
BRANCH  14  15
HETATM   15  C   UNL     1     -10.663  16.172  69.046  1.00  0.00    -0.287 C  
BRANCH  15  16
HETATM   16  C   UNL     1     -11.769  15.148  68.801  1.00  0.00    -0.366 C  
BRANCH  16  17
HETATM   17  C   UNL     1     -11.911  14.179  69.970  1.00  0.00    -0.404 C  
HETATM   18  C   UNL     1     -12.953  14.649  70.960  1.00  0.00    -0.356 C  
HETATM   19  O   UNL     1     -13.619  15.668  70.860  1.00  0.00    -0.568 OA 
HETATM   20  O   UNL     1     -13.084  13.802  72.008  1.00  0.00    -0.360 OA 
ENDBRANCH  16  17
ENDBRANCH  15  16
ENDBRANCH  14  15
ENDBRANCH  13  14
ENDBRANCH  12  13
ENDBRANCH  11  12
ENDBRANCH  10  11
ENDBRANCH   8   9
ENDBRANCH   7   8
ENDBRANCH   5   6
ENDBRANCH   4   5
ENDBRANCH   2   3
TORSDOF 12
ENDMDL
MODEL      125
REMARK 921   NORMALIZED FREE ENERGY PREDICTED BY IDOCK:   -4.21 KCAL/MOL
REMARK 922        TOTAL FREE ENERGY PREDICTED BY IDOCK:   -9.01 KCAL/MOL
REMARK 923 INTER-LIGAND FREE ENERGY PREDICTED BY IDOCK:   -7.36 KCAL/MOL
REMARK 924 INTRA-LIGAND FREE ENERGY PREDICTED BY IDOCK:   -1.65 KCAL/MOL
REMARK 927      BINDING AFFINITY PREDICTED BY RF-SCORE:    0.00 PKD
ROOT
HETATM    1  C   UNL     1      -9.192  10.756  62.806  1.00  0.00    -0.346 C  
HETATM    2  C   UNL     1     -10.091  11.241  63.932  1.00  0.00    -0.392 C  
ENDROOT
BRANCH   2   3
HETATM    3  C   UNL     1     -11.499  11.471  63.462  1.00  0.00    -0.334 C  
HETATM    4  C   UNL     1     -12.224  12.582  63.674  1.00  0.00    -0.642 C  
BRANCH   4   5
HETATM    5  C   UNL     1     -11.747  13.772  64.458  1.00  0.00    -0.432 C  
BRANCH   5   6
HETATM    6  C   UNL     1     -12.533  13.981  65.720  1.00  0.00    -0.523 C  
HETATM    7  C   UNL     1     -12.158  13.570  66.944  1.00  0.00    -0.417 C  
BRANCH   7   8
HETATM    8  C   UNL     1     -10.901  12.794  67.215  1.00  0.00    -0.277 C  
BRANCH   8   9
HETATM    9  C   UNL     1     -11.156  11.322  67.351  1.00  0.00    -0.358 C  
HETATM   10  C   UNL     1     -11.486  10.701  68.497  1.00  0.00    -0.333 C  
BRANCH  10  11
HETATM   11  C   UNL     1     -11.714  11.426  69.793  1.00  0.00    -0.418 C  
BRANCH  11  12
HETATM   12  C   UNL     1     -12.649  10.672  70.733  1.00  0.00    -0.479 C  
BRANCH  12  13
HETATM   13  C   UNL     1     -11.876   9.603  71.505  1.00  0.00    -0.483 C  
BRANCH  13  14
HETATM   14  C   UNL     1     -12.813   8.504  71.995  1.00  0.00    -0.414 C  
BRANCH  14  15
HETATM   15  C   UNL     1     -12.463   7.151  71.375  1.00  0.00    -0.427 C  
BRANCH  15  16
HETATM   16  C   UNL     1     -11.141   7.239  70.616  1.00  0.00    -0.287 C  
BRANCH  16  17
HETATM   17  C   UNL     1     -11.273   6.716  69.189  1.00  0.00    -0.305 C  
HETATM   18  C   UNL     1     -10.218   5.678  68.876  1.00  0.00    -0.211 C  
HETATM   19  O   UNL     1      -9.360   5.283  69.649  1.00  0.00    -0.116 OA 
HETATM   20  O   UNL     1     -10.318   5.211  67.609  1.00  0.00    -0.169 OA 
ENDBRANCH  16  17
ENDBRANCH  15  16
ENDBRANCH  14  15
ENDBRANCH  13  14
ENDBRANCH  12  13
ENDBRANCH  11  12
ENDBRANCH  10  11
ENDBRANCH   8   9
ENDBRANCH   7   8
ENDBRANCH   5   6
ENDBRANCH   4   5
ENDBRANCH   2   3
TORSDOF 12
ENDMDL
MODEL      126
REMARK 921   NORMALIZED FREE ENERGY PREDICTED BY IDOCK:   -4.21 KCAL/MOL
REMARK 922        TOTAL FREE ENERGY PREDICTED BY IDOCK:   -9.00 KCAL/MOL
REMARK 923 INTER-LIGAND FREE ENERGY PREDICTED BY IDOCK:   -6.77 KCAL/MOL
REMARK 924 INTRA-LIGAND FREE ENERGY PREDICTED BY IDOCK:   -2.23 KCAL/MOL
REMARK 927      BINDING AFFINITY PREDICTED BY RF-SCORE:    0.00 PKD
ROOT
HETATM    1  C   UNL     1     -13.138  11.395  71.725  1.00  0.00    -0.523 C  
HETATM    2  C   UNL     1     -12.603   9.981  71.567  1.00  0.00    -0.525 C  
ENDROOT
BRANCH   2   3
HETATM    3  C   UNL     1     -13.687   8.953  71.727  1.00  0.00    -0.471 C  
HETATM    4  C   UNL     1     -13.544   7.630  71.544  1.00  0.00    -0.422 C  
BRANCH   4   5
HETATM    5  C   UNL     1     -12.269   6.964  71.111  1.00  0.00    -0.428 C  
BRANCH   5   6
HETATM    6  C   UNL     1     -11.728   6.027  72.153  1.00  0.00    -0.335 C  
HETATM    7  C   UNL     1     -10.844   6.360  73.109  1.00  0.00    -0.282 C  
BRANCH   7   8
HETATM    8  C   UNL     1     -10.233   7.725  73.243  1.00  0.00    -0.367 C  
BRANCH   8   9
HETATM    9  C   UNL     1      -8.791   7.749  72.830  1.00  0.00    -0.227 C  
HETATM   10  C   UNL     1      -8.314   8.378  71.741  1.00  0.00    -0.212 C  
BRANCH  10  11
HETATM   11  C   UNL     1      -9.168   9.208  70.825  1.00  0.00    -0.321 C  
BRANCH  11  12
HETATM   12  C   UNL     1      -8.941   8.882  69.353  1.00  0.00    -0.145 C  
BRANCH  12  13
HETATM   13  C   UNL     1     -10.247   8.421  68.704  1.00  0.00    -0.220 C  
BRANCH  13  14
HETATM   14  C   UNL     1     -10.567   9.261  67.472  1.00  0.00    -0.329 C  
BRANCH  14  15
HETATM   15  C   UNL     1      -9.932  10.648  67.559  1.00  0.00    -0.201 C  
BRANCH  15  16
HETATM   16  C   UNL     1     -10.988  11.732  67.352  1.00  0.00    -0.314 C  
BRANCH  16  17
HETATM   17  C   UNL     1     -11.536  12.248  68.679  1.00  0.00    -0.372 C  
HETATM   18  C   UNL     1     -11.972  13.692  68.578  1.00  0.00    -0.361 C  
HETATM   19  O   UNL     1     -11.913  14.384  67.574  1.00  0.00    -0.384 OA 
HETATM   20  O   UNL     1     -12.454  14.166  69.751  1.00  0.00    -0.332 OA 
ENDBRANCH  16  17
ENDBRANCH  15  16
ENDBRANCH  14  15
ENDBRANCH  13  14
ENDBRANCH  12  13
ENDBRANCH  11  12
ENDBRANCH  10  11
ENDBRANCH   8   9
ENDBRANCH   7   8
ENDBRANCH   5   6
ENDBRANCH   4   5
ENDBRANCH   2   3
TORSDOF 12
ENDMDL
MODEL      127
REMARK 921   NORMALIZED FREE ENERGY PREDICTED BY IDOCK:   -4.20 KCAL/MOL
REMARK 922        TOTAL FREE ENERGY PREDICTED BY IDOCK:   -8.99 KCAL/MOL
REMARK 923 INTER-LIGAND FREE ENERGY PREDICTED BY IDOCK:   -7.86 KCAL/MOL
REMARK 924 INTRA-LIGAND FREE ENERGY PREDICTED BY IDOCK:   -1.13 KCAL/MOL
REMARK 927      BINDING AFFINITY PREDICTED BY RF-SCORE:    0.00 PKD
ROOT
HETATM    1  C   UNL     1      -9.206   8.279  67.098  1.00  0.00    -0.175 C  
HETATM    2  C   UNL     1      -9.169   9.339  68.187  1.00  0.00    -0.136 C  
ENDROOT
BRANCH   2   3
HETATM    3  C   UNL     1      -9.346   8.741  69.554  1.00  0.00    -0.157 C  
HETATM    4  C   UNL     1     -10.303   9.074  70.436  1.00  0.00    -0.253 C  
BRANCH   4   5
HETATM    5  C   UNL     1     -11.339  10.138  70.205  1.00  0.00    -0.387 C  
BRANCH   5   6
HETATM    6  C   UNL     1     -12.207  10.364  71.410  1.00  0.00    -0.461 C  
HETATM    7  C   UNL     1     -12.844  11.512  71.700  1.00  0.00    -0.475 C  
BRANCH   7   8
HETATM    8  C   UNL     1     -12.737  12.760  70.871  1.00  0.00    -0.277 C  
BRANCH   8   9
HETATM    9  C   UNL     1     -12.855  14.007  71.696  1.00  0.00    -0.433 C  
HETATM   10  C   UNL     1     -12.554  15.245  71.266  1.00  0.00    -0.449 C  
BRANCH  10  11
HETATM   11  C   UNL     1     -12.123  15.549  69.859  1.00  0.00    -0.378 C  
BRANCH  11  12
HETATM   12  C   UNL     1     -10.638  15.290  69.631  1.00  0.00    -0.285 C  
BRANCH  12  13
HETATM   13  C   UNL     1     -10.445  14.205  68.572  1.00  0.00    -0.252 C  
BRANCH  13  14
HETATM   14  C   UNL     1     -11.553  14.265  67.525  1.00  0.00    -0.390 C  
BRANCH  14  15
HETATM   15  C   UNL     1     -11.637  12.967  66.723  1.00  0.00    -0.416 C  
BRANCH  15  16
HETATM   16  C   UNL     1     -11.195  13.201  65.280  1.00  0.00    -0.315 C  
BRANCH  16  17
HETATM   17  C   UNL     1     -10.649  14.611  65.079  1.00  0.00    -0.461 C  
HETATM   18  C   UNL     1     -11.644  15.497  64.364  1.00  0.00    -0.258 C  
HETATM   19  O   UNL     1     -12.756  15.158  63.989  1.00  0.00    -0.746 OA 
HETATM   20  O   UNL     1     -11.170  16.749  64.171  1.00  0.00    -1.155 OA 
ENDBRANCH  16  17
ENDBRANCH  15  16
ENDBRANCH  14  15
ENDBRANCH  13  14
ENDBRANCH  12  13
ENDBRANCH  11  12
ENDBRANCH  10  11
ENDBRANCH   8   9
ENDBRANCH   7   8
ENDBRANCH   5   6
ENDBRANCH   4   5
ENDBRANCH   2   3
TORSDOF 12
ENDMDL
MODEL      128
REMARK 921   NORMALIZED FREE ENERGY PREDICTED BY IDOCK:   -4.20 KCAL/MOL
REMARK 922        TOTAL FREE ENERGY PREDICTED BY IDOCK:   -8.99 KCAL/MOL
REMARK 923 INTER-LIGAND FREE ENERGY PREDICTED BY IDOCK:   -6.82 KCAL/MOL
REMARK 924 INTRA-LIGAND FREE ENERGY PREDICTED BY IDOCK:   -2.17 KCAL/MOL
REMARK 927      BINDING AFFINITY PREDICTED BY RF-SCORE:    0.00 PKD
ROOT
HETATM    1  C   UNL     1     -10.258  10.239  69.040  1.00  0.00    -0.225 C  
HETATM    2  C   UNL     1     -10.921   9.785  67.749  1.00  0.00    -0.242 C  
ENDROOT
BRANCH   2   3
HETATM    3  C   UNL     1     -10.558   8.368  67.405  1.00  0.00    -0.313 C  
HETATM    4  C   UNL     1      -9.568   7.992  66.579  1.00  0.00    -0.295 C  
BRANCH   4   5
HETATM    5  C   UNL     1      -8.678   8.943  65.830  1.00  0.00    -0.205 C  
BRANCH   5   6
HETATM    6  C   UNL     1      -8.995   8.991  64.362  1.00  0.00    -0.034 C  
HETATM    7  C   UNL     1      -9.650   9.989  63.744  1.00  0.00    -0.191 C  
BRANCH   7   8
HETATM    8  C   UNL     1     -10.202  11.191  64.453  1.00  0.00    -0.390 C  
BRANCH   8   9
HETATM    9  C   UNL     1     -10.789  12.195  63.505  1.00  0.00    -0.518 C  
HETATM   10  C   UNL     1     -11.978  12.803  63.668  1.00  0.00    -0.616 C  
BRANCH  10  11
HETATM   11  C   UNL     1     -12.849  12.604  64.875  1.00  0.00    -0.312 C  
BRANCH  11  12
HETATM   12  C   UNL     1     -12.746  13.755  65.871  1.00  0.00    -0.452 C  
BRANCH  12  13
HETATM   13  C   UNL     1     -12.060  13.286  67.154  1.00  0.00    -0.352 C  
BRANCH  13  14
HETATM   14  C   UNL     1     -10.990  14.282  67.592  1.00  0.00    -0.286 C  
BRANCH  14  15
HETATM   15  C   UNL     1      -9.740  14.180  66.720  1.00  0.00    -0.283 C  
BRANCH  15  16
HETATM   16  C   UNL     1      -9.620  15.405  65.815  1.00  0.00    -0.368 C  
BRANCH  16  17
HETATM   17  C   UNL     1      -9.822  16.702  66.590  1.00  0.00    -0.285 C  
HETATM   18  C   UNL     1     -10.580  17.726  65.776  1.00  0.00    -0.175 C  
HETATM   19  O   UNL     1     -10.998  17.562  64.641  1.00  0.00    -0.892 OA 
HETATM   20  O   UNL     1     -10.760  18.887  66.449  1.00  0.00    -0.392 OA 
ENDBRANCH  16  17
ENDBRANCH  15  16
ENDBRANCH  14  15
ENDBRANCH  13  14
ENDBRANCH  12  13
ENDBRANCH  11  12
ENDBRANCH  10  11
ENDBRANCH   8   9
ENDBRANCH   7   8
ENDBRANCH   5   6
ENDBRANCH   4   5
ENDBRANCH   2   3
TORSDOF 12
ENDMDL
MODEL      129
REMARK 921   NORMALIZED FREE ENERGY PREDICTED BY IDOCK:   -4.20 KCAL/MOL
REMARK 922        TOTAL FREE ENERGY PREDICTED BY IDOCK:   -8.99 KCAL/MOL
REMARK 923 INTER-LIGAND FREE ENERGY PREDICTED BY IDOCK:   -7.28 KCAL/MOL
REMARK 924 INTRA-LIGAND FREE ENERGY PREDICTED BY IDOCK:   -1.71 KCAL/MOL
REMARK 927      BINDING AFFINITY PREDICTED BY RF-SCORE:    0.00 PKD
ROOT
HETATM    1  C   UNL     1     -11.861  13.884  68.333  1.00  0.00    -0.409 C  
HETATM    2  C   UNL     1     -11.577  14.325  66.905  1.00  0.00    -0.405 C  
ENDROOT
BRANCH   2   3
HETATM    3  C   UNL     1     -12.612  13.810  65.946  1.00  0.00    -0.494 C  
HETATM    4  C   UNL     1     -12.361  13.210  64.770  1.00  0.00    -0.477 C  
BRANCH   4   5
HETATM    5  C   UNL     1     -10.987  12.991  64.205  1.00  0.00    -0.427 C  
BRANCH   5   6
HETATM    6  C   UNL     1     -10.760  11.567  63.782  1.00  0.00    -0.474 C  
HETATM    7  C   UNL     1     -10.172  10.620  64.534  1.00  0.00    -0.399 C  
BRANCH   7   8
HETATM    8  C   UNL     1      -9.613  10.870  65.905  1.00  0.00    -0.257 C  
BRANCH   8   9
HETATM    9  C   UNL     1     -10.656  10.753  66.978  1.00  0.00    -0.312 C  
HETATM   10  C   UNL     1     -11.020   9.604  67.574  1.00  0.00    -0.166 C  
BRANCH  10  11
HETATM   11  C   UNL     1     -10.368   8.281  67.286  1.00  0.00    -0.372 C  
BRANCH  11  12
HETATM   12  C   UNL     1      -9.722   7.664  68.522  1.00  0.00    -0.162 C  
BRANCH  12  13
HETATM   13  C   UNL     1     -10.359   6.309  68.833  1.00  0.00    -0.246 C  
BRANCH  13  14
HETATM   14  C   UNL     1     -11.509   6.465  69.823  1.00  0.00    -0.468 C  
BRANCH  14  15
HETATM   15  C   UNL     1     -11.054   6.198  71.257  1.00  0.00    -0.351 C  
BRANCH  15  16
HETATM   16  C   UNL     1     -10.716   7.510  71.962  1.00  0.00    -0.264 C  
BRANCH  16  17
HETATM   17  C   UNL     1     -11.969   8.324  72.272  1.00  0.00    -0.448 C  
HETATM   18  C   UNL     1     -11.924   9.688  71.621  1.00  0.00    -0.394 C  
HETATM   19  O   UNL     1     -11.016  10.111  70.922  1.00  0.00    -0.318 OA 
HETATM   20  O   UNL     1     -13.026  10.424  71.895  1.00  0.00    -0.438 OA 
ENDBRANCH  16  17
ENDBRANCH  15  16
ENDBRANCH  14  15
ENDBRANCH  13  14
ENDBRANCH  12  13
ENDBRANCH  11  12
ENDBRANCH  10  11
ENDBRANCH   8   9
ENDBRANCH   7   8
ENDBRANCH   5   6
ENDBRANCH   4   5
ENDBRANCH   2   3
TORSDOF 12
ENDMDL
MODEL      130
REMARK 921   NORMALIZED FREE ENERGY PREDICTED BY IDOCK:   -4.19 KCAL/MOL
REMARK 922        TOTAL FREE ENERGY PREDICTED BY IDOCK:   -8.96 KCAL/MOL
REMARK 923 INTER-LIGAND FREE ENERGY PREDICTED BY IDOCK:   -7.11 KCAL/MOL
REMARK 924 INTRA-LIGAND FREE ENERGY PREDICTED BY IDOCK:   -1.86 KCAL/MOL
REMARK 927      BINDING AFFINITY PREDICTED BY RF-SCORE:    0.00 PKD
ROOT
HETATM    1  C   UNL     1     -13.039  11.002  71.683  1.00  0.00    -0.543 C  
HETATM    2  C   UNL     1     -12.204   9.815  71.227  1.00  0.00    -0.465 C  
ENDROOT
BRANCH   2   3
HETATM    3  C   UNL     1     -12.245   8.690  72.221  1.00  0.00    -0.447 C  
HETATM    4  C   UNL     1     -11.191   7.957  72.618  1.00  0.00    -0.459 C  
BRANCH   4   5
HETATM    5  C   UNL     1      -9.793   8.126  72.095  1.00  0.00    -0.313 C  
BRANCH   5   6
HETATM    6  C   UNL     1      -9.390   7.021  71.162  1.00  0.00    -0.158 C  
HETATM    7  C   UNL     1      -9.016   7.187  69.881  1.00  0.00    -0.142 C  
BRANCH   7   8
HETATM    8  C   UNL     1      -8.989   8.517  69.184  1.00  0.00    -0.146 C  
BRANCH   8   9
HETATM    9  C   UNL     1     -10.221   8.756  68.362  1.00  0.00    -0.228 C  
HETATM   10  C   UNL     1     -10.559   9.933  67.806  1.00  0.00    -0.313 C  
BRANCH  10  11
HETATM   11  C   UNL     1      -9.695  11.160  67.881  1.00  0.00    -0.184 C  
BRANCH  11  12
HETATM   12  C   UNL     1     -10.331  12.279  68.698  1.00  0.00    -0.204 C  
BRANCH  12  13
HETATM   13  C   UNL     1      -9.671  13.618  68.369  1.00  0.00    -0.217 C  
BRANCH  13  14
HETATM   14  C   UNL     1     -10.721  14.705  68.161  1.00  0.00    -0.242 C  
BRANCH  14  15
HETATM   15  C   UNL     1     -12.065  14.111  67.740  1.00  0.00    -0.321 C  
BRANCH  15  16
HETATM   16  C   UNL     1     -12.241  14.209  66.226  1.00  0.00    -0.474 C  
BRANCH  16  17
HETATM   17  C   UNL     1     -12.204  12.835  65.564  1.00  0.00    -0.519 C  
HETATM   18  C   UNL     1     -12.386  12.934  64.065  1.00  0.00    -0.380 C  
HETATM   19  O   UNL     1     -12.538  13.969  63.435  1.00  0.00    -0.845 OA 
HETATM   20  O   UNL     1     -12.364  11.721  63.465  1.00  0.00    -0.509 OA 
ENDBRANCH  16  17
ENDBRANCH  15  16
ENDBRANCH  14  15
ENDBRANCH  13  14
ENDBRANCH  12  13
ENDBRANCH  11  12
ENDBRANCH  10  11
ENDBRANCH   8   9
ENDBRANCH   7   8
ENDBRANCH   5   6
ENDBRANCH   4   5
ENDBRANCH   2   3
TORSDOF 12
ENDMDL
MODEL      131
REMARK 921   NORMALIZED FREE ENERGY PREDICTED BY IDOCK:   -4.18 KCAL/MOL
REMARK 922        TOTAL FREE ENERGY PREDICTED BY IDOCK:   -8.96 KCAL/MOL
REMARK 923 INTER-LIGAND FREE ENERGY PREDICTED BY IDOCK:   -7.60 KCAL/MOL
REMARK 924 INTRA-LIGAND FREE ENERGY PREDICTED BY IDOCK:   -1.36 KCAL/MOL
REMARK 927      BINDING AFFINITY PREDICTED BY RF-SCORE:    0.00 PKD
ROOT
HETATM    1  C   UNL     1     -11.220   4.363  73.350  1.00  0.00    -0.386 C  
HETATM    2  C   UNL     1     -11.067   5.848  73.060  1.00  0.00    -0.289 C  
ENDROOT
BRANCH   2   3
HETATM    3  C   UNL     1     -11.297   6.160  71.609  1.00  0.00    -0.341 C  
HETATM    4  C   UNL     1     -11.401   7.390  71.079  1.00  0.00    -0.298 C  
BRANCH   4   5
HETATM    5  C   UNL     1     -11.340   8.664  71.872  1.00  0.00    -0.417 C  
BRANCH   5   6
HETATM    6  C   UNL     1     -12.668   9.362  71.942  1.00  0.00    -0.484 C  
HETATM    7  C   UNL     1     -12.942  10.561  71.399  1.00  0.00    -0.542 C  
BRANCH   7   8
HETATM    8  C   UNL     1     -11.931  11.401  70.673  1.00  0.00    -0.413 C  
BRANCH   8   9
HETATM    9  C   UNL     1     -12.033  11.258  69.183  1.00  0.00    -0.405 C  
HETATM   10  C   UNL     1     -11.616  12.175  68.292  1.00  0.00    -0.382 C  
BRANCH  10  11
HETATM   11  C   UNL     1     -10.919  13.447  68.681  1.00  0.00    -0.288 C  
BRANCH  11  12
HETATM   12  C   UNL     1     -11.858  14.648  68.707  1.00  0.00    -0.348 C  
BRANCH  12  13
HETATM   13  C   UNL     1     -11.077  15.926  69.014  1.00  0.00    -0.294 C  
BRANCH  13  14
HETATM   14  C   UNL     1     -10.700  16.655  67.728  1.00  0.00    -0.327 C  
BRANCH  14  15
HETATM   15  C   UNL     1      -9.299  16.269  67.255  1.00  0.00    -0.231 C  
BRANCH  15  16
HETATM   16  C   UNL     1      -9.361  15.628  65.870  1.00  0.00    -0.357 C  
BRANCH  16  17
HETATM   17  C   UNL     1     -10.769  15.680  65.286  1.00  0.00    -0.444 C  
HETATM   18  C   UNL     1     -11.244  14.310  64.855  1.00  0.00    -0.379 C  
HETATM   19  O   UNL     1     -10.607  13.273  64.955  1.00  0.00    -0.313 OA 
HETATM   20  O   UNL     1     -12.490  14.343  64.326  1.00  0.00    -0.659 OA 
ENDBRANCH  16  17
ENDBRANCH  15  16
ENDBRANCH  14  15
ENDBRANCH  13  14
ENDBRANCH  12  13
ENDBRANCH  11  12
ENDBRANCH  10  11
ENDBRANCH   8   9
ENDBRANCH   7   8
ENDBRANCH   5   6
ENDBRANCH   4   5
ENDBRANCH   2   3
TORSDOF 12
ENDMDL
MODEL      132
REMARK 921   NORMALIZED FREE ENERGY PREDICTED BY IDOCK:   -4.18 KCAL/MOL
REMARK 922        TOTAL FREE ENERGY PREDICTED BY IDOCK:   -8.96 KCAL/MOL
REMARK 923 INTER-LIGAND FREE ENERGY PREDICTED BY IDOCK:   -7.48 KCAL/MOL
REMARK 924 INTRA-LIGAND FREE ENERGY PREDICTED BY IDOCK:   -1.47 KCAL/MOL
REMARK 927      BINDING AFFINITY PREDICTED BY RF-SCORE:    0.00 PKD
ROOT
HETATM    1  C   UNL     1     -12.211  13.948  64.403  1.00  0.00    -0.449 C  
HETATM    2  C   UNL     1     -12.414  12.476  64.082  1.00  0.00    -0.518 C  
ENDROOT
BRANCH   2   3
HETATM    3  C   UNL     1     -11.206  11.878  63.419  1.00  0.00    -0.463 C  
HETATM    4  C   UNL     1     -10.293  11.094  64.016  1.00  0.00    -0.437 C  
BRANCH   4   5
HETATM    5  C   UNL     1     -10.318  10.715  65.469  1.00  0.00    -0.297 C  
BRANCH   5   6
HETATM    6  C   UNL     1      -9.528  11.665  66.324  1.00  0.00    -0.233 C  
HETATM    7  C   UNL     1     -10.040  12.446  67.291  1.00  0.00    -0.214 C  
BRANCH   7   8
HETATM    8  C   UNL     1     -11.502  12.508  67.627  1.00  0.00    -0.392 C  
BRANCH   8   9
HETATM    9  C   UNL     1     -11.795  13.492  68.722  1.00  0.00    -0.390 C  
HETATM   10  C   UNL     1     -12.115  13.163  69.986  1.00  0.00    -0.375 C  
BRANCH  10  11
HETATM   11  C   UNL     1     -12.150  11.747  70.487  1.00  0.00    -0.439 C  
BRANCH  11  12
HETATM   12  C   UNL     1     -13.085  11.568  71.679  1.00  0.00    -0.478 C  
BRANCH  12  13
HETATM   13  C   UNL     1     -13.268  10.082  71.992  1.00  0.00    -0.545 C  
BRANCH  13  14
HETATM   14  C   UNL     1     -11.973   9.313  71.745  1.00  0.00    -0.455 C  
BRANCH  14  15
HETATM   15  C   UNL     1     -12.133   7.829  72.072  1.00  0.00    -0.351 C  
BRANCH  15  16
HETATM   16  C   UNL     1     -11.007   7.018  71.435  1.00  0.00    -0.266 C  
BRANCH  16  17
HETATM   17  C   UNL     1     -11.449   6.365  70.129  1.00  0.00    -0.484 C  
HETATM   18  C   UNL     1     -10.559   6.769  68.975  1.00  0.00    -0.230 C  
HETATM   19  O   UNL     1      -9.595   7.515  69.048  1.00  0.00    -0.152 OA 
HETATM   20  O   UNL     1     -10.945   6.203  67.807  1.00  0.00    -0.313 OA 
ENDBRANCH  16  17
ENDBRANCH  15  16
ENDBRANCH  14  15
ENDBRANCH  13  14
ENDBRANCH  12  13
ENDBRANCH  11  12
ENDBRANCH  10  11
ENDBRANCH   8   9
ENDBRANCH   7   8
ENDBRANCH   5   6
ENDBRANCH   4   5
ENDBRANCH   2   3
TORSDOF 12
ENDMDL
MODEL      133
REMARK 921   NORMALIZED FREE ENERGY PREDICTED BY IDOCK:   -4.17 KCAL/MOL
REMARK 922        TOTAL FREE ENERGY PREDICTED BY IDOCK:   -8.94 KCAL/MOL
REMARK 923 INTER-LIGAND FREE ENERGY PREDICTED BY IDOCK:   -6.94 KCAL/MOL
REMARK 924 INTRA-LIGAND FREE ENERGY PREDICTED BY IDOCK:   -2.00 KCAL/MOL
REMARK 927      BINDING AFFINITY PREDICTED BY RF-SCORE:    0.00 PKD
ROOT
HETATM    1  C   UNL     1      -8.731  10.059  64.265  1.00  0.00    -0.222 C  
HETATM    2  C   UNL     1      -8.814  10.247  65.771  1.00  0.00    -0.179 C  
ENDROOT
BRANCH   2   3
HETATM    3  C   UNL     1      -9.663   9.190  66.419  1.00  0.00    -0.330 C  
HETATM    4  C   UNL     1     -10.503   9.384  67.449  1.00  0.00    -0.343 C  
BRANCH   4   5
HETATM    5  C   UNL     1     -10.702  10.698  68.148  1.00  0.00    -0.267 C  
BRANCH   5   6
HETATM    6  C   UNL     1     -11.682  10.603  69.282  1.00  0.00    -0.336 C  
HETATM    7  C   UNL     1     -12.022  11.616  70.099  1.00  0.00    -0.441 C  
BRANCH   7   8
HETATM    8  C   UNL     1     -11.427  12.992  70.016  1.00  0.00    -0.086 C  
BRANCH   8   9
HETATM    9  C   UNL     1     -12.468  14.070  70.089  1.00  0.00    -0.380 C  
HETATM   10  C   UNL     1     -12.207  15.384  70.212  1.00  0.00    -0.414 C  
BRANCH  10  11
HETATM   11  C   UNL     1     -10.816  15.953  70.222  1.00  0.00    -0.349 C  
BRANCH  11  12
HETATM   12  C   UNL     1     -10.475  16.693  68.934  1.00  0.00    -0.322 C  
BRANCH  12  13
HETATM   13  C   UNL     1     -10.630  15.763  67.730  1.00  0.00    -0.292 C  
BRANCH  13  14
HETATM   14  C   UNL     1      -9.419  14.845  67.595  1.00  0.00    -0.199 C  
BRANCH  14  15
HETATM   15  C   UNL     1      -9.733  13.628  66.725  1.00  0.00    -0.275 C  
BRANCH  15  16
HETATM   16  C   UNL     1     -10.730  13.999  65.629  1.00  0.00    -0.306 C  
BRANCH  16  17
HETATM   17  C   UNL     1     -11.512  12.783  65.142  1.00  0.00    -0.356 C  
HETATM   18  C   UNL     1     -12.447  13.139  64.008  1.00  0.00    -0.270 C  
HETATM   19  O   UNL     1     -12.578  14.250  63.518  1.00  0.00    -0.814 OA 
HETATM   20  O   UNL     1     -13.154  12.071  63.571  1.00  0.00    -0.764 OA 
ENDBRANCH  16  17
ENDBRANCH  15  16
ENDBRANCH  14  15
ENDBRANCH  13  14
ENDBRANCH  12  13
ENDBRANCH  11  12
ENDBRANCH  10  11
ENDBRANCH   8   9
ENDBRANCH   7   8
ENDBRANCH   5   6
ENDBRANCH   4   5
ENDBRANCH   2   3
TORSDOF 12
ENDMDL
MODEL      134
REMARK 921   NORMALIZED FREE ENERGY PREDICTED BY IDOCK:   -4.16 KCAL/MOL
REMARK 922        TOTAL FREE ENERGY PREDICTED BY IDOCK:   -8.93 KCAL/MOL
REMARK 923 INTER-LIGAND FREE ENERGY PREDICTED BY IDOCK:   -6.92 KCAL/MOL
REMARK 924 INTRA-LIGAND FREE ENERGY PREDICTED BY IDOCK:   -2.01 KCAL/MOL
REMARK 927      BINDING AFFINITY PREDICTED BY RF-SCORE:    0.00 PKD
ROOT
HETATM    1  C   UNL     1     -12.408  14.085  64.889  1.00  0.00    -0.447 C  
HETATM    2  C   UNL     1     -12.360  12.842  65.764  1.00  0.00    -0.437 C  
ENDROOT
BRANCH   2   3
HETATM    3  C   UNL     1     -10.968  12.557  66.251  1.00  0.00    -0.311 C  
HETATM    4  C   UNL     1     -10.490  12.847  67.472  1.00  0.00    -0.226 C  
BRANCH   4   5
HETATM    5  C   UNL     1     -11.274  13.546  68.547  1.00  0.00    -0.310 C  
BRANCH   5   6
HETATM    6  C   UNL     1     -11.378  15.026  68.311  1.00  0.00    -0.331 C  
HETATM    7  C   UNL     1     -10.460  15.936  68.684  1.00  0.00    -0.240 C  
BRANCH   7   8
HETATM    8  C   UNL     1      -9.206  15.597  69.437  1.00  0.00    -0.279 C  
BRANCH   8   9
HETATM    9  C   UNL     1      -8.020  15.442  68.530  1.00  0.00    -0.140 C  
HETATM   10  C   UNL     1      -7.088  16.389  68.314  1.00  0.00    -0.143 C  
BRANCH  10  11
HETATM   11  C   UNL     1      -7.080  17.715  69.019  1.00  0.00    -0.227 C  
BRANCH  11  12
HETATM   12  C   UNL     1      -6.799  18.880  68.076  1.00  0.00    -0.251 C  
BRANCH  12  13
HETATM   13  C   UNL     1      -7.871  19.959  68.231  1.00  0.00    -0.299 C  
BRANCH  13  14
HETATM   14  C   UNL     1      -9.095  19.408  68.956  1.00  0.00    -0.297 C  
BRANCH  14  15
HETATM   15  C   UNL     1     -10.378  19.668  68.167  1.00  0.00    -0.561 C  
BRANCH  15  16
HETATM   16  C   UNL     1     -10.049  20.069  66.731  1.00  0.00    -0.607 C  
BRANCH  16  17
HETATM   17  C   UNL     1     -10.902  19.307  65.722  1.00  0.00    -0.338 C  
HETATM   18  C   UNL     1     -10.364  17.914  65.477  1.00  0.00     0.083 C  
HETATM   19  O   UNL     1      -9.379  17.430  66.011  1.00  0.00    -0.476 OA 
HETATM   20  O   UNL     1     -11.107  17.229  64.577  1.00  0.00    -1.082 OA 
ENDBRANCH  16  17
ENDBRANCH  15  16
ENDBRANCH  14  15
ENDBRANCH  13  14
ENDBRANCH  12  13
ENDBRANCH  11  12
ENDBRANCH  10  11
ENDBRANCH   8   9
ENDBRANCH   7   8
ENDBRANCH   5   6
ENDBRANCH   4   5
ENDBRANCH   2   3
TORSDOF 12
ENDMDL
MODEL      135
REMARK 921   NORMALIZED FREE ENERGY PREDICTED BY IDOCK:   -4.16 KCAL/MOL
REMARK 922        TOTAL FREE ENERGY PREDICTED BY IDOCK:   -8.93 KCAL/MOL
REMARK 923 INTER-LIGAND FREE ENERGY PREDICTED BY IDOCK:   -7.39 KCAL/MOL
REMARK 924 INTRA-LIGAND FREE ENERGY PREDICTED BY IDOCK:   -1.54 KCAL/MOL
REMARK 927      BINDING AFFINITY PREDICTED BY RF-SCORE:    0.00 PKD
ROOT
HETATM    1  C   UNL     1     -11.645   7.675  71.278  1.00  0.00    -0.302 C  
HETATM    2  C   UNL     1     -11.340   9.096  71.725  1.00  0.00    -0.451 C  
ENDROOT
BRANCH   2   3
HETATM    3  C   UNL     1     -12.571   9.957  71.723  1.00  0.00    -0.506 C  
HETATM    4  C   UNL     1     -12.763  11.046  70.960  1.00  0.00    -0.485 C  
BRANCH   4   5
HETATM    5  C   UNL     1     -11.748  11.602  70.001  1.00  0.00    -0.402 C  
BRANCH   5   6
HETATM    6  C   UNL     1     -11.908  13.080  69.789  1.00  0.00    -0.381 C  
HETATM    7  C   UNL     1     -12.003  13.684  68.591  1.00  0.00    -0.395 C  
BRANCH   7   8
HETATM    8  C   UNL     1     -11.917  12.958  67.280  1.00  0.00    -0.371 C  
BRANCH   8   9
HETATM    9  C   UNL     1     -12.363  13.807  66.126  1.00  0.00    -0.496 C  
HETATM   10  C   UNL     1     -11.543  14.526  65.339  1.00  0.00    -0.355 C  
BRANCH  10  11
HETATM   11  C   UNL     1     -10.047  14.514  65.474  1.00  0.00    -0.394 C  
BRANCH  11  12
HETATM   12  C   UNL     1      -9.497  15.819  66.038  1.00  0.00    -0.392 C  
BRANCH  12  13
HETATM   13  C   UNL     1     -10.641  16.719  66.507  1.00  0.00    -0.198 C  
BRANCH  13  14
HETATM   14  C   UNL     1     -10.444  17.135  67.961  1.00  0.00    -0.369 C  
BRANCH  14  15
HETATM   15  C   UNL     1      -8.974  17.052  68.373  1.00  0.00    -0.247 C  
BRANCH  15  16
HETATM   16  C   UNL     1      -8.322  18.431  68.305  1.00  0.00    -0.321 C  
BRANCH  16  17
HETATM   17  C   UNL     1      -7.176  18.464  67.298  1.00  0.00    -0.213 C  
HETATM   18  C   UNL     1      -7.614  19.051  65.974  1.00  0.00    -0.248 C  
HETATM   19  O   UNL     1      -8.735  19.461  65.716  1.00  0.00    -0.403 OA 
HETATM   20  O   UNL     1      -6.609  19.079  65.068  1.00  0.00    -0.462 OA 
ENDBRANCH  16  17
ENDBRANCH  15  16
ENDBRANCH  14  15
ENDBRANCH  13  14
ENDBRANCH  12  13
ENDBRANCH  11  12
ENDBRANCH  10  11
ENDBRANCH   8   9
ENDBRANCH   7   8
ENDBRANCH   5   6
ENDBRANCH   4   5
ENDBRANCH   2   3
TORSDOF 12
ENDMDL
MODEL      136
REMARK 921   NORMALIZED FREE ENERGY PREDICTED BY IDOCK:   -4.16 KCAL/MOL
REMARK 922        TOTAL FREE ENERGY PREDICTED BY IDOCK:   -8.93 KCAL/MOL
REMARK 923 INTER-LIGAND FREE ENERGY PREDICTED BY IDOCK:   -6.78 KCAL/MOL
REMARK 924 INTRA-LIGAND FREE ENERGY PREDICTED BY IDOCK:   -2.15 KCAL/MOL
REMARK 927      BINDING AFFINITY PREDICTED BY RF-SCORE:    0.00 PKD
ROOT
HETATM    1  C   UNL     1      -7.177  14.065  68.069  1.00  0.00    -0.146 C  
HETATM    2  C   UNL     1      -8.149  13.196  67.288  1.00  0.00    -0.151 C  
ENDROOT
BRANCH   2   3
HETATM    3  C   UNL     1      -7.786  11.740  67.371  1.00  0.00    -0.155 C  
HETATM    4  C   UNL     1      -8.471  10.729  66.811  1.00  0.00    -0.134 C  
BRANCH   4   5
HETATM    5  C   UNL     1      -9.745  10.894  66.032  1.00  0.00    -0.268 C  
BRANCH   5   6
HETATM    6  C   UNL     1      -9.583  10.533  64.583  1.00  0.00    -0.349 C  
HETATM    7  C   UNL     1     -10.016  11.274  63.548  1.00  0.00    -0.417 C  
BRANCH   7   8
HETATM    8  C   UNL     1     -10.770  12.564  63.701  1.00  0.00    -0.469 C  
BRANCH   8   9
HETATM    9  C   UNL     1     -12.214  12.344  64.042  1.00  0.00    -0.579 C  
HETATM   10  C   UNL     1     -12.886  13.001  65.005  1.00  0.00    -0.365 C  
BRANCH  10  11
HETATM   11  C   UNL     1     -12.283  14.105  65.826  1.00  0.00    -0.458 C  
BRANCH  11  12
HETATM   12  C   UNL     1     -11.759  13.618  67.172  1.00  0.00    -0.418 C  
BRANCH  12  13
HETATM   13  C   UNL     1     -12.149  14.598  68.280  1.00  0.00    -0.214 C  
BRANCH  13  14
HETATM   14  C   UNL     1     -10.989  14.815  69.246  1.00  0.00    -0.275 C  
BRANCH  14  15
HETATM   15  C   UNL     1     -10.658  16.300  69.399  1.00  0.00    -0.301 C  
BRANCH  15  16
HETATM   16  C   UNL     1      -9.750  16.765  68.263  1.00  0.00    -0.252 C  
BRANCH  16  17
HETATM   17  C   UNL     1     -10.484  17.689  67.296  1.00  0.00    -0.338 C  
HETATM   18  C   UNL     1     -10.378  17.199  65.869  1.00  0.00    -0.284 C  
HETATM   19  O   UNL     1      -9.793  16.191  65.505  1.00  0.00    -0.458 OA 
HETATM   20  O   UNL     1     -11.018  18.015  64.999  1.00  0.00    -0.748 OA 
ENDBRANCH  16  17
ENDBRANCH  15  16
ENDBRANCH  14  15
ENDBRANCH  13  14
ENDBRANCH  12  13
ENDBRANCH  11  12
ENDBRANCH  10  11
ENDBRANCH   8   9
ENDBRANCH   7   8
ENDBRANCH   5   6
ENDBRANCH   4   5
ENDBRANCH   2   3
TORSDOF 12
ENDMDL
MODEL      137
REMARK 921   NORMALIZED FREE ENERGY PREDICTED BY IDOCK:   -4.15 KCAL/MOL
REMARK 922        TOTAL FREE ENERGY PREDICTED BY IDOCK:   -8.91 KCAL/MOL
REMARK 923 INTER-LIGAND FREE ENERGY PREDICTED BY IDOCK:   -6.90 KCAL/MOL
REMARK 924 INTRA-LIGAND FREE ENERGY PREDICTED BY IDOCK:   -2.02 KCAL/MOL
REMARK 927      BINDING AFFINITY PREDICTED BY RF-SCORE:    0.00 PKD
ROOT
HETATM    1  C   UNL     1     -13.201  14.075  71.980  1.00  0.00    -0.499 C  
HETATM    2  C   UNL     1     -12.595  13.487  70.716  1.00  0.00    -0.382 C  
ENDROOT
BRANCH   2   3
HETATM    3  C   UNL     1     -12.590  11.984  70.747  1.00  0.00    -0.312 C  
HETATM    4  C   UNL     1     -11.810  11.189  69.995  1.00  0.00    -0.441 C  
BRANCH   4   5
HETATM    5  C   UNL     1     -10.834  11.682  68.966  1.00  0.00    -0.247 C  
BRANCH   5   6
HETATM    6  C   UNL     1     -11.127  11.146  67.593  1.00  0.00    -0.348 C  
HETATM    7  C   UNL     1     -11.593  11.873  66.562  1.00  0.00    -0.328 C  
BRANCH   7   8
HETATM    8  C   UNL     1     -11.930  13.333  66.653  1.00  0.00    -0.446 C  
BRANCH   8   9
HETATM    9  C   UNL     1     -10.991  14.187  65.853  1.00  0.00    -0.297 C  
HETATM   10  C   UNL     1     -10.130  15.080  66.374  1.00  0.00    -0.289 C  
BRANCH  10  11
HETATM   11  C   UNL     1      -9.948  15.287  67.851  1.00  0.00    -0.228 C  
BRANCH  11  12
HETATM   12  C   UNL     1      -8.596  14.789  68.351  1.00  0.00    -0.166 C  
BRANCH  12  13
HETATM   13  C   UNL     1      -7.866  15.903  69.103  1.00  0.00    -0.227 C  
BRANCH  13  14
HETATM   14  C   UNL     1      -7.426  17.006  68.145  1.00  0.00    -0.195 C  
BRANCH  14  15
HETATM   15  C   UNL     1      -7.790  18.391  68.680  1.00  0.00    -0.320 C  
BRANCH  15  16
HETATM   16  C   UNL     1      -8.087  19.346  67.527  1.00  0.00    -0.315 C  
BRANCH  16  17
HETATM   17  C   UNL     1      -8.741  18.627  66.351  1.00  0.00    -0.286 C  
HETATM   18  C   UNL     1     -10.210  18.967  66.236  1.00  0.00    -0.446 C  
HETATM   19  O   UNL     1     -10.823  19.725  66.972  1.00  0.00    -0.468 OA 
HETATM   20  O   UNL     1     -10.805  18.329  65.202  1.00  0.00    -0.656 OA 
ENDBRANCH  16  17
ENDBRANCH  15  16
ENDBRANCH  14  15
ENDBRANCH  13  14
ENDBRANCH  12  13
ENDBRANCH  11  12
ENDBRANCH  10  11
ENDBRANCH   8   9
ENDBRANCH   7   8
ENDBRANCH   5   6
ENDBRANCH   4   5
ENDBRANCH   2   3
TORSDOF 12
ENDMDL
MODEL      138
REMARK 921   NORMALIZED FREE ENERGY PREDICTED BY IDOCK:   -4.15 KCAL/MOL
REMARK 922        TOTAL FREE ENERGY PREDICTED BY IDOCK:   -8.91 KCAL/MOL
REMARK 923 INTER-LIGAND FREE ENERGY PREDICTED BY IDOCK:   -7.40 KCAL/MOL
REMARK 924 INTRA-LIGAND FREE ENERGY PREDICTED BY IDOCK:   -1.51 KCAL/MOL
REMARK 927      BINDING AFFINITY PREDICTED BY RF-SCORE:    0.00 PKD
ROOT
HETATM    1  C   UNL     1     -10.354   3.279  73.385  1.00  0.00    -0.241 C  
HETATM    2  C   UNL     1     -10.920   4.642  73.022  1.00  0.00    -0.329 C  
ENDROOT
BRANCH   2   3
HETATM    3  C   UNL     1     -10.398   5.128  71.699  1.00  0.00    -0.274 C  
HETATM    4  C   UNL     1     -10.902   6.149  70.986  1.00  0.00    -0.338 C  
BRANCH   4   5
HETATM    5  C   UNL     1     -12.106   6.954  71.387  1.00  0.00    -0.408 C  
BRANCH   5   6
HETATM    6  C   UNL     1     -11.755   8.100  72.292  1.00  0.00    -0.439 C  
HETATM    7  C   UNL     1     -12.096   9.384  72.084  1.00  0.00    -0.293 C  
BRANCH   7   8
HETATM    8  C   UNL     1     -12.850   9.862  70.877  1.00  0.00    -0.360 C  
BRANCH   8   9
HETATM    9  C   UNL     1     -12.310  11.156  70.341  1.00  0.00    -0.430 C  
HETATM   10  C   UNL     1     -11.437  11.262  69.323  1.00  0.00    -0.369 C  
BRANCH  10  11
HETATM   11  C   UNL     1     -10.939  10.084  68.535  1.00  0.00    -0.255 C  
BRANCH  11  12
HETATM   12  C   UNL     1      -9.793  10.446  67.597  1.00  0.00    -0.197 C  
BRANCH  12  13
HETATM   13  C   UNL     1      -9.397  11.911  67.784  1.00  0.00    -0.184 C  
BRANCH  13  14
HETATM   14  C   UNL     1      -9.625  12.703  66.500  1.00  0.00    -0.248 C  
BRANCH  14  15
HETATM   15  C   UNL     1     -10.285  14.052  66.783  1.00  0.00    -0.264 C  
BRANCH  15  16
HETATM   16  C   UNL     1     -11.797  13.956  66.595  1.00  0.00    -0.447 C  
BRANCH  16  17
HETATM   17  C   UNL     1     -12.176  12.845  65.621  1.00  0.00    -0.519 C  
HETATM   18  C   UNL     1     -12.487  13.391  64.245  1.00  0.00    -0.257 C  
HETATM   19  O   UNL     1     -12.443  14.567  63.922  1.00  0.00    -0.814 OA 
HETATM   20  O   UNL     1     -12.833  12.416  63.373  1.00  0.00    -0.732 OA 
ENDBRANCH  16  17
ENDBRANCH  15  16
ENDBRANCH  14  15
ENDBRANCH  13  14
ENDBRANCH  12  13
ENDBRANCH  11  12
ENDBRANCH  10  11
ENDBRANCH   8   9
ENDBRANCH   7   8
ENDBRANCH   5   6
ENDBRANCH   4   5
ENDBRANCH   2   3
TORSDOF 12
ENDMDL
MODEL      139
REMARK 921   NORMALIZED FREE ENERGY PREDICTED BY IDOCK:   -4.15 KCAL/MOL
REMARK 922        TOTAL FREE ENERGY PREDICTED BY IDOCK:   -8.91 KCAL/MOL
REMARK 923 INTER-LIGAND FREE ENERGY PREDICTED BY IDOCK:   -7.05 KCAL/MOL
REMARK 924 INTRA-LIGAND FREE ENERGY PREDICTED BY IDOCK:   -1.86 KCAL/MOL
REMARK 927      BINDING AFFINITY PREDICTED BY RF-SCORE:    0.00 PKD
ROOT
HETATM    1  C   UNL     1     -11.832  13.894  67.209  1.00  0.00    -0.442 C  
HETATM    2  C   UNL     1     -11.855  12.769  68.231  1.00  0.00    -0.357 C  
ENDROOT
BRANCH   2   3
HETATM    3  C   UNL     1     -11.986  13.291  69.634  1.00  0.00    -0.376 C  
HETATM    4  C   UNL     1     -12.118  12.541  70.740  1.00  0.00    -0.240 C  
BRANCH   4   5
HETATM    5  C   UNL     1     -12.191  11.040  70.745  1.00  0.00    -0.480 C  
BRANCH   5   6
HETATM    6  C   UNL     1     -13.271  10.521  71.651  1.00  0.00    -0.493 C  
HETATM    7  C   UNL     1     -13.247   9.336  72.285  1.00  0.00    -0.535 C  
BRANCH   7   8
HETATM    8  C   UNL     1     -12.138   8.333  72.139  1.00  0.00    -0.425 C  
BRANCH   8   9
HETATM    9  C   UNL     1     -12.448   7.286  71.110  1.00  0.00    -0.373 C  
HETATM   10  C   UNL     1     -11.568   6.804  70.214  1.00  0.00    -0.417 C  
BRANCH  10  11
HETATM   11  C   UNL     1     -10.121   7.209  70.177  1.00  0.00    -0.195 C  
BRANCH  11  12
HETATM   12  C   UNL     1      -9.669   7.647  68.788  1.00  0.00    -0.153 C  
BRANCH  12  13
HETATM   13  C   UNL     1     -10.507   8.832  68.306  1.00  0.00    -0.236 C  
BRANCH  13  14
HETATM   14  C   UNL     1     -10.094   9.252  66.899  1.00  0.00    -0.324 C  
BRANCH  14  15
HETATM   15  C   UNL     1      -9.067  10.383  66.931  1.00  0.00    -0.159 C  
BRANCH  15  16
HETATM   16  C   UNL     1      -9.099  11.169  65.621  1.00  0.00    -0.221 C  
BRANCH  16  17
HETATM   17  C   UNL     1     -10.376  10.901  64.832  1.00  0.00    -0.371 C  
HETATM   18  C   UNL     1     -10.858  12.141  64.113  1.00  0.00    -0.360 C  
HETATM   19  O   UNL     1     -10.311  13.233  64.137  1.00  0.00    -0.407 OA 
HETATM   20  O   UNL     1     -11.996  11.920  63.415  1.00  0.00    -0.483 OA 
ENDBRANCH  16  17
ENDBRANCH  15  16
ENDBRANCH  14  15
ENDBRANCH  13  14
ENDBRANCH  12  13
ENDBRANCH  11  12
ENDBRANCH  10  11
ENDBRANCH   8   9
ENDBRANCH   7   8
ENDBRANCH   5   6
ENDBRANCH   4   5
ENDBRANCH   2   3
TORSDOF 12
ENDMDL
MODEL      140
REMARK 921   NORMALIZED FREE ENERGY PREDICTED BY IDOCK:   -4.14 KCAL/MOL
REMARK 922        TOTAL FREE ENERGY PREDICTED BY IDOCK:   -8.89 KCAL/MOL
REMARK 923 INTER-LIGAND FREE ENERGY PREDICTED BY IDOCK:   -6.99 KCAL/MOL
REMARK 924 INTRA-LIGAND FREE ENERGY PREDICTED BY IDOCK:   -1.90 KCAL/MOL
REMARK 927      BINDING AFFINITY PREDICTED BY RF-SCORE:    0.00 PKD
ROOT
HETATM    1  C   UNL     1     -10.596   8.116  67.214  1.00  0.00    -0.344 C  
HETATM    2  C   UNL     1      -9.199   8.624  66.894  1.00  0.00    -0.198 C  
ENDROOT
BRANCH   2   3
HETATM    3  C   UNL     1      -9.132  10.125  66.917  1.00  0.00    -0.160 C  
HETATM    4  C   UNL     1      -9.549  10.943  65.937  1.00  0.00    -0.257 C  
BRANCH   4   5
HETATM    5  C   UNL     1     -10.122  10.478  64.628  1.00  0.00    -0.408 C  
BRANCH   5   6
HETATM    6  C   UNL     1     -10.188  11.577  63.607  1.00  0.00    -0.450 C  
HETATM    7  C   UNL     1     -11.165  12.498  63.523  1.00  0.00    -0.525 C  
BRANCH   7   8
HETATM    8  C   UNL     1     -12.364  12.529  64.426  1.00  0.00    -0.537 C  
BRANCH   8   9
HETATM    9  C   UNL     1     -12.457  13.806  65.209  1.00  0.00    -0.512 C  
HETATM   10  C   UNL     1     -12.274  13.909  66.537  1.00  0.00    -0.482 C  
BRANCH  10  11
HETATM   11  C   UNL     1     -11.876  12.752  67.409  1.00  0.00    -0.404 C  
BRANCH  11  12
HETATM   12  C   UNL     1     -11.358  13.194  68.773  1.00  0.00    -0.333 C  
BRANCH  12  13
HETATM   13  C   UNL     1     -11.965  12.327  69.877  1.00  0.00    -0.377 C  
BRANCH  13  14
HETATM   14  C   UNL     1     -11.897  10.850  69.506  1.00  0.00    -0.404 C  
BRANCH  14  15
HETATM   15  C   UNL     1     -11.592   9.979  70.725  1.00  0.00    -0.444 C  
BRANCH  15  16
HETATM   16  C   UNL     1     -10.146   9.490  70.683  1.00  0.00    -0.353 C  
BRANCH  16  17
HETATM   17  C   UNL     1      -9.817   8.597  71.875  1.00  0.00    -0.384 C  
HETATM   18  C   UNL     1      -9.162   7.305  71.440  1.00  0.00    -0.142 C  
HETATM   19  O   UNL     1      -8.908   6.991  70.288  1.00  0.00    -0.146 OA 
HETATM   20  O   UNL     1      -8.872   6.499  72.487  1.00  0.00    -0.133 OA 
ENDBRANCH  16  17
ENDBRANCH  15  16
ENDBRANCH  14  15
ENDBRANCH  13  14
ENDBRANCH  12  13
ENDBRANCH  11  12
ENDBRANCH  10  11
ENDBRANCH   8   9
ENDBRANCH   7   8
ENDBRANCH   5   6
ENDBRANCH   4   5
ENDBRANCH   2   3
TORSDOF 12
ENDMDL
MODEL      141
REMARK 921   NORMALIZED FREE ENERGY PREDICTED BY IDOCK:   -4.14 KCAL/MOL
REMARK 922        TOTAL FREE ENERGY PREDICTED BY IDOCK:   -8.88 KCAL/MOL
REMARK 923 INTER-LIGAND FREE ENERGY PREDICTED BY IDOCK:   -7.27 KCAL/MOL
REMARK 924 INTRA-LIGAND FREE ENERGY PREDICTED BY IDOCK:   -1.61 KCAL/MOL
REMARK 927      BINDING AFFINITY PREDICTED BY RF-SCORE:    0.00 PKD
ROOT
HETATM    1  C   UNL     1      -9.604   4.143  68.049  1.00  0.00    -0.200 C  
HETATM    2  C   UNL     1      -9.448   5.214  69.117  1.00  0.00    -0.188 C  
ENDROOT
BRANCH   2   3
HETATM    3  C   UNL     1     -10.746   5.495  69.819  1.00  0.00    -0.355 C  
HETATM    4  C   UNL     1     -11.259   6.714  70.058  1.00  0.00    -0.425 C  
BRANCH   4   5
HETATM    5  C   UNL     1     -10.588   8.006  69.688  1.00  0.00    -0.223 C  
BRANCH   5   6
HETATM    6  C   UNL     1     -10.629   9.013  70.802  1.00  0.00    -0.300 C  
HETATM    7  C   UNL     1     -11.292  10.182  70.765  1.00  0.00    -0.436 C  
BRANCH   7   8
HETATM    8  C   UNL     1     -12.062  10.668  69.570  1.00  0.00    -0.285 C  
BRANCH   8   9
HETATM    9  C   UNL     1     -11.738  12.092  69.223  1.00  0.00    -0.389 C  
HETATM   10  C   UNL     1     -10.709  12.480  68.449  1.00  0.00    -0.259 C  
BRANCH  10  11
HETATM   11  C   UNL     1      -9.780  11.517  67.766  1.00  0.00    -0.180 C  
BRANCH  11  12
HETATM   12  C   UNL     1      -9.181  12.086  66.485  1.00  0.00    -0.216 C  
BRANCH  12  13
HETATM   13  C   UNL     1      -9.915  11.531  65.264  1.00  0.00    -0.302 C  
BRANCH  13  14
HETATM   14  C   UNL     1     -10.757  12.615  64.598  1.00  0.00    -0.353 C  
BRANCH  14  15
HETATM   15  C   UNL     1     -12.177  12.647  65.163  1.00  0.00    -0.539 C  
BRANCH  15  16
HETATM   16  C   UNL     1     -12.633  14.088  65.378  1.00  0.00    -0.529 C  
BRANCH  16  17
HETATM   17  C   UNL     1     -11.478  14.988  65.806  1.00  0.00    -0.236 C  
HETATM   18  C   UNL     1     -11.244  16.105  64.814  1.00  0.00    -0.304 C  
HETATM   19  O   UNL     1     -11.886  16.294  63.793  1.00  0.00    -0.955 OA 
HETATM   20  O   UNL     1     -10.216  16.907  65.178  1.00  0.00    -0.595 OA 
ENDBRANCH  16  17
ENDBRANCH  15  16
ENDBRANCH  14  15
ENDBRANCH  13  14
ENDBRANCH  12  13
ENDBRANCH  11  12
ENDBRANCH  10  11
ENDBRANCH   8   9
ENDBRANCH   7   8
ENDBRANCH   5   6
ENDBRANCH   4   5
ENDBRANCH   2   3
TORSDOF 12
ENDMDL
MODEL      142
REMARK 921   NORMALIZED FREE ENERGY PREDICTED BY IDOCK:   -4.14 KCAL/MOL
REMARK 922        TOTAL FREE ENERGY PREDICTED BY IDOCK:   -8.88 KCAL/MOL
REMARK 923 INTER-LIGAND FREE ENERGY PREDICTED BY IDOCK:   -6.71 KCAL/MOL
REMARK 924 INTRA-LIGAND FREE ENERGY PREDICTED BY IDOCK:   -2.17 KCAL/MOL
REMARK 927      BINDING AFFINITY PREDICTED BY RF-SCORE:    0.00 PKD
ROOT
HETATM    1  C   UNL     1      -9.624  10.898  64.070  1.00  0.00    -0.321 C  
HETATM    2  C   UNL     1     -10.354  12.086  63.466  1.00  0.00    -0.492 C  
ENDROOT
BRANCH   2   3
HETATM    3  C   UNL     1     -11.835  11.845  63.379  1.00  0.00    -0.512 C  
HETATM    4  C   UNL     1     -12.770  12.434  64.142  1.00  0.00    -0.446 C  
BRANCH   4   5
HETATM    5  C   UNL     1     -12.476  13.414  65.243  1.00  0.00    -0.532 C  
BRANCH   5   6
HETATM    6  C   UNL     1     -12.177  14.790  64.722  1.00  0.00    -0.356 C  
HETATM    7  C   UNL     1     -11.022  15.454  64.906  1.00  0.00    -0.453 C  
BRANCH   7   8
HETATM    8  C   UNL     1      -9.869  14.918  65.705  1.00  0.00    -0.380 C  
BRANCH   8   9
HETATM    9  C   UNL     1      -9.236  15.969  66.569  1.00  0.00    -0.307 C  
HETATM   10  C   UNL     1      -9.802  16.510  67.663  1.00  0.00    -0.247 C  
BRANCH  10  11
HETATM   11  C   UNL     1     -11.131  16.071  68.207  1.00  0.00    -0.351 C  
BRANCH  11  12
HETATM   12  C   UNL     1     -11.011  14.906  69.184  1.00  0.00    -0.266 C  
BRANCH  12  13
HETATM   13  C   UNL     1     -12.095  13.864  68.903  1.00  0.00    -0.355 C  
BRANCH  13  14
HETATM   14  C   UNL     1     -11.567  12.454  69.146  1.00  0.00    -0.369 C  
BRANCH  14  15
HETATM   15  C   UNL     1     -10.801  11.926  67.934  1.00  0.00    -0.254 C  
BRANCH  15  16
HETATM   16  C   UNL     1     -11.097  10.443  67.720  1.00  0.00    -0.365 C  
BRANCH  16  17
HETATM   17  C   UNL     1      -9.846   9.671  67.310  1.00  0.00    -0.225 C  
HETATM   18  C   UNL     1      -9.806   8.298  67.944  1.00  0.00    -0.169 C  
HETATM   19  O   UNL     1     -10.655   7.835  68.688  1.00  0.00    -0.192 OA 
HETATM   20  O   UNL     1      -8.697   7.605  67.595  1.00  0.00    -0.122 OA 
ENDBRANCH  16  17
ENDBRANCH  15  16
ENDBRANCH  14  15
ENDBRANCH  13  14
ENDBRANCH  12  13
ENDBRANCH  11  12
ENDBRANCH  10  11
ENDBRANCH   8   9
ENDBRANCH   7   8
ENDBRANCH   5   6
ENDBRANCH   4   5
ENDBRANCH   2   3
TORSDOF 12
ENDMDL
MODEL      143
REMARK 921   NORMALIZED FREE ENERGY PREDICTED BY IDOCK:   -4.13 KCAL/MOL
REMARK 922        TOTAL FREE ENERGY PREDICTED BY IDOCK:   -8.87 KCAL/MOL
REMARK 923 INTER-LIGAND FREE ENERGY PREDICTED BY IDOCK:   -7.75 KCAL/MOL
REMARK 924 INTRA-LIGAND FREE ENERGY PREDICTED BY IDOCK:   -1.12 KCAL/MOL
REMARK 927      BINDING AFFINITY PREDICTED BY RF-SCORE:    0.00 PKD
ROOT
HETATM    1  C   UNL     1     -13.138  10.115  72.021  1.00  0.00    -0.538 C  
HETATM    2  C   UNL     1     -12.301   9.173  71.170  1.00  0.00    -0.330 C  
ENDROOT
BRANCH   2   3
HETATM    3  C   UNL     1     -12.818   7.763  71.226  1.00  0.00    -0.265 C  
HETATM    4  C   UNL     1     -12.185   6.678  70.752  1.00  0.00    -0.302 C  
BRANCH   4   5
HETATM    5  C   UNL     1     -10.858   6.707  70.049  1.00  0.00    -0.331 C  
BRANCH   5   6
HETATM    6  C   UNL     1     -10.982   6.439  68.576  1.00  0.00    -0.396 C  
HETATM    7  C   UNL     1     -10.729   7.332  67.603  1.00  0.00    -0.294 C  
BRANCH   7   8
HETATM    8  C   UNL     1     -10.321   8.754  67.859  1.00  0.00    -0.281 C  
BRANCH   8   9
HETATM    9  C   UNL     1      -9.106   9.151  67.073  1.00  0.00    -0.147 C  
HETATM   10  C   UNL     1      -9.129   9.819  65.906  1.00  0.00    -0.209 C  
BRANCH  10  11
HETATM   11  C   UNL     1     -10.392  10.322  65.268  1.00  0.00    -0.218 C  
BRANCH  11  12
HETATM   12  C   UNL     1     -10.143  10.999  63.924  1.00  0.00    -0.414 C  
BRANCH  12  13
HETATM   13  C   UNL     1     -11.290  11.954  63.590  1.00  0.00    -0.536 C  
BRANCH  13  14
HETATM   14  C   UNL     1     -12.122  12.258  64.832  1.00  0.00    -0.422 C  
BRANCH  14  15
HETATM   15  C   UNL     1     -12.053  13.739  65.203  1.00  0.00    -0.416 C  
BRANCH  15  16
HETATM   16  C   UNL     1     -10.669  14.304  64.893  1.00  0.00    -0.448 C  
BRANCH  16  17
HETATM   17  C   UNL     1     -10.409  15.607  65.641  1.00  0.00    -0.408 C  
HETATM   18  C   UNL     1     -10.975  16.798  64.899  1.00  0.00    -0.087 C  
HETATM   19  O   UNL     1     -11.575  16.752  63.836  1.00  0.00    -1.122 OA 
HETATM   20  O   UNL     1     -10.745  17.963  65.547  1.00  0.00    -0.585 OA 
ENDBRANCH  16  17
ENDBRANCH  15  16
ENDBRANCH  14  15
ENDBRANCH  13  14
ENDBRANCH  12  13
ENDBRANCH  11  12
ENDBRANCH  10  11
ENDBRANCH   8   9
ENDBRANCH   7   8
ENDBRANCH   5   6
ENDBRANCH   4   5
ENDBRANCH   2   3
TORSDOF 12
ENDMDL
MODEL      144
REMARK 921   NORMALIZED FREE ENERGY PREDICTED BY IDOCK:   -4.13 KCAL/MOL
REMARK 922        TOTAL FREE ENERGY PREDICTED BY IDOCK:   -8.87 KCAL/MOL
REMARK 923 INTER-LIGAND FREE ENERGY PREDICTED BY IDOCK:   -7.27 KCAL/MOL
REMARK 924 INTRA-LIGAND FREE ENERGY PREDICTED BY IDOCK:   -1.59 KCAL/MOL
REMARK 927      BINDING AFFINITY PREDICTED BY RF-SCORE:    0.00 PKD
ROOT
HETATM    1  C   UNL     1     -11.707   8.281  72.284  1.00  0.00    -0.453 C  
HETATM    2  C   UNL     1     -12.817   8.976  71.511  1.00  0.00    -0.394 C  
ENDROOT
BRANCH   2   3
HETATM    3  C   UNL     1     -12.756  10.469  71.669  1.00  0.00    -0.550 C  
HETATM    4  C   UNL     1     -12.422  11.345  70.706  1.00  0.00    -0.460 C  
BRANCH   4   5
HETATM    5  C   UNL     1     -12.016  10.962  69.312  1.00  0.00    -0.382 C  
BRANCH   5   6
HETATM    6  C   UNL     1     -10.661  11.494  68.941  1.00  0.00    -0.245 C  
HETATM    7  C   UNL     1     -10.430  12.684  68.359  1.00  0.00    -0.248 C  
BRANCH   7   8
HETATM    8  C   UNL     1     -11.514  13.640  67.953  1.00  0.00    -0.348 C  
BRANCH   8   9
HETATM    9  C   UNL     1     -11.040  14.649  66.949  1.00  0.00    -0.333 C  
HETATM   10  C   UNL     1     -11.451  14.713  65.670  1.00  0.00    -0.340 C  
BRANCH  10  11
HETATM   11  C   UNL     1     -12.508  13.812  65.095  1.00  0.00    -0.483 C  
BRANCH  11  12
HETATM   12  C   UNL     1     -12.235  13.438  63.643  1.00  0.00    -0.480 C  
BRANCH  12  13
HETATM   13  C   UNL     1     -12.064  11.924  63.508  1.00  0.00    -0.575 C  
BRANCH  13  14
HETATM   14  C   UNL     1     -10.970  11.417  64.442  1.00  0.00    -0.371 C  
BRANCH  14  15
HETATM   15  C   UNL     1      -9.866  10.692  63.672  1.00  0.00    -0.392 C  
BRANCH  15  16
HETATM   16  C   UNL     1      -9.164   9.679  64.573  1.00  0.00    -0.277 C  
BRANCH  16  17
HETATM   17  C   UNL     1      -9.801   9.616  65.957  1.00  0.00    -0.345 C  
HETATM   18  C   UNL     1      -9.716   8.226  66.547  1.00  0.00    -0.253 C  
HETATM   19  O   UNL     1      -9.201   7.257  66.011  1.00  0.00    -0.133 OA 
HETATM   20  O   UNL     1     -10.286   8.154  67.773  1.00  0.00    -0.214 OA 
ENDBRANCH  16  17
ENDBRANCH  15  16
ENDBRANCH  14  15
ENDBRANCH  13  14
ENDBRANCH  12  13
ENDBRANCH  11  12
ENDBRANCH  10  11
ENDBRANCH   8   9
ENDBRANCH   7   8
ENDBRANCH   5   6
ENDBRANCH   4   5
ENDBRANCH   2   3
TORSDOF 12
ENDMDL
MODEL      145
REMARK 921   NORMALIZED FREE ENERGY PREDICTED BY IDOCK:   -4.13 KCAL/MOL
REMARK 922        TOTAL FREE ENERGY PREDICTED BY IDOCK:   -8.87 KCAL/MOL
REMARK 923 INTER-LIGAND FREE ENERGY PREDICTED BY IDOCK:   -7.09 KCAL/MOL
REMARK 924 INTRA-LIGAND FREE ENERGY PREDICTED BY IDOCK:   -1.78 KCAL/MOL
REMARK 927      BINDING AFFINITY PREDICTED BY RF-SCORE:    0.00 PKD
ROOT
HETATM    1  C   UNL     1     -11.067   6.122  69.399  1.00  0.00    -0.479 C  
HETATM    2  C   UNL     1     -11.168   6.638  70.826  1.00  0.00    -0.366 C  
ENDROOT
BRANCH   2   3
HETATM    3  C   UNL     1     -12.595   6.862  71.238  1.00  0.00    -0.394 C  
HETATM    4  C   UNL     1     -13.081   7.979  71.804  1.00  0.00    -0.360 C  
BRANCH   4   5
HETATM    5  C   UNL     1     -12.254   9.185  72.151  1.00  0.00    -0.408 C  
BRANCH   5   6
HETATM    6  C   UNL     1     -12.738  10.430  71.465  1.00  0.00    -0.564 C  
HETATM    7  C   UNL     1     -12.093  11.068  70.473  1.00  0.00    -0.470 C  
BRANCH   7   8
HETATM    8  C   UNL     1     -10.757  10.641  69.935  1.00  0.00    -0.260 C  
BRANCH   8   9
HETATM    9  C   UNL     1     -10.882   9.798  68.700  1.00  0.00    -0.223 C  
HETATM   10  C   UNL     1     -11.093  10.275  67.461  1.00  0.00    -0.302 C  
BRANCH  10  11
HETATM   11  C   UNL     1     -11.160  11.742  67.141  1.00  0.00    -0.350 C  
BRANCH  11  12
HETATM   12  C   UNL     1      -9.795  12.335  66.808  1.00  0.00    -0.218 C  
BRANCH  12  13
HETATM   13  C   UNL     1      -9.436  13.434  67.808  1.00  0.00    -0.210 C  
BRANCH  13  14
HETATM   14  C   UNL     1     -10.687  13.966  68.502  1.00  0.00    -0.268 C  
BRANCH  14  15
HETATM   15  C   UNL     1     -11.150  15.286  67.886  1.00  0.00    -0.321 C  
BRANCH  15  16
HETATM   16  C   UNL     1     -10.132  16.390  68.163  1.00  0.00    -0.251 C  
BRANCH  16  17
HETATM   17  C   UNL     1     -10.777  17.773  68.133  1.00  0.00    -0.293 C  
HETATM   18  C   UNL     1     -10.439  18.517  66.860  1.00  0.00    -0.396 C  
HETATM   19  O   UNL     1      -9.747  18.089  65.950  1.00  0.00    -0.530 OA 
HETATM   20  O   UNL     1     -10.998  19.749  66.824  1.00  0.00    -0.429 OA 
ENDBRANCH  16  17
ENDBRANCH  15  16
ENDBRANCH  14  15
ENDBRANCH  13  14
ENDBRANCH  12  13
ENDBRANCH  11  12
ENDBRANCH  10  11
ENDBRANCH   8   9
ENDBRANCH   7   8
ENDBRANCH   5   6
ENDBRANCH   4   5
ENDBRANCH   2   3
TORSDOF 12
ENDMDL
MODEL      146
REMARK 921   NORMALIZED FREE ENERGY PREDICTED BY IDOCK:   -4.12 KCAL/MOL
REMARK 922        TOTAL FREE ENERGY PREDICTED BY IDOCK:   -8.86 KCAL/MOL
REMARK 923 INTER-LIGAND FREE ENERGY PREDICTED BY IDOCK:   -7.42 KCAL/MOL
REMARK 924 INTRA-LIGAND FREE ENERGY PREDICTED BY IDOCK:   -1.44 KCAL/MOL
REMARK 927      BINDING AFFINITY PREDICTED BY RF-SCORE:    0.00 PKD
ROOT
HETATM    1  C   UNL     1     -12.806   9.854  71.233  1.00  0.00    -0.486 C  
HETATM    2  C   UNL     1     -11.728  10.803  70.732  1.00  0.00    -0.400 C  
ENDROOT
BRANCH   2   3
HETATM    3  C   UNL     1     -12.274  12.177  70.467  1.00  0.00    -0.392 C  
HETATM    4  C   UNL     1     -11.872  13.005  69.488  1.00  0.00    -0.385 C  
BRANCH   4   5
HETATM    5  C   UNL     1     -10.771  12.696  68.513  1.00  0.00    -0.271 C  
BRANCH   5   6
HETATM    6  C   UNL     1     -11.262  11.934  67.316  1.00  0.00    -0.376 C  
HETATM    7  C   UNL     1     -11.917  12.472  66.271  1.00  0.00    -0.410 C  
BRANCH   7   8
HETATM    8  C   UNL     1     -12.291  13.923  66.177  1.00  0.00    -0.504 C  
BRANCH   8   9
HETATM    9  C   UNL     1     -11.627  14.611  65.021  1.00  0.00    -0.385 C  
HETATM   10  C   UNL     1     -10.489  15.324  65.101  1.00  0.00    -0.438 C  
BRANCH  10  11
HETATM   11  C   UNL     1      -9.689  15.464  66.365  1.00  0.00    -0.311 C  
BRANCH  11  12
HETATM   12  C   UNL     1     -10.347  16.397  67.376  1.00  0.00    -0.295 C  
BRANCH  12  13
HETATM   13  C   UNL     1     -10.655  17.748  66.728  1.00  0.00    -0.235 C  
BRANCH  13  14
HETATM   14  C   UNL     1     -10.209  18.896  67.629  1.00  0.00    -0.459 C  
BRANCH  14  15
HETATM   15  C   UNL     1      -9.583  20.032  66.820  1.00  0.00    -0.543 C  
BRANCH  15  16
HETATM   16  C   UNL     1      -8.116  20.214  67.204  1.00  0.00    -0.370 C  
BRANCH  16  17
HETATM   17  C   UNL     1      -7.496  18.912  67.702  1.00  0.00    -0.245 C  
HETATM   18  C   UNL     1      -7.022  18.047  66.556  1.00  0.00    -0.220 C  
HETATM   19  O   UNL     1      -7.104  18.330  65.371  1.00  0.00    -0.537 OA 
HETATM   20  O   UNL     1      -6.477  16.884  66.983  1.00  0.00    -0.162 OA 
ENDBRANCH  16  17
ENDBRANCH  15  16
ENDBRANCH  14  15
ENDBRANCH  13  14
ENDBRANCH  12  13
ENDBRANCH  11  12
ENDBRANCH  10  11
ENDBRANCH   8   9
ENDBRANCH   7   8
ENDBRANCH   5   6
ENDBRANCH   4   5
ENDBRANCH   2   3
TORSDOF 12
ENDMDL
MODEL      147
REMARK 921   NORMALIZED FREE ENERGY PREDICTED BY IDOCK:   -4.12 KCAL/MOL
REMARK 922        TOTAL FREE ENERGY PREDICTED BY IDOCK:   -8.85 KCAL/MOL
REMARK 923 INTER-LIGAND FREE ENERGY PREDICTED BY IDOCK:   -7.02 KCAL/MOL
REMARK 924 INTRA-LIGAND FREE ENERGY PREDICTED BY IDOCK:   -1.84 KCAL/MOL
REMARK 927      BINDING AFFINITY PREDICTED BY RF-SCORE:    0.00 PKD
ROOT
HETATM    1  C   UNL     1      -9.935  10.174  65.458  1.00  0.00    -0.363 C  
HETATM    2  C   UNL     1     -10.061  11.413  64.586  1.00  0.00    -0.330 C  
ENDROOT
BRANCH   2   3
HETATM    3  C   UNL     1     -11.317  11.389  63.761  1.00  0.00    -0.310 C  
HETATM    4  C   UNL     1     -12.351  12.236  63.886  1.00  0.00    -0.606 C  
BRANCH   4   5
HETATM    5  C   UNL     1     -12.432  13.334  64.908  1.00  0.00    -0.465 C  
BRANCH   5   6
HETATM    6  C   UNL     1     -11.830  14.621  64.418  1.00  0.00    -0.405 C  
HETATM    7  C   UNL     1     -10.767  15.235  64.965  1.00  0.00    -0.461 C  
BRANCH   7   8
HETATM    8  C   UNL     1     -10.049  14.735  66.186  1.00  0.00    -0.312 C  
BRANCH   8   9
HETATM    9  C   UNL     1     -10.223  15.647  67.365  1.00  0.00    -0.264 C  
HETATM   10  C   UNL     1     -11.181  15.519  68.301  1.00  0.00    -0.343 C  
BRANCH  10  11
HETATM   11  C   UNL     1     -12.168  14.388  68.323  1.00  0.00    -0.160 C  
BRANCH  11  12
HETATM   12  C   UNL     1     -11.792  13.298  69.322  1.00  0.00    -0.383 C  
BRANCH  12  13
HETATM   13  C   UNL     1     -11.700  11.943  68.619  1.00  0.00    -0.380 C  
BRANCH  13  14
HETATM   14  C   UNL     1     -11.197  10.868  69.577  1.00  0.00    -0.340 C  
BRANCH  14  15
HETATM   15  C   UNL     1     -12.069  10.781  70.829  1.00  0.00    -0.473 C  
BRANCH  15  16
HETATM   16  C   UNL     1     -12.158   9.337  71.318  1.00  0.00    -0.412 C  
BRANCH  16  17
HETATM   17  C   UNL     1     -10.780   8.689  71.418  1.00  0.00    -0.338 C  
HETATM   18  C   UNL     1     -10.703   7.416  70.605  1.00  0.00    -0.229 C  
HETATM   19  O   UNL     1     -11.609   6.945  69.936  1.00  0.00    -0.272 OA 
HETATM   20  O   UNL     1      -9.488   6.826  70.691  1.00  0.00    -0.168 OA 
ENDBRANCH  16  17
ENDBRANCH  15  16
ENDBRANCH  14  15
ENDBRANCH  13  14
ENDBRANCH  12  13
ENDBRANCH  11  12
ENDBRANCH  10  11
ENDBRANCH   8   9
ENDBRANCH   7   8
ENDBRANCH   5   6
ENDBRANCH   4   5
ENDBRANCH   2   3
TORSDOF 12
ENDMDL
MODEL      148
REMARK 921   NORMALIZED FREE ENERGY PREDICTED BY IDOCK:   -4.12 KCAL/MOL
REMARK 922        TOTAL FREE ENERGY PREDICTED BY IDOCK:   -8.85 KCAL/MOL
REMARK 923 INTER-LIGAND FREE ENERGY PREDICTED BY IDOCK:   -6.77 KCAL/MOL
REMARK 924 INTRA-LIGAND FREE ENERGY PREDICTED BY IDOCK:   -2.08 KCAL/MOL
REMARK 927      BINDING AFFINITY PREDICTED BY RF-SCORE:    0.00 PKD
ROOT
HETATM    1  C   UNL     1     -13.149  10.965  71.990  1.00  0.00    -0.462 C  
HETATM    2  C   UNL     1     -12.964  10.099  70.754  1.00  0.00    -0.380 C  
ENDROOT
BRANCH   2   3
HETATM    3  C   UNL     1     -11.534  10.087  70.291  1.00  0.00    -0.372 C  
HETATM    4  C   UNL     1     -10.992  10.937  69.403  1.00  0.00    -0.304 C  
BRANCH   4   5
HETATM    5  C   UNL     1     -11.748  12.025  68.695  1.00  0.00    -0.380 C  
BRANCH   5   6
HETATM    6  C   UNL     1     -11.697  13.332  69.432  1.00  0.00    -0.383 C  
HETATM    7  C   UNL     1     -11.045  14.432  69.015  1.00  0.00    -0.282 C  
BRANCH   7   8
HETATM    8  C   UNL     1     -10.230  14.491  67.755  1.00  0.00    -0.226 C  
BRANCH   8   9
HETATM    9  C   UNL     1     -10.317  15.829  67.081  1.00  0.00    -0.291 C  
HETATM   10  C   UNL     1     -10.676  16.023  65.799  1.00  0.00    -0.310 C  
BRANCH  10  11
HETATM   11  C   UNL     1     -11.112  14.912  64.886  1.00  0.00    -0.424 C  
BRANCH  11  12
HETATM   12  C   UNL     1     -12.541  14.456  65.157  1.00  0.00    -0.323 C  
BRANCH  12  13
HETATM   13  C   UNL     1     -12.646  12.936  65.028  1.00  0.00    -0.538 C  
BRANCH  13  14
HETATM   14  C   UNL     1     -12.039  12.460  63.712  1.00  0.00    -0.618 C  
BRANCH  14  15
HETATM   15  C   UNL     1     -10.955  11.407  63.943  1.00  0.00    -0.442 C  
BRANCH  15  16
HETATM   16  C   UNL     1     -10.694  11.230  65.437  1.00  0.00    -0.291 C  
BRANCH  16  17
HETATM   17  C   UNL     1      -9.894   9.963  65.725  1.00  0.00    -0.356 C  
HETATM   18  C   UNL     1      -8.566  10.277  66.376  1.00  0.00    -0.133 C  
HETATM   19  O   UNL     1      -8.160  11.394  66.656  1.00  0.00    -0.157 OA 
HETATM   20  O   UNL     1      -7.842   9.162  66.629  1.00  0.00    -0.099 OA 
ENDBRANCH  16  17
ENDBRANCH  15  16
ENDBRANCH  14  15
ENDBRANCH  13  14
ENDBRANCH  12  13
ENDBRANCH  11  12
ENDBRANCH  10  11
ENDBRANCH   8   9
ENDBRANCH   7   8
ENDBRANCH   5   6
ENDBRANCH   4   5
ENDBRANCH   2   3
TORSDOF 12
ENDMDL
MODEL      149
REMARK 921   NORMALIZED FREE ENERGY PREDICTED BY IDOCK:   -4.11 KCAL/MOL
REMARK 922        TOTAL FREE ENERGY PREDICTED BY IDOCK:   -8.84 KCAL/MOL
REMARK 923 INTER-LIGAND FREE ENERGY PREDICTED BY IDOCK:   -7.23 KCAL/MOL
REMARK 924 INTRA-LIGAND FREE ENERGY PREDICTED BY IDOCK:   -1.61 KCAL/MOL
REMARK 927      BINDING AFFINITY PREDICTED BY RF-SCORE:    0.00 PKD
ROOT
HETATM    1  C   UNL     1     -13.218  11.123  71.915  1.00  0.00    -0.488 C  
HETATM    2  C   UNL     1     -13.049   9.824  71.142  1.00  0.00    -0.424 C  
ENDROOT
BRANCH   2   3
HETATM    3  C   UNL     1     -13.904   8.725  71.705  1.00  0.00    -0.443 C  
HETATM    4  C   UNL     1     -13.581   7.422  71.740  1.00  0.00    -0.396 C  
BRANCH   4   5
HETATM    5  C   UNL     1     -12.311   6.845  71.183  1.00  0.00    -0.419 C  
BRANCH   5   6
HETATM    6  C   UNL     1     -11.526   6.083  72.212  1.00  0.00    -0.364 C  
HETATM    7  C   UNL     1     -10.542   6.595  72.971  1.00  0.00    -0.283 C  
BRANCH   7   8
HETATM    8  C   UNL     1     -10.055   8.012  72.864  1.00  0.00    -0.376 C  
BRANCH   8   9
HETATM    9  C   UNL     1      -8.613   8.091  72.459  1.00  0.00    -0.227 C  
HETATM   10  C   UNL     1      -8.160   8.678  71.336  1.00  0.00    -0.192 C  
BRANCH  10  11
HETATM   11  C   UNL     1      -9.050   9.401  70.365  1.00  0.00    -0.302 C  
BRANCH  11  12
HETATM   12  C   UNL     1      -9.115   8.717  69.004  1.00  0.00    -0.145 C  
BRANCH  12  13
HETATM   13  C   UNL     1     -10.414   9.085  68.286  1.00  0.00    -0.247 C  
BRANCH  13  14
HETATM   14  C   UNL     1     -10.131   9.578  66.871  1.00  0.00    -0.295 C  
BRANCH  14  15
HETATM   15  C   UNL     1     -10.884  10.873  66.568  1.00  0.00    -0.234 C  
BRANCH  15  16
HETATM   16  C   UNL     1     -10.670  11.287  65.114  1.00  0.00    -0.312 C  
BRANCH  16  17
HETATM   17  C   UNL     1     -10.825  12.794  64.927  1.00  0.00    -0.326 C  
HETATM   18  C   UNL     1     -12.203  13.153  64.419  1.00  0.00    -0.398 C  
HETATM   19  O   UNL     1     -13.103  12.362  64.186  1.00  0.00    -0.762 OA 
HETATM   20  O   UNL     1     -12.352  14.487  64.241  1.00  0.00    -0.597 OA 
ENDBRANCH  16  17
ENDBRANCH  15  16
ENDBRANCH  14  15
ENDBRANCH  13  14
ENDBRANCH  12  13
ENDBRANCH  11  12
ENDBRANCH  10  11
ENDBRANCH   8   9
ENDBRANCH   7   8
ENDBRANCH   5   6
ENDBRANCH   4   5
ENDBRANCH   2   3
TORSDOF 12
ENDMDL
MODEL      150
REMARK 921   NORMALIZED FREE ENERGY PREDICTED BY IDOCK:   -4.10 KCAL/MOL
REMARK 922        TOTAL FREE ENERGY PREDICTED BY IDOCK:   -8.83 KCAL/MOL
REMARK 923 INTER-LIGAND FREE ENERGY PREDICTED BY IDOCK:   -6.31 KCAL/MOL
REMARK 924 INTRA-LIGAND FREE ENERGY PREDICTED BY IDOCK:   -2.52 KCAL/MOL
REMARK 927      BINDING AFFINITY PREDICTED BY RF-SCORE:    0.00 PKD
ROOT
HETATM    1  C   UNL     1      -9.613  10.864  64.079  1.00  0.00    -0.321 C  
HETATM    2  C   UNL     1     -10.306  12.069  63.463  1.00  0.00    -0.492 C  
ENDROOT
BRANCH   2   3
HETATM    3  C   UNL     1     -11.789  11.858  63.341  1.00  0.00    -0.512 C  
HETATM    4  C   UNL     1     -12.729  12.450  64.096  1.00  0.00    -0.446 C  
BRANCH   4   5
HETATM    5  C   UNL     1     -12.440  13.403  65.220  1.00  0.00    -0.532 C  
BRANCH   5   6
HETATM    6  C   UNL     1     -12.096  14.781  64.732  1.00  0.00    -0.387 C  
HETATM    7  C   UNL     1     -10.932  15.415  64.956  1.00  0.00    -0.450 C  
BRANCH   7   8
HETATM    8  C   UNL     1      -9.812  14.839  65.775  1.00  0.00    -0.373 C  
BRANCH   8   9
HETATM    9  C   UNL     1      -9.225  15.842  66.725  1.00  0.00    -0.268 C  
HETATM   10  C   UNL     1      -9.842  16.313  67.824  1.00  0.00    -0.237 C  
BRANCH  10  11
HETATM   11  C   UNL     1     -11.189  15.833  68.284  1.00  0.00    -0.356 C  
BRANCH  11  12
HETATM   12  C   UNL     1     -11.102  14.594  69.168  1.00  0.00    -0.285 C  
BRANCH  12  13
HETATM   13  C   UNL     1     -12.131  13.553  68.725  1.00  0.00    -0.305 C  
BRANCH  13  14
HETATM   14  C   UNL     1     -11.605  12.139  68.952  1.00  0.00    -0.377 C  
BRANCH  14  15
HETATM   15  C   UNL     1     -10.618  11.727  67.861  1.00  0.00    -0.231 C  
BRANCH  15  16
HETATM   16  C   UNL     1      -9.187  11.771  68.392  1.00  0.00    -0.175 C  
BRANCH  16  17
HETATM   17  C   UNL     1      -8.224  12.375  67.374  1.00  0.00    -0.180 C  
HETATM   18  C   UNL     1      -7.180  13.243  68.041  1.00  0.00    -0.121 C  
HETATM   19  O   UNL     1      -7.089  13.448  69.241  1.00  0.00    -0.056 OA 
HETATM   20  O   UNL     1      -6.324  13.792  67.148  1.00  0.00    -0.205 OA 
ENDBRANCH  16  17
ENDBRANCH  15  16
ENDBRANCH  14  15
ENDBRANCH  13  14
ENDBRANCH  12  13
ENDBRANCH  11  12
ENDBRANCH  10  11
ENDBRANCH   8   9
ENDBRANCH   7   8
ENDBRANCH   5   6
ENDBRANCH   4   5
ENDBRANCH   2   3
TORSDOF 12
ENDMDL
MODEL      151
REMARK 921   NORMALIZED FREE ENERGY PREDICTED BY IDOCK:   -4.10 KCAL/MOL
REMARK 922        TOTAL FREE ENERGY PREDICTED BY IDOCK:   -8.82 KCAL/MOL
REMARK 923 INTER-LIGAND FREE ENERGY PREDICTED BY IDOCK:   -6.85 KCAL/MOL
REMARK 924 INTRA-LIGAND FREE ENERGY PREDICTED BY IDOCK:   -1.97 KCAL/MOL
REMARK 927      BINDING AFFINITY PREDICTED BY RF-SCORE:    0.00 PKD
ROOT
HETATM    1  C   UNL     1     -11.261   6.151  69.994  1.00  0.00    -0.471 C  
HETATM    2  C   UNL     1     -11.110   7.664  69.998  1.00  0.00    -0.201 C  
ENDROOT
BRANCH   2   3
HETATM    3  C   UNL     1     -10.995   8.208  71.394  1.00  0.00    -0.282 C  
HETATM    4  C   UNL     1     -11.762   9.177  71.922  1.00  0.00    -0.436 C  
BRANCH   4   5
HETATM    5  C   UNL     1     -12.847   9.902  71.179  1.00  0.00    -0.461 C  
BRANCH   5   6
HETATM    6  C   UNL     1     -12.678  11.394  71.227  1.00  0.00    -0.498 C  
HETATM    7  C   UNL     1     -12.221  12.155  70.217  1.00  0.00    -0.344 C  
BRANCH   7   8
HETATM    8  C   UNL     1     -11.769  11.604  68.895  1.00  0.00    -0.397 C  
BRANCH   8   9
HETATM    9  C   UNL     1     -10.624  12.380  68.313  1.00  0.00    -0.236 C  
HETATM   10  C   UNL     1     -10.735  13.299  67.338  1.00  0.00    -0.266 C  
BRANCH  10  11
HETATM   11  C   UNL     1     -12.050  13.723  66.747  1.00  0.00    -0.460 C  
BRANCH  11  12
HETATM   12  C   UNL     1     -12.286  13.139  65.359  1.00  0.00    -0.532 C  
BRANCH  12  13
HETATM   13  C   UNL     1     -10.960  12.997  64.610  1.00  0.00    -0.364 C  
BRANCH  13  14
HETATM   14  C   UNL     1     -10.976  11.768  63.708  1.00  0.00    -0.500 C  
BRANCH  14  15
HETATM   15  C   UNL     1      -9.954  10.726  64.162  1.00  0.00    -0.405 C  
BRANCH  15  16
HETATM   16  C   UNL     1     -10.365  10.125  65.505  1.00  0.00    -0.196 C  
BRANCH  16  17
HETATM   17  C   UNL     1      -9.170   9.543  66.253  1.00  0.00    -0.219 C  
HETATM   18  C   UNL     1      -9.466   8.157  66.783  1.00  0.00    -0.198 C  
HETATM   19  O   UNL     1     -10.517   7.552  66.640  1.00  0.00    -0.269 OA 
HETATM   20  O   UNL     1      -8.417   7.632  67.457  1.00  0.00    -0.116 OA 
ENDBRANCH  16  17
ENDBRANCH  15  16
ENDBRANCH  14  15
ENDBRANCH  13  14
ENDBRANCH  12  13
ENDBRANCH  11  12
ENDBRANCH  10  11
ENDBRANCH   8   9
ENDBRANCH   7   8
ENDBRANCH   5   6
ENDBRANCH   4   5
ENDBRANCH   2   3
TORSDOF 12
ENDMDL
MODEL      152
REMARK 921   NORMALIZED FREE ENERGY PREDICTED BY IDOCK:   -4.09 KCAL/MOL
REMARK 922        TOTAL FREE ENERGY PREDICTED BY IDOCK:   -8.81 KCAL/MOL
REMARK 923 INTER-LIGAND FREE ENERGY PREDICTED BY IDOCK:   -6.85 KCAL/MOL
REMARK 924 INTRA-LIGAND FREE ENERGY PREDICTED BY IDOCK:   -1.96 KCAL/MOL
REMARK 927      BINDING AFFINITY PREDICTED BY RF-SCORE:    0.00 PKD
ROOT
HETATM    1  C   UNL     1      -7.465  12.335  68.447  1.00  0.00    -0.122 C  
HETATM    2  C   UNL     1      -7.977  13.347  67.435  1.00  0.00    -0.170 C  
ENDROOT
BRANCH   2   3
HETATM    3  C   UNL     1      -9.301  13.926  67.845  1.00  0.00    -0.208 C  
HETATM    4  C   UNL     1     -10.202  14.483  67.019  1.00  0.00    -0.262 C  
BRANCH   4   5
HETATM    5  C   UNL     1     -10.008  14.651  65.539  1.00  0.00    -0.384 C  
BRANCH   5   6
HETATM    6  C   UNL     1     -11.253  15.128  64.847  1.00  0.00    -0.424 C  
HETATM    7  C   UNL     1     -12.282  14.346  64.477  1.00  0.00    -0.483 C  
BRANCH   7   8
HETATM    8  C   UNL     1     -12.310  12.857  64.670  1.00  0.00    -0.501 C  
BRANCH   8   9
HETATM    9  C   UNL     1     -11.718  12.119  63.505  1.00  0.00    -0.579 C  
HETATM   10  C   UNL     1     -10.541  11.468  63.524  1.00  0.00    -0.487 C  
BRANCH  10  11
HETATM   11  C   UNL     1      -9.690  11.337  64.755  1.00  0.00    -0.298 C  
BRANCH  11  12
HETATM   12  C   UNL     1      -9.941  10.034  65.507  1.00  0.00    -0.367 C  
BRANCH  12  13
HETATM   13  C   UNL     1     -10.430  10.326  66.926  1.00  0.00    -0.291 C  
BRANCH  13  14
HETATM   14  C   UNL     1     -10.619   9.033  67.712  1.00  0.00    -0.278 C  
BRANCH  14  15
HETATM   15  C   UNL     1     -10.358   7.805  66.841  1.00  0.00    -0.396 C  
BRANCH  15  16
HETATM   16  C   UNL     1     -11.152   6.606  67.356  1.00  0.00    -0.398 C  
BRANCH  16  17
HETATM   17  C   UNL     1     -10.289   5.679  68.206  1.00  0.00    -0.253 C  
HETATM   18  C   UNL     1     -10.727   5.684  69.654  1.00  0.00    -0.328 C  
HETATM   19  O   UNL     1     -11.654   6.331  70.114  1.00  0.00    -0.413 OA 
HETATM   20  O   UNL     1      -9.964   4.872  70.423  1.00  0.00    -0.210 OA 
ENDBRANCH  16  17
ENDBRANCH  15  16
ENDBRANCH  14  15
ENDBRANCH  13  14
ENDBRANCH  12  13
ENDBRANCH  11  12
ENDBRANCH  10  11
ENDBRANCH   8   9
ENDBRANCH   7   8
ENDBRANCH   5   6
ENDBRANCH   4   5
ENDBRANCH   2   3
TORSDOF 12
ENDMDL
MODEL      153
REMARK 921   NORMALIZED FREE ENERGY PREDICTED BY IDOCK:   -4.09 KCAL/MOL
REMARK 922        TOTAL FREE ENERGY PREDICTED BY IDOCK:   -8.80 KCAL/MOL
REMARK 923 INTER-LIGAND FREE ENERGY PREDICTED BY IDOCK:   -7.29 KCAL/MOL
REMARK 924 INTRA-LIGAND FREE ENERGY PREDICTED BY IDOCK:   -1.51 KCAL/MOL
REMARK 927      BINDING AFFINITY PREDICTED BY RF-SCORE:    0.00 PKD
ROOT
HETATM    1  C   UNL     1     -13.152  10.709  71.809  1.00  0.00    -0.571 C  
HETATM    2  C   UNL     1     -12.285  10.376  70.606  1.00  0.00    -0.441 C  
ENDROOT
BRANCH   2   3
HETATM    3  C   UNL     1     -10.958   9.802  71.016  1.00  0.00    -0.402 C  
HETATM    4  C   UNL     1     -10.631   8.499  71.004  1.00  0.00    -0.267 C  
BRANCH   4   5
HETATM    5  C   UNL     1     -11.566   7.392  70.606  1.00  0.00    -0.295 C  
BRANCH   5   6
HETATM    6  C   UNL     1     -10.837   6.162  70.147  1.00  0.00    -0.395 C  
HETATM    7  C   UNL     1     -10.631   5.818  68.864  1.00  0.00    -0.337 C  
BRANCH   7   8
HETATM    8  C   UNL     1     -11.147   6.607  67.694  1.00  0.00    -0.357 C  
BRANCH   8   9
HETATM    9  C   UNL     1     -10.040   7.176  66.856  1.00  0.00    -0.308 C  
HETATM   10  C   UNL     1      -9.816   8.489  66.666  1.00  0.00    -0.342 C  
BRANCH  10  11
HETATM   11  C   UNL     1     -10.617   9.569  67.336  1.00  0.00    -0.337 C  
BRANCH  11  12
HETATM   12  C   UNL     1     -10.341  10.952  66.756  1.00  0.00    -0.289 C  
BRANCH  12  13
HETATM   13  C   UNL     1     -11.197  12.003  67.462  1.00  0.00    -0.357 C  
BRANCH  13  14
HETATM   14  C   UNL     1     -11.564  13.135  66.506  1.00  0.00    -0.402 C  
BRANCH  14  15
HETATM   15  C   UNL     1     -11.692  14.469  67.240  1.00  0.00    -0.429 C  
BRANCH  15  16
HETATM   16  C   UNL     1     -11.045  15.589  66.429  1.00  0.00    -0.174 C  
BRANCH  16  17
HETATM   17  C   UNL     1     -10.511  16.701  67.327  1.00  0.00    -0.313 C  
HETATM   18  C   UNL     1     -10.287  17.982  66.554  1.00  0.00    -0.373 C  
HETATM   19  O   UNL     1     -10.503  18.139  65.363  1.00  0.00    -0.598 OA 
HETATM   20  O   UNL     1      -9.805  18.975  67.337  1.00  0.00    -0.306 OA 
ENDBRANCH  16  17
ENDBRANCH  15  16
ENDBRANCH  14  15
ENDBRANCH  13  14
ENDBRANCH  12  13
ENDBRANCH  11  12
ENDBRANCH  10  11
ENDBRANCH   8   9
ENDBRANCH   7   8
ENDBRANCH   5   6
ENDBRANCH   4   5
ENDBRANCH   2   3
TORSDOF 12
ENDMDL
MODEL      154
REMARK 921   NORMALIZED FREE ENERGY PREDICTED BY IDOCK:   -4.08 KCAL/MOL
REMARK 922        TOTAL FREE ENERGY PREDICTED BY IDOCK:   -8.79 KCAL/MOL
REMARK 923 INTER-LIGAND FREE ENERGY PREDICTED BY IDOCK:   -6.65 KCAL/MOL
REMARK 924 INTRA-LIGAND FREE ENERGY PREDICTED BY IDOCK:   -2.13 KCAL/MOL
REMARK 927      BINDING AFFINITY PREDICTED BY RF-SCORE:    0.00 PKD
ROOT
HETATM    1  C   UNL     1     -10.892  19.693  65.719  1.00  0.00    -0.405 C  
HETATM    2  C   UNL     1     -10.177  19.197  66.966  1.00  0.00    -0.479 C  
ENDROOT
BRANCH   2   3
HETATM    3  C   UNL     1      -9.107  20.152  67.413  1.00  0.00    -0.475 C  
HETATM    4  C   UNL     1      -7.792  19.885  67.465  1.00  0.00    -0.325 C  
BRANCH   4   5
HETATM    5  C   UNL     1      -7.179  18.560  67.113  1.00  0.00    -0.218 C  
BRANCH   5   6
HETATM    6  C   UNL     1      -6.618  17.850  68.312  1.00  0.00    -0.199 C  
HETATM    7  C   UNL     1      -7.274  16.934  69.046  1.00  0.00    -0.232 C  
BRANCH   7   8
HETATM    8  C   UNL     1      -8.695  16.520  68.791  1.00  0.00    -0.259 C  
BRANCH   8   9
HETATM    9  C   UNL     1      -8.799  15.103  68.310  1.00  0.00    -0.173 C  
HETATM   10  C   UNL     1      -9.062  14.738  67.042  1.00  0.00    -0.257 C  
BRANCH  10  11
HETATM   11  C   UNL     1      -9.217  15.720  65.915  1.00  0.00    -0.337 C  
BRANCH  11  12
HETATM   12  C   UNL     1     -10.650  15.804  65.401  1.00  0.00    -0.441 C  
BRANCH  12  13
HETATM   13  C   UNL     1     -11.585  14.997  66.303  1.00  0.00    -0.160 C  
BRANCH  13  14
HETATM   14  C   UNL     1     -12.196  13.826  65.541  1.00  0.00    -0.470 C  
BRANCH  14  15
HETATM   15  C   UNL     1     -11.894  12.493  66.226  1.00  0.00    -0.453 C  
BRANCH  15  16
HETATM   16  C   UNL     1     -11.904  12.659  67.744  1.00  0.00    -0.381 C  
BRANCH  16  17
HETATM   17  C   UNL     1     -11.436  11.393  68.454  1.00  0.00    -0.367 C  
HETATM   18  C   UNL     1     -11.672  11.470  69.946  1.00  0.00    -0.343 C  
HETATM   19  O   UNL     1     -12.178  12.412  70.537  1.00  0.00    -0.361 OA 
HETATM   20  O   UNL     1     -11.253  10.356  70.590  1.00  0.00    -0.319 OA 
ENDBRANCH  16  17
ENDBRANCH  15  16
ENDBRANCH  14  15
ENDBRANCH  13  14
ENDBRANCH  12  13
ENDBRANCH  11  12
ENDBRANCH  10  11
ENDBRANCH   8   9
ENDBRANCH   7   8
ENDBRANCH   5   6
ENDBRANCH   4   5
ENDBRANCH   2   3
TORSDOF 12
ENDMDL
MODEL      155
REMARK 921   NORMALIZED FREE ENERGY PREDICTED BY IDOCK:   -4.08 KCAL/MOL
REMARK 922        TOTAL FREE ENERGY PREDICTED BY IDOCK:   -8.78 KCAL/MOL
REMARK 923 INTER-LIGAND FREE ENERGY PREDICTED BY IDOCK:   -6.85 KCAL/MOL
REMARK 924 INTRA-LIGAND FREE ENERGY PREDICTED BY IDOCK:   -1.93 KCAL/MOL
REMARK 927      BINDING AFFINITY PREDICTED BY RF-SCORE:    0.00 PKD
ROOT
HETATM    1  C   UNL     1      -6.252  12.536  69.613  1.00  0.00    -0.126 C  
HETATM    2  C   UNL     1      -6.145  13.970  69.119  1.00  0.00    -0.098 C  
ENDROOT
BRANCH   2   3
HETATM    3  C   UNL     1      -7.387  14.759  69.423  1.00  0.00    -0.162 C  
HETATM    4  C   UNL     1      -7.602  16.041  69.086  1.00  0.00    -0.225 C  
BRANCH   4   5
HETATM    5  C   UNL     1      -6.607  16.911  68.372  1.00  0.00    -0.155 C  
BRANCH   5   6
HETATM    6  C   UNL     1      -5.715  17.660  69.321  1.00  0.00    -0.205 C  
HETATM    7  C   UNL     1      -5.893  18.936  69.707  1.00  0.00    -0.266 C  
BRANCH   7   8
HETATM    8  C   UNL     1      -7.001  19.814  69.201  1.00  0.00    -0.364 C  
BRANCH   8   9
HETATM    9  C   UNL     1      -6.593  20.616  68.000  1.00  0.00    -0.340 C  
HETATM   10  C   UNL     1      -7.113  20.474  66.768  1.00  0.00    -0.331 C  
BRANCH  10  11
HETATM   11  C   UNL     1      -8.236  19.528  66.449  1.00  0.00    -0.347 C  
BRANCH  11  12
HETATM   12  C   UNL     1      -9.604  20.100  66.805  1.00  0.00    -0.559 C  
BRANCH  12  13
HETATM   13  C   UNL     1     -10.609  18.969  67.032  1.00  0.00    -0.543 C  
BRANCH  13  14
HETATM   14  C   UNL     1     -10.120  17.673  66.393  1.00  0.00    -0.356 C  
BRANCH  14  15
HETATM   15  C   UNL     1     -10.626  16.448  67.154  1.00  0.00    -0.276 C  
BRANCH  15  16
HETATM   16  C   UNL     1     -10.245  15.166  66.416  1.00  0.00    -0.291 C  
BRANCH  16  17
HETATM   17  C   UNL     1     -10.767  15.165  64.982  1.00  0.00    -0.451 C  
HETATM   18  C   UNL     1     -12.086  14.434  64.869  1.00  0.00    -0.436 C  
HETATM   19  O   UNL     1     -12.687  13.907  65.792  1.00  0.00    -0.504 OA 
HETATM   20  O   UNL     1     -12.556  14.418  63.600  1.00  0.00    -0.817 OA 
ENDBRANCH  16  17
ENDBRANCH  15  16
ENDBRANCH  14  15
ENDBRANCH  13  14
ENDBRANCH  12  13
ENDBRANCH  11  12
ENDBRANCH  10  11
ENDBRANCH   8   9
ENDBRANCH   7   8
ENDBRANCH   5   6
ENDBRANCH   4   5
ENDBRANCH   2   3
TORSDOF 12
ENDMDL
MODEL      156
REMARK 921   NORMALIZED FREE ENERGY PREDICTED BY IDOCK:   -4.08 KCAL/MOL
REMARK 922        TOTAL FREE ENERGY PREDICTED BY IDOCK:   -8.78 KCAL/MOL
REMARK 923 INTER-LIGAND FREE ENERGY PREDICTED BY IDOCK:   -6.81 KCAL/MOL
REMARK 924 INTRA-LIGAND FREE ENERGY PREDICTED BY IDOCK:   -1.97 KCAL/MOL
REMARK 927      BINDING AFFINITY PREDICTED BY RF-SCORE:    0.00 PKD
ROOT
HETATM    1  C   UNL     1      -7.690  12.279  68.383  1.00  0.00    -0.141 C  
HETATM    2  C   UNL     1      -7.856  12.056  66.888  1.00  0.00    -0.095 C  
ENDROOT
BRANCH   2   3
HETATM    3  C   UNL     1      -7.827  10.596  66.536  1.00  0.00    -0.140 C  
HETATM    4  C   UNL     1      -8.827   9.909  65.960  1.00  0.00    -0.166 C  
BRANCH   4   5
HETATM    5  C   UNL     1     -10.165  10.493  65.605  1.00  0.00    -0.315 C  
BRANCH   5   6
HETATM    6  C   UNL     1     -10.219  10.984  64.186  1.00  0.00    -0.419 C  
HETATM    7  C   UNL     1     -10.314  12.273  63.816  1.00  0.00    -0.464 C  
BRANCH   7   8
HETATM    8  C   UNL     1     -10.424  13.415  64.786  1.00  0.00    -0.419 C  
BRANCH   8   9
HETATM    9  C   UNL     1     -11.849  13.793  65.063  1.00  0.00    -0.381 C  
HETATM   10  C   UNL     1     -12.399  13.874  66.288  1.00  0.00    -0.489 C  
BRANCH  10  11
HETATM   11  C   UNL     1     -11.624  13.661  67.558  1.00  0.00    -0.384 C  
BRANCH  11  12
HETATM   12  C   UNL     1     -11.692  12.221  68.053  1.00  0.00    -0.417 C  
BRANCH  12  13
HETATM   13  C   UNL     1     -11.205  12.134  69.500  1.00  0.00    -0.201 C  
BRANCH  13  14
HETATM   14  C   UNL     1     -12.360  12.347  70.474  1.00  0.00    -0.346 C  
BRANCH  14  15
HETATM   15  C   UNL     1     -12.726  11.054  71.201  1.00  0.00    -0.521 C  
BRANCH  15  16
HETATM   16  C   UNL     1     -11.667   9.983  70.951  1.00  0.00    -0.462 C  
BRANCH  16  17
HETATM   17  C   UNL     1     -11.754   8.852  71.971  1.00  0.00    -0.438 C  
HETATM   18  C   UNL     1     -10.384   8.424  72.448  1.00  0.00    -0.329 C  
HETATM   19  O   UNL     1      -9.323   8.909  72.087  1.00  0.00    -0.348 OA 
HETATM   20  O   UNL     1     -10.447   7.415  73.348  1.00  0.00    -0.335 OA 
ENDBRANCH  16  17
ENDBRANCH  15  16
ENDBRANCH  14  15
ENDBRANCH  13  14
ENDBRANCH  12  13
ENDBRANCH  11  12
ENDBRANCH  10  11
ENDBRANCH   8   9
ENDBRANCH   7   8
ENDBRANCH   5   6
ENDBRANCH   4   5
ENDBRANCH   2   3
TORSDOF 12
ENDMDL
MODEL      157
REMARK 921   NORMALIZED FREE ENERGY PREDICTED BY IDOCK:   -4.07 KCAL/MOL
REMARK 922        TOTAL FREE ENERGY PREDICTED BY IDOCK:   -8.77 KCAL/MOL
REMARK 923 INTER-LIGAND FREE ENERGY PREDICTED BY IDOCK:   -6.65 KCAL/MOL
REMARK 924 INTRA-LIGAND FREE ENERGY PREDICTED BY IDOCK:   -2.12 KCAL/MOL
REMARK 927      BINDING AFFINITY PREDICTED BY RF-SCORE:    0.00 PKD
ROOT
HETATM    1  C   UNL     1     -12.114  12.480  69.974  1.00  0.00    -0.337 C  
HETATM    2  C   UNL     1     -11.912  11.462  68.862  1.00  0.00    -0.371 C  
ENDROOT
BRANCH   2   3
HETATM    3  C   UNL     1     -10.455  11.241  68.566  1.00  0.00    -0.218 C  
HETATM    4  C   UNL     1      -9.936  10.960  67.360  1.00  0.00    -0.215 C  
BRANCH   4   5
HETATM    5  C   UNL     1     -10.744  10.785  66.106  1.00  0.00    -0.187 C  
BRANCH   5   6
HETATM    6  C   UNL     1      -9.977  11.161  64.870  1.00  0.00    -0.331 C  
HETATM    7  C   UNL     1     -10.483  11.826  63.817  1.00  0.00    -0.466 C  
BRANCH   7   8
HETATM    8  C   UNL     1     -11.919  12.252  63.710  1.00  0.00    -0.609 C  
BRANCH   8   9
HETATM    9  C   UNL     1     -12.066  13.740  63.584  1.00  0.00    -0.330 C  
HETATM   10  C   UNL     1     -12.141  14.596  64.620  1.00  0.00    -0.466 C  
BRANCH  10  11
HETATM   11  C   UNL     1     -12.014  14.170  66.055  1.00  0.00    -0.427 C  
BRANCH  11  12
HETATM   12  C   UNL     1     -10.850  14.848  66.769  1.00  0.00    -0.320 C  
BRANCH  12  13
HETATM   13  C   UNL     1     -11.308  15.409  68.116  1.00  0.00    -0.353 C  
BRANCH  13  14
HETATM   14  C   UNL     1     -10.790  16.829  68.317  1.00  0.00    -0.366 C  
BRANCH  14  15
HETATM   15  C   UNL     1     -10.408  17.479  66.988  1.00  0.00    -0.324 C  
BRANCH  15  16
HETATM   16  C   UNL     1      -9.108  18.267  67.134  1.00  0.00    -0.264 C  
BRANCH  16  17
HETATM   17  C   UNL     1      -8.009  17.430  67.782  1.00  0.00    -0.208 C  
HETATM   18  C   UNL     1      -7.191  18.245  68.759  1.00  0.00    -0.279 C  
HETATM   19  O   UNL     1      -7.368  19.423  69.023  1.00  0.00    -0.353 OA 
HETATM   20  O   UNL     1      -6.207  17.516  69.335  1.00  0.00    -0.229 OA 
ENDBRANCH  16  17
ENDBRANCH  15  16
ENDBRANCH  14  15
ENDBRANCH  13  14
ENDBRANCH  12  13
ENDBRANCH  11  12
ENDBRANCH  10  11
ENDBRANCH   8   9
ENDBRANCH   7   8
ENDBRANCH   5   6
ENDBRANCH   4   5
ENDBRANCH   2   3
TORSDOF 12
ENDMDL
MODEL      158
REMARK 921   NORMALIZED FREE ENERGY PREDICTED BY IDOCK:   -4.07 KCAL/MOL
REMARK 922        TOTAL FREE ENERGY PREDICTED BY IDOCK:   -8.76 KCAL/MOL
REMARK 923 INTER-LIGAND FREE ENERGY PREDICTED BY IDOCK:   -6.96 KCAL/MOL
REMARK 924 INTRA-LIGAND FREE ENERGY PREDICTED BY IDOCK:   -1.81 KCAL/MOL
REMARK 927      BINDING AFFINITY PREDICTED BY RF-SCORE:    0.00 PKD
ROOT
HETATM    1  C   UNL     1     -11.989  12.111  63.661  1.00  0.00    -0.628 C  
HETATM    2  C   UNL     1     -12.534  13.021  64.750  1.00  0.00    -0.485 C  
ENDROOT
BRANCH   2   3
HETATM    3  C   UNL     1     -12.398  14.472  64.385  1.00  0.00    -0.437 C  
HETATM    4  C   UNL     1     -11.513  15.333  64.914  1.00  0.00    -0.343 C  
BRANCH   4   5
HETATM    5  C   UNL     1     -10.531  14.984  65.996  1.00  0.00    -0.326 C  
BRANCH   5   6
HETATM    6  C   UNL     1     -11.051  15.304  67.369  1.00  0.00    -0.326 C  
HETATM    7  C   UNL     1     -10.996  14.478  68.429  1.00  0.00    -0.255 C  
BRANCH   7   8
HETATM    8  C   UNL     1     -10.438  13.085  68.375  1.00  0.00    -0.261 C  
BRANCH   8   9
HETATM    9  C   UNL     1     -11.505  12.048  68.187  1.00  0.00    -0.383 C  
HETATM   10  C   UNL     1     -11.311  10.835  67.639  1.00  0.00    -0.328 C  
BRANCH  10  11
HETATM   11  C   UNL     1      -9.965  10.331  67.205  1.00  0.00    -0.243 C  
BRANCH  11  12
HETATM   12  C   UNL     1     -10.060   9.223  66.161  1.00  0.00    -0.304 C  
BRANCH  12  13
HETATM   13  C   UNL     1      -9.684   7.877  66.780  1.00  0.00    -0.303 C  
BRANCH  13  14
HETATM   14  C   UNL     1     -10.932   7.087  67.161  1.00  0.00    -0.393 C  
BRANCH  14  15
HETATM   15  C   UNL     1     -10.635   6.065  68.258  1.00  0.00    -0.325 C  
BRANCH  15  16
HETATM   16  C   UNL     1     -11.401   6.412  69.533  1.00  0.00    -0.460 C  
BRANCH  16  17
HETATM   17  C   UNL     1     -10.888   7.701  70.166  1.00  0.00    -0.255 C  
HETATM   18  C   UNL     1     -11.925   8.328  71.072  1.00  0.00    -0.241 C  
HETATM   19  O   UNL     1     -13.038   7.878  71.294  1.00  0.00    -0.279 OA 
HETATM   20  O   UNL     1     -11.486   9.478  71.634  1.00  0.00    -0.381 OA 
ENDBRANCH  16  17
ENDBRANCH  15  16
ENDBRANCH  14  15
ENDBRANCH  13  14
ENDBRANCH  12  13
ENDBRANCH  11  12
ENDBRANCH  10  11
ENDBRANCH   8   9
ENDBRANCH   7   8
ENDBRANCH   5   6
ENDBRANCH   4   5
ENDBRANCH   2   3
TORSDOF 12
ENDMDL
MODEL      159
REMARK 921   NORMALIZED FREE ENERGY PREDICTED BY IDOCK:   -4.05 KCAL/MOL
REMARK 922        TOTAL FREE ENERGY PREDICTED BY IDOCK:   -8.74 KCAL/MOL
REMARK 923 INTER-LIGAND FREE ENERGY PREDICTED BY IDOCK:   -6.69 KCAL/MOL
REMARK 924 INTRA-LIGAND FREE ENERGY PREDICTED BY IDOCK:   -2.05 KCAL/MOL
REMARK 927      BINDING AFFINITY PREDICTED BY RF-SCORE:    0.00 PKD
ROOT
HETATM    1  C   UNL     1      -8.985  16.008  66.109  1.00  0.00    -0.381 C  
HETATM    2  C   UNL     1     -10.305  16.754  66.215  1.00  0.00    -0.316 C  
ENDROOT
BRANCH   2   3
HETATM    3  C   UNL     1     -10.254  17.831  67.263  1.00  0.00    -0.350 C  
HETATM    4  C   UNL     1     -10.236  17.630  68.591  1.00  0.00    -0.377 C  
BRANCH   4   5
HETATM    5  C   UNL     1     -10.300  16.280  69.248  1.00  0.00    -0.277 C  
BRANCH   5   6
HETATM    6  C   UNL     1     -11.708  15.777  69.388  1.00  0.00    -0.379 C  
HETATM    7  C   UNL     1     -12.195  14.666  68.807  1.00  0.00    -0.154 C  
BRANCH   7   8
HETATM    8  C   UNL     1     -11.397  13.787  67.887  1.00  0.00    -0.328 C  
BRANCH   8   9
HETATM    9  C   UNL     1     -12.092  13.548  66.579  1.00  0.00    -0.460 C  
HETATM   10  C   UNL     1     -11.562  12.886  65.536  1.00  0.00    -0.395 C  
BRANCH  10  11
HETATM   11  C   UNL     1     -10.211  12.229  65.575  1.00  0.00    -0.296 C  
BRANCH  11  12
HETATM   12  C   UNL     1     -10.245  10.785  65.087  1.00  0.00    -0.365 C  
BRANCH  12  13
HETATM   13  C   UNL     1      -9.608   9.860  66.125  1.00  0.00    -0.275 C  
BRANCH  13  14
HETATM   14  C   UNL     1      -9.628  10.501  67.509  1.00  0.00    -0.181 C  
BRANCH  14  15
HETATM   15  C   UNL     1     -10.806   9.998  68.342  1.00  0.00    -0.277 C  
BRANCH  15  16
HETATM   16  C   UNL     1     -10.495  10.115  69.832  1.00  0.00    -0.322 C  
BRANCH  16  17
HETATM   17  C   UNL     1     -11.663  10.717  70.608  1.00  0.00    -0.454 C  
HETATM   18  C   UNL     1     -12.229   9.737  71.611  1.00  0.00    -0.404 C  
HETATM   19  O   UNL     1     -11.821   8.603  71.804  1.00  0.00    -0.293 OA 
HETATM   20  O   UNL     1     -13.272  10.255  72.301  1.00  0.00    -0.409 OA 
ENDBRANCH  16  17
ENDBRANCH  15  16
ENDBRANCH  14  15
ENDBRANCH  13  14
ENDBRANCH  12  13
ENDBRANCH  11  12
ENDBRANCH  10  11
ENDBRANCH   8   9
ENDBRANCH   7   8
ENDBRANCH   5   6
ENDBRANCH   4   5
ENDBRANCH   2   3
TORSDOF 12
ENDMDL
MODEL      160
REMARK 921   NORMALIZED FREE ENERGY PREDICTED BY IDOCK:   -4.05 KCAL/MOL
REMARK 922        TOTAL FREE ENERGY PREDICTED BY IDOCK:   -8.73 KCAL/MOL
REMARK 923 INTER-LIGAND FREE ENERGY PREDICTED BY IDOCK:   -7.00 KCAL/MOL
REMARK 924 INTRA-LIGAND FREE ENERGY PREDICTED BY IDOCK:   -1.73 KCAL/MOL
REMARK 927      BINDING AFFINITY PREDICTED BY RF-SCORE:    0.00 PKD
ROOT
HETATM    1  C   UNL     1     -11.058   6.157  68.643  1.00  0.00    -0.378 C  
HETATM    2  C   UNL     1     -10.956   6.636  67.204  1.00  0.00    -0.478 C  
ENDROOT
BRANCH   2   3
HETATM    3  C   UNL     1      -9.570   7.109  66.871  1.00  0.00    -0.216 C  
HETATM    4  C   UNL     1      -9.140   8.380  66.933  1.00  0.00    -0.179 C  
BRANCH   4   5
HETATM    5  C   UNL     1     -10.000   9.550  67.317  1.00  0.00    -0.244 C  
BRANCH   5   6
HETATM    6  C   UNL     1      -9.382  10.866  66.940  1.00  0.00    -0.186 C  
HETATM    7  C   UNL     1      -9.436  11.424  65.717  1.00  0.00    -0.256 C  
BRANCH   7   8
HETATM    8  C   UNL     1     -10.095  10.779  64.533  1.00  0.00    -0.415 C  
BRANCH   8   9
HETATM    9  C   UNL     1     -10.415  11.766  63.449  1.00  0.00    -0.485 C  
HETATM   10  C   UNL     1     -11.570  12.447  63.346  1.00  0.00    -0.541 C  
BRANCH  10  11
HETATM   11  C   UNL     1     -12.676  12.358  64.359  1.00  0.00    -0.434 C  
BRANCH  11  12
HETATM   12  C   UNL     1     -12.613  13.473  65.397  1.00  0.00    -0.531 C  
BRANCH  12  13
HETATM   13  C   UNL     1     -11.865  14.682  64.833  1.00  0.00    -0.403 C  
BRANCH  13  14
HETATM   14  C   UNL     1     -10.815  15.179  65.821  1.00  0.00    -0.358 C  
BRANCH  14  15
HETATM   15  C   UNL     1     -10.982  14.526  67.192  1.00  0.00    -0.304 C  
BRANCH  15  16
HETATM   16  C   UNL     1     -10.375  15.408  68.281  1.00  0.00    -0.238 C  
BRANCH  16  17
HETATM   17  C   UNL     1     -10.959  16.818  68.257  1.00  0.00    -0.327 C  
HETATM   18  C   UNL     1      -9.881  17.869  68.399  1.00  0.00    -0.355 C  
HETATM   19  O   UNL     1      -8.685  17.650  68.514  1.00  0.00    -0.280 OA 
HETATM   20  O   UNL     1     -10.386  19.125  68.388  1.00  0.00    -0.390 OA 
ENDBRANCH  16  17
ENDBRANCH  15  16
ENDBRANCH  14  15
ENDBRANCH  13  14
ENDBRANCH  12  13
ENDBRANCH  11  12
ENDBRANCH  10  11
ENDBRANCH   8   9
ENDBRANCH   7   8
ENDBRANCH   5   6
ENDBRANCH   4   5
ENDBRANCH   2   3
TORSDOF 12
ENDMDL
MODEL      161
REMARK 921   NORMALIZED FREE ENERGY PREDICTED BY IDOCK:   -4.05 KCAL/MOL
REMARK 922        TOTAL FREE ENERGY PREDICTED BY IDOCK:   -8.73 KCAL/MOL
REMARK 923 INTER-LIGAND FREE ENERGY PREDICTED BY IDOCK:   -6.28 KCAL/MOL
REMARK 924 INTRA-LIGAND FREE ENERGY PREDICTED BY IDOCK:   -2.45 KCAL/MOL
REMARK 927      BINDING AFFINITY PREDICTED BY RF-SCORE:    0.00 PKD
ROOT
HETATM    1  C   UNL     1     -11.217   9.693  71.072  1.00  0.00    -0.445 C  
HETATM    2  C   UNL     1     -12.537  10.327  70.663  1.00  0.00    -0.391 C  
ENDROOT
BRANCH   2   3
HETATM    3  C   UNL     1     -12.673  11.725  71.195  1.00  0.00    -0.405 C  
HETATM    4  C   UNL     1     -12.277  12.844  70.565  1.00  0.00    -0.395 C  
BRANCH   4   5
HETATM    5  C   UNL     1     -11.595  12.871  69.227  1.00  0.00    -0.368 C  
BRANCH   5   6
HETATM    6  C   UNL     1     -11.791  14.174  68.508  1.00  0.00    -0.390 C  
HETATM    7  C   UNL     1     -11.946  14.310  67.179  1.00  0.00    -0.449 C  
BRANCH   7   8
HETATM    8  C   UNL     1     -11.901  13.162  66.212  1.00  0.00    -0.455 C  
BRANCH   8   9
HETATM    9  C   UNL     1     -11.213  13.524  64.928  1.00  0.00    -0.353 C  
HETATM   10  C   UNL     1     -10.739  12.637  64.034  1.00  0.00    -0.457 C  
BRANCH  10  11
HETATM   11  C   UNL     1     -10.904  11.151  64.177  1.00  0.00    -0.355 C  
BRANCH  11  12
HETATM   12  C   UNL     1      -9.592  10.394  64.001  1.00  0.00    -0.376 C  
BRANCH  12  13
HETATM   13  C   UNL     1      -9.279   9.577  65.256  1.00  0.00    -0.307 C  
BRANCH  13  14
HETATM   14  C   UNL     1     -10.255   9.914  66.379  1.00  0.00    -0.292 C  
BRANCH  14  15
HETATM   15  C   UNL     1      -9.521  10.250  67.677  1.00  0.00    -0.169 C  
BRANCH  15  16
HETATM   16  C   UNL     1      -8.253  11.048  67.381  1.00  0.00    -0.122 C  
BRANCH  16  17
HETATM   17  C   UNL     1      -8.532  12.547  67.312  1.00  0.00    -0.185 C  
HETATM   18  C   UNL     1      -7.709  13.313  68.324  1.00  0.00    -0.141 C  
HETATM   19  O   UNL     1      -6.909  12.824  69.106  1.00  0.00    -0.102 OA 
HETATM   20  O   UNL     1      -7.953  14.644  68.280  1.00  0.00    -0.120 OA 
ENDBRANCH  16  17
ENDBRANCH  15  16
ENDBRANCH  14  15
ENDBRANCH  13  14
ENDBRANCH  12  13
ENDBRANCH  11  12
ENDBRANCH  10  11
ENDBRANCH   8   9
ENDBRANCH   7   8
ENDBRANCH   5   6
ENDBRANCH   4   5
ENDBRANCH   2   3
TORSDOF 12
ENDMDL
MODEL      162
REMARK 921   NORMALIZED FREE ENERGY PREDICTED BY IDOCK:   -4.04 KCAL/MOL
REMARK 922        TOTAL FREE ENERGY PREDICTED BY IDOCK:   -8.72 KCAL/MOL
REMARK 923 INTER-LIGAND FREE ENERGY PREDICTED BY IDOCK:   -6.97 KCAL/MOL
REMARK 924 INTRA-LIGAND FREE ENERGY PREDICTED BY IDOCK:   -1.75 KCAL/MOL
REMARK 927      BINDING AFFINITY PREDICTED BY RF-SCORE:    0.00 PKD
ROOT
HETATM    1  C   UNL     1     -11.047  10.400  67.461  1.00  0.00    -0.336 C  
HETATM    2  C   UNL     1     -10.554   9.172  68.210  1.00  0.00    -0.223 C  
ENDROOT
BRANCH   2   3
HETATM    3  C   UNL     1     -10.492   7.963  67.320  1.00  0.00    -0.390 C  
HETATM    4  C   UNL     1     -10.812   6.709  67.679  1.00  0.00    -0.393 C  
BRANCH   4   5
HETATM    5  C   UNL     1     -11.253   6.306  69.058  1.00  0.00    -0.415 C  
BRANCH   5   6
HETATM    6  C   UNL     1     -10.225   5.475  69.770  1.00  0.00    -0.336 C  
HETATM    7  C   UNL     1     -10.104   5.370  71.105  1.00  0.00    -0.276 C  
BRANCH   7   8
HETATM    8  C   UNL     1     -10.967   6.115  72.083  1.00  0.00    -0.307 C  
BRANCH   8   9
HETATM    9  C   UNL     1     -10.411   7.468  72.420  1.00  0.00    -0.291 C  
HETATM   10  C   UNL     1     -10.975   8.639  72.074  1.00  0.00    -0.432 C  
BRANCH  10  11
HETATM   11  C   UNL     1     -12.290   8.742  71.354  1.00  0.00    -0.353 C  
BRANCH  11  12
HETATM   12  C   UNL     1     -13.134   9.917  71.838  1.00  0.00    -0.559 C  
BRANCH  12  13
HETATM   13  C   UNL     1     -12.758  11.188  71.076  1.00  0.00    -0.476 C  
BRANCH  13  14
HETATM   14  C   UNL     1     -13.083  12.430  71.900  1.00  0.00    -0.471 C  
BRANCH  14  15
HETATM   15  C   UNL     1     -12.691  13.710  71.162  1.00  0.00    -0.432 C  
BRANCH  15  16
HETATM   16  C   UNL     1     -12.107  13.378  69.791  1.00  0.00    -0.374 C  
BRANCH  16  17
HETATM   17  C   UNL     1     -12.278  14.533  68.809  1.00  0.00    -0.173 C  
HETATM   18  C   UNL     1     -11.034  14.745  67.975  1.00  0.00    -0.271 C  
HETATM   19  O   UNL     1     -10.009  14.086  68.050  1.00  0.00    -0.223 OA 
HETATM   20  O   UNL     1     -11.169  15.773  67.106  1.00  0.00    -0.246 OA 
ENDBRANCH  16  17
ENDBRANCH  15  16
ENDBRANCH  14  15
ENDBRANCH  13  14
ENDBRANCH  12  13
ENDBRANCH  11  12
ENDBRANCH  10  11
ENDBRANCH   8   9
ENDBRANCH   7   8
ENDBRANCH   5   6
ENDBRANCH   4   5
ENDBRANCH   2   3
TORSDOF 12
ENDMDL
MODEL      163
REMARK 921   NORMALIZED FREE ENERGY PREDICTED BY IDOCK:   -4.04 KCAL/MOL
REMARK 922        TOTAL FREE ENERGY PREDICTED BY IDOCK:   -8.72 KCAL/MOL
REMARK 923 INTER-LIGAND FREE ENERGY PREDICTED BY IDOCK:   -7.40 KCAL/MOL
REMARK 924 INTRA-LIGAND FREE ENERGY PREDICTED BY IDOCK:   -1.32 KCAL/MOL
REMARK 927      BINDING AFFINITY PREDICTED BY RF-SCORE:    0.00 PKD
ROOT
HETATM    1  C   UNL     1      -9.022   4.039  66.471  1.00  0.00    -0.131 C  
HETATM    2  C   UNL     1      -9.266   5.530  66.305  1.00  0.00    -0.161 C  
ENDROOT
BRANCH   2   3
HETATM    3  C   UNL     1     -10.652   5.920  66.736  1.00  0.00    -0.368 C  
HETATM    4  C   UNL     1     -10.991   6.393  67.947  1.00  0.00    -0.416 C  
BRANCH   4   5
HETATM    5  C   UNL     1     -10.031   6.576  69.087  1.00  0.00    -0.163 C  
BRANCH   5   6
HETATM    6  C   UNL     1     -10.318   5.649  70.234  1.00  0.00    -0.336 C  
HETATM    7  C   UNL     1     -11.265   5.844  71.168  1.00  0.00    -0.281 C  
BRANCH   7   8
HETATM    8  C   UNL     1     -12.152   7.054  71.219  1.00  0.00    -0.403 C  
BRANCH   8   9
HETATM    9  C   UNL     1     -11.636   8.102  72.161  1.00  0.00    -0.417 C  
HETATM   10  C   UNL     1     -11.138   9.295  71.787  1.00  0.00    -0.398 C  
BRANCH  10  11
HETATM   11  C   UNL     1     -11.102   9.764  70.361  1.00  0.00    -0.367 C  
BRANCH  11  12
HETATM   12  C   UNL     1     -12.314  10.612  69.990  1.00  0.00    -0.341 C  
BRANCH  12  13
HETATM   13  C   UNL     1     -12.059  12.081  70.330  1.00  0.00    -0.395 C  
BRANCH  13  14
HETATM   14  C   UNL     1     -11.369  12.794  69.171  1.00  0.00    -0.337 C  
BRANCH  14  15
HETATM   15  C   UNL     1     -11.760  12.184  67.826  1.00  0.00    -0.390 C  
BRANCH  15  16
HETATM   16  C   UNL     1     -11.985  13.281  66.788  1.00  0.00    -0.438 C  
BRANCH  16  17
HETATM   17  C   UNL     1     -12.280  12.702  65.408  1.00  0.00    -0.517 C  
HETATM   18  C   UNL     1     -12.233  13.766  64.334  1.00  0.00    -0.399 C  
HETATM   19  O   UNL     1     -11.986  14.948  64.517  1.00  0.00    -0.447 OA 
HETATM   20  O   UNL     1     -12.502  13.267  63.105  1.00  0.00    -0.696 OA 
ENDBRANCH  16  17
ENDBRANCH  15  16
ENDBRANCH  14  15
ENDBRANCH  13  14
ENDBRANCH  12  13
ENDBRANCH  11  12
ENDBRANCH  10  11
ENDBRANCH   8   9
ENDBRANCH   7   8
ENDBRANCH   5   6
ENDBRANCH   4   5
ENDBRANCH   2   3
TORSDOF 12
ENDMDL
MODEL      164
REMARK 921   NORMALIZED FREE ENERGY PREDICTED BY IDOCK:   -4.03 KCAL/MOL
REMARK 922        TOTAL FREE ENERGY PREDICTED BY IDOCK:   -8.71 KCAL/MOL
REMARK 923 INTER-LIGAND FREE ENERGY PREDICTED BY IDOCK:   -7.54 KCAL/MOL
REMARK 924 INTRA-LIGAND FREE ENERGY PREDICTED BY IDOCK:   -1.16 KCAL/MOL
REMARK 927      BINDING AFFINITY PREDICTED BY RF-SCORE:    0.00 PKD
ROOT
HETATM    1  C   UNL     1      -9.290   2.590  70.186  1.00  0.00    -0.187 C  
HETATM    2  C   UNL     1      -9.572   4.082  70.120  1.00  0.00    -0.270 C  
ENDROOT
BRANCH   2   3
HETATM    3  C   UNL     1      -9.527   4.719  71.480  1.00  0.00    -0.209 C  
HETATM    4  C   UNL     1     -10.013   5.932  71.793  1.00  0.00    -0.200 C  
BRANCH   4   5
HETATM    5  C   UNL     1     -10.654   6.870  70.811  1.00  0.00    -0.245 C  
BRANCH   5   6
HETATM    6  C   UNL     1     -12.143   6.687  70.729  1.00  0.00    -0.364 C  
HETATM    7  C   UNL     1     -13.050   7.407  71.411  1.00  0.00    -0.401 C  
BRANCH   7   8
HETATM    8  C   UNL     1     -12.694   8.482  72.397  1.00  0.00    -0.394 C  
BRANCH   8   9
HETATM    9  C   UNL     1     -13.195   9.832  71.976  1.00  0.00    -0.557 C  
HETATM   10  C   UNL     1     -12.539  10.677  71.160  1.00  0.00    -0.526 C  
BRANCH  10  11
HETATM   11  C   UNL     1     -11.232  10.339  70.500  1.00  0.00    -0.408 C  
BRANCH  11  12
HETATM   12  C   UNL     1     -11.239  10.623  69.002  1.00  0.00    -0.324 C  
BRANCH  12  13
HETATM   13  C   UNL     1     -11.917  11.964  68.719  1.00  0.00    -0.307 C  
BRANCH  13  14
HETATM   14  C   UNL     1     -11.641  12.421  67.291  1.00  0.00    -0.435 C  
BRANCH  14  15
HETATM   15  C   UNL     1     -11.746  13.940  67.158  1.00  0.00    -0.419 C  
BRANCH  15  16
HETATM   16  C   UNL     1     -11.617  14.358  65.695  1.00  0.00    -0.347 C  
BRANCH  16  17
HETATM   17  C   UNL     1     -10.613  13.489  64.945  1.00  0.00    -0.409 C  
HETATM   18  C   UNL     1     -11.247  12.805  63.754  1.00  0.00    -0.443 C  
HETATM   19  O   UNL     1     -12.411  12.921  63.406  1.00  0.00    -0.695 OA 
HETATM   20  O   UNL     1     -10.368  12.023  63.084  1.00  0.00    -0.404 OA 
ENDBRANCH  16  17
ENDBRANCH  15  16
ENDBRANCH  14  15
ENDBRANCH  13  14
ENDBRANCH  12  13
ENDBRANCH  11  12
ENDBRANCH  10  11
ENDBRANCH   8   9
ENDBRANCH   7   8
ENDBRANCH   5   6
ENDBRANCH   4   5
ENDBRANCH   2   3
TORSDOF 12
ENDMDL
MODEL      165
REMARK 921   NORMALIZED FREE ENERGY PREDICTED BY IDOCK:   -4.03 KCAL/MOL
REMARK 922        TOTAL FREE ENERGY PREDICTED BY IDOCK:   -8.70 KCAL/MOL
REMARK 923 INTER-LIGAND FREE ENERGY PREDICTED BY IDOCK:   -7.35 KCAL/MOL
REMARK 924 INTRA-LIGAND FREE ENERGY PREDICTED BY IDOCK:   -1.35 KCAL/MOL
REMARK 927      BINDING AFFINITY PREDICTED BY RF-SCORE:    0.00 PKD
ROOT
HETATM    1  C   UNL     1      -7.472  20.304  66.745  1.00  0.00    -0.333 C  
HETATM    2  C   UNL     1      -8.909  20.295  67.242  1.00  0.00    -0.454 C  
ENDROOT
BRANCH   2   3
HETATM    3  C   UNL     1      -9.868  19.871  66.166  1.00  0.00    -0.562 C  
HETATM    4  C   UNL     1     -10.533  18.705  66.126  1.00  0.00    -0.473 C  
BRANCH   4   5
HETATM    5  C   UNL     1     -10.393  17.610  67.146  1.00  0.00    -0.343 C  
BRANCH   5   6
HETATM    6  C   UNL     1      -9.202  16.733  66.886  1.00  0.00    -0.249 C  
HETATM    7  C   UNL     1      -9.181  15.685  66.043  1.00  0.00    -0.374 C  
BRANCH   7   8
HETATM    8  C   UNL     1     -10.377  15.215  65.266  1.00  0.00    -0.425 C  
BRANCH   8   9
HETATM    9  C   UNL     1     -10.304  13.754  64.934  1.00  0.00    -0.420 C  
HETATM   10  C   UNL     1     -11.034  12.793  65.529  1.00  0.00    -0.310 C  
BRANCH  10  11
HETATM   11  C   UNL     1     -12.081  13.075  66.568  1.00  0.00    -0.410 C  
BRANCH  11  12
HETATM   12  C   UNL     1     -11.486  13.332  67.948  1.00  0.00    -0.341 C  
BRANCH  12  13
HETATM   13  C   UNL     1     -10.555  12.186  68.346  1.00  0.00    -0.243 C  
BRANCH  13  14
HETATM   14  C   UNL     1     -11.354  10.931  68.683  1.00  0.00    -0.360 C  
BRANCH  14  15
HETATM   15  C   UNL     1     -12.522  11.243  69.617  1.00  0.00    -0.160 C  
BRANCH  15  16
HETATM   16  C   UNL     1     -12.087  11.118  71.076  1.00  0.00    -0.380 C  
BRANCH  16  17
HETATM   17  C   UNL     1     -12.501   9.779  71.676  1.00  0.00    -0.500 C  
HETATM   18  C   UNL     1     -11.309   8.877  71.904  1.00  0.00    -0.376 C  
HETATM   19  O   UNL     1     -10.147   9.159  71.656  1.00  0.00    -0.327 OA 
HETATM   20  O   UNL     1     -11.663   7.681  72.429  1.00  0.00    -0.311 OA 
ENDBRANCH  16  17
ENDBRANCH  15  16
ENDBRANCH  14  15
ENDBRANCH  13  14
ENDBRANCH  12  13
ENDBRANCH  11  12
ENDBRANCH  10  11
ENDBRANCH   8   9
ENDBRANCH   7   8
ENDBRANCH   5   6
ENDBRANCH   4   5
ENDBRANCH   2   3
TORSDOF 12
ENDMDL
MODEL      166
REMARK 921   NORMALIZED FREE ENERGY PREDICTED BY IDOCK:   -4.03 KCAL/MOL
REMARK 922        TOTAL FREE ENERGY PREDICTED BY IDOCK:   -8.70 KCAL/MOL
REMARK 923 INTER-LIGAND FREE ENERGY PREDICTED BY IDOCK:   -6.88 KCAL/MOL
REMARK 924 INTRA-LIGAND FREE ENERGY PREDICTED BY IDOCK:   -1.82 KCAL/MOL
REMARK 927      BINDING AFFINITY PREDICTED BY RF-SCORE:    0.00 PKD
ROOT
HETATM    1  C   UNL     1     -14.205   7.343  71.559  1.00  0.00    -0.571 C  
HETATM    2  C   UNL     1     -14.100   8.859  71.519  1.00  0.00    -0.344 C  
ENDROOT
BRANCH   2   3
HETATM    3  C   UNL     1     -12.845   9.349  72.184  1.00  0.00    -0.480 C  
HETATM    4  C   UNL     1     -11.677   9.596  71.568  1.00  0.00    -0.472 C  
BRANCH   4   5
HETATM    5  C   UNL     1     -11.428   9.384  70.102  1.00  0.00    -0.175 C  
BRANCH   5   6
HETATM    6  C   UNL     1     -10.853  10.601  69.435  1.00  0.00    -0.289 C  
HETATM    7  C   UNL     1      -9.543  10.828  69.234  1.00  0.00    -0.121 C  
BRANCH   7   8
HETATM    8  C   UNL     1      -8.455   9.901  69.695  1.00  0.00    -0.198 C  
BRANCH   8   9
HETATM    9  C   UNL     1      -7.497   9.554  68.593  1.00  0.00    -0.079 C  
HETATM   10  C   UNL     1      -7.648   8.526  67.739  1.00  0.00    -0.098 C  
BRANCH  10  11
HETATM   11  C   UNL     1      -8.850   7.625  67.734  1.00  0.00    -0.125 C  
BRANCH  11  12
HETATM   12  C   UNL     1      -9.959   8.129  66.817  1.00  0.00    -0.349 C  
BRANCH  12  13
HETATM   13  C   UNL     1      -9.362   8.881  65.627  1.00  0.00    -0.259 C  
BRANCH  13  14
HETATM   14  C   UNL     1     -10.084  10.207  65.406  1.00  0.00    -0.342 C  
BRANCH  14  15
HETATM   15  C   UNL     1      -9.347  11.084  64.394  1.00  0.00    -0.223 C  
BRANCH  15  16
HETATM   16  C   UNL     1     -10.333  11.975  63.643  1.00  0.00    -0.482 C  
BRANCH  16  17
HETATM   17  C   UNL     1     -10.899  13.072  64.539  1.00  0.00    -0.390 C  
HETATM   18  C   UNL     1     -12.412  13.088  64.512  1.00  0.00    -0.363 C  
HETATM   19  O   UNL     1     -13.118  12.327  63.870  1.00  0.00    -0.772 OA 
HETATM   20  O   UNL     1     -12.928  14.062  65.297  1.00  0.00    -0.743 OA 
ENDBRANCH  16  17
ENDBRANCH  15  16
ENDBRANCH  14  15
ENDBRANCH  13  14
ENDBRANCH  12  13
ENDBRANCH  11  12
ENDBRANCH  10  11
ENDBRANCH   8   9
ENDBRANCH   7   8
ENDBRANCH   5   6
ENDBRANCH   4   5
ENDBRANCH   2   3
TORSDOF 12
ENDMDL
MODEL      167
REMARK 921   NORMALIZED FREE ENERGY PREDICTED BY IDOCK:   -4.03 KCAL/MOL
REMARK 922        TOTAL FREE ENERGY PREDICTED BY IDOCK:   -8.70 KCAL/MOL
REMARK 923 INTER-LIGAND FREE ENERGY PREDICTED BY IDOCK:   -6.58 KCAL/MOL
REMARK 924 INTRA-LIGAND FREE ENERGY PREDICTED BY IDOCK:   -2.12 KCAL/MOL
REMARK 927      BINDING AFFINITY PREDICTED BY RF-SCORE:    0.00 PKD
ROOT
HETATM    1  C   UNL     1     -10.591   8.154  66.971  1.00  0.00    -0.346 C  
HETATM    2  C   UNL     1     -10.710   6.965  67.911  1.00  0.00    -0.294 C  
ENDROOT
BRANCH   2   3
HETATM    3  C   UNL     1      -9.416   6.683  68.620  1.00  0.00    -0.128 C  
HETATM    4  C   UNL     1      -9.261   5.856  69.668  1.00  0.00    -0.151 C  
BRANCH   4   5
HETATM    5  C   UNL     1     -10.380   5.101  70.327  1.00  0.00    -0.331 C  
BRANCH   5   6
HETATM    6  C   UNL     1      -9.887   3.935  71.137  1.00  0.00    -0.223 C  
HETATM    7  C   UNL     1     -10.187   3.708  72.428  1.00  0.00    -0.215 C  
BRANCH   7   8
HETATM    8  C   UNL     1     -11.034   4.624  73.263  1.00  0.00    -0.381 C  
BRANCH   8   9
HETATM    9  C   UNL     1     -10.217   5.650  73.993  1.00  0.00    -0.273 C  
HETATM   10  C   UNL     1     -10.253   6.973  73.754  1.00  0.00    -0.401 C  
BRANCH  10  11
HETATM   11  C   UNL     1     -11.183   7.608  72.759  1.00  0.00    -0.431 C  
BRANCH  11  12
HETATM   12  C   UNL     1     -10.485   8.638  71.876  1.00  0.00    -0.410 C  
BRANCH  12  13
HETATM   13  C   UNL     1     -11.482   9.259  70.897  1.00  0.00    -0.367 C  
BRANCH  13  14
HETATM   14  C   UNL     1     -10.816  10.349  70.064  1.00  0.00    -0.348 C  
BRANCH  14  15
HETATM   15  C   UNL     1     -11.785  10.946  69.044  1.00  0.00    -0.391 C  
BRANCH  15  16
HETATM   16  C   UNL     1     -11.052  11.904  68.108  1.00  0.00    -0.294 C  
BRANCH  16  17
HETATM   17  C   UNL     1     -11.781  12.062  66.777  1.00  0.00    -0.339 C  
HETATM   18  C   UNL     1     -12.002  13.518  66.432  1.00  0.00    -0.414 C  
HETATM   19  O   UNL     1     -11.646  14.470  67.109  1.00  0.00    -0.359 OA 
HETATM   20  O   UNL     1     -12.655  13.673  65.257  1.00  0.00    -0.482 OA 
ENDBRANCH  16  17
ENDBRANCH  15  16
ENDBRANCH  14  15
ENDBRANCH  13  14
ENDBRANCH  12  13
ENDBRANCH  11  12
ENDBRANCH  10  11
ENDBRANCH   8   9
ENDBRANCH   7   8
ENDBRANCH   5   6
ENDBRANCH   4   5
ENDBRANCH   2   3
TORSDOF 12
ENDMDL
MODEL      168
REMARK 921   NORMALIZED FREE ENERGY PREDICTED BY IDOCK:   -4.02 KCAL/MOL
REMARK 922        TOTAL FREE ENERGY PREDICTED BY IDOCK:   -8.68 KCAL/MOL
REMARK 923 INTER-LIGAND FREE ENERGY PREDICTED BY IDOCK:   -6.62 KCAL/MOL
REMARK 924 INTRA-LIGAND FREE ENERGY PREDICTED BY IDOCK:   -2.06 KCAL/MOL
REMARK 927      BINDING AFFINITY PREDICTED BY RF-SCORE:    0.00 PKD
ROOT
HETATM    1  C   UNL     1     -12.437  12.301  63.628  1.00  0.00    -0.647 C  
HETATM    2  C   UNL     1     -11.429  12.023  64.731  1.00  0.00    -0.357 C  
ENDROOT
BRANCH   2   3
HETATM    3  C   UNL     1     -11.579  12.982  65.879  1.00  0.00    -0.405 C  
HETATM    4  C   UNL     1     -11.663  12.643  67.176  1.00  0.00    -0.438 C  
BRANCH   4   5
HETATM    5  C   UNL     1     -11.657  11.231  67.688  1.00  0.00    -0.290 C  
BRANCH   5   6
HETATM    6  C   UNL     1     -10.821  11.073  68.926  1.00  0.00    -0.262 C  
HETATM    7  C   UNL     1     -11.294  10.756  70.144  1.00  0.00    -0.390 C  
BRANCH   7   8
HETATM    8  C   UNL     1     -12.751  10.557  70.449  1.00  0.00    -0.325 C  
BRANCH   8   9
HETATM    9  C   UNL     1     -13.006  10.348  71.912  1.00  0.00    -0.555 C  
HETATM   10  C   UNL     1     -13.714   9.330  72.432  1.00  0.00    -0.517 C  
BRANCH  10  11
HETATM   11  C   UNL     1     -14.290   8.216  71.604  1.00  0.00    -0.570 C  
BRANCH  11  12
HETATM   12  C   UNL     1     -13.500   6.918  71.734  1.00  0.00    -0.250 C  
BRANCH  12  13
HETATM   13  C   UNL     1     -12.496   6.791  70.589  1.00  0.00    -0.142 C  
BRANCH  13  14
HETATM   14  C   UNL     1     -11.096   7.185  71.049  1.00  0.00    -0.287 C  
BRANCH  14  15
HETATM   15  C   UNL     1     -10.909   6.940  72.546  1.00  0.00    -0.277 C  
BRANCH  15  16
HETATM   16  C   UNL     1      -9.948   7.969  73.139  1.00  0.00    -0.316 C  
BRANCH  16  17
HETATM   17  C   UNL     1      -9.075   8.611  72.065  1.00  0.00    -0.311 C  
HETATM   18  C   UNL     1      -7.607   8.336  72.302  1.00  0.00    -0.123 C  
HETATM   19  O   UNL     1      -7.147   7.680  73.223  1.00  0.00    -0.073 OA 
HETATM   20  O   UNL     1      -6.820   8.908  71.361  1.00  0.00    -0.081 OA 
ENDBRANCH  16  17
ENDBRANCH  15  16
ENDBRANCH  14  15
ENDBRANCH  13  14
ENDBRANCH  12  13
ENDBRANCH  11  12
ENDBRANCH  10  11
ENDBRANCH   8   9
ENDBRANCH   7   8
ENDBRANCH   5   6
ENDBRANCH   4   5
ENDBRANCH   2   3
TORSDOF 12
ENDMDL
MODEL      169
REMARK 921   NORMALIZED FREE ENERGY PREDICTED BY IDOCK:   -4.02 KCAL/MOL
REMARK 922        TOTAL FREE ENERGY PREDICTED BY IDOCK:   -8.68 KCAL/MOL
REMARK 923 INTER-LIGAND FREE ENERGY PREDICTED BY IDOCK:   -7.49 KCAL/MOL
REMARK 924 INTRA-LIGAND FREE ENERGY PREDICTED BY IDOCK:   -1.19 KCAL/MOL
REMARK 927      BINDING AFFINITY PREDICTED BY RF-SCORE:    0.00 PKD
ROOT
HETATM    1  C   UNL     1     -11.120   3.971  73.545  1.00  0.00    -0.350 C  
HETATM    2  C   UNL     1     -10.847   5.443  73.279  1.00  0.00    -0.345 C  
ENDROOT
BRANCH   2   3
HETATM    3  C   UNL     1     -11.141   5.816  71.854  1.00  0.00    -0.308 C  
HETATM    4  C   UNL     1     -11.444   7.049  71.414  1.00  0.00    -0.312 C  
BRANCH   4   5
HETATM    5  C   UNL     1     -11.574   8.258  72.296  1.00  0.00    -0.449 C  
BRANCH   5   6
HETATM    6  C   UNL     1     -12.858   9.002  72.066  1.00  0.00    -0.468 C  
HETATM    7  C   UNL     1     -12.980  10.133  71.349  1.00  0.00    -0.528 C  
BRANCH   7   8
HETATM    8  C   UNL     1     -11.824  10.842  70.705  1.00  0.00    -0.424 C  
BRANCH   8   9
HETATM    9  C   UNL     1     -11.924  10.855  69.208  1.00  0.00    -0.382 C  
HETATM   10  C   UNL     1     -11.888  11.962  68.444  1.00  0.00    -0.352 C  
BRANCH  10  11
HETATM   11  C   UNL     1     -11.668  13.341  68.998  1.00  0.00    -0.368 C  
BRANCH  11  12
HETATM   12  C   UNL     1     -11.402  14.377  67.911  1.00  0.00    -0.322 C  
BRANCH  12  13
HETATM   13  C   UNL     1     -12.259  14.083  66.679  1.00  0.00    -0.463 C  
BRANCH  13  14
HETATM   14  C   UNL     1     -11.677  14.757  65.440  1.00  0.00    -0.289 C  
BRANCH  14  15
HETATM   15  C   UNL     1     -11.751  13.843  64.218  1.00  0.00    -0.406 C  
BRANCH  15  16
HETATM   16  C   UNL     1     -11.877  12.383  64.650  1.00  0.00    -0.445 C  
BRANCH  16  17
HETATM   17  C   UNL     1     -10.992  11.467  63.810  1.00  0.00    -0.485 C  
HETATM   18  C   UNL     1      -9.995  10.718  64.665  1.00  0.00    -0.324 C  
HETATM   19  O   UNL     1      -9.891  10.807  65.878  1.00  0.00    -0.217 OA 
HETATM   20  O   UNL     1      -9.198   9.907  63.931  1.00  0.00    -0.253 OA 
ENDBRANCH  16  17
ENDBRANCH  15  16
ENDBRANCH  14  15
ENDBRANCH  13  14
ENDBRANCH  12  13
ENDBRANCH  11  12
ENDBRANCH  10  11
ENDBRANCH   8   9
ENDBRANCH   7   8
ENDBRANCH   5   6
ENDBRANCH   4   5
ENDBRANCH   2   3
TORSDOF 12
ENDMDL
MODEL      170
REMARK 921   NORMALIZED FREE ENERGY PREDICTED BY IDOCK:   -4.02 KCAL/MOL
REMARK 922        TOTAL FREE ENERGY PREDICTED BY IDOCK:   -8.68 KCAL/MOL
REMARK 923 INTER-LIGAND FREE ENERGY PREDICTED BY IDOCK:   -6.83 KCAL/MOL
REMARK 924 INTRA-LIGAND FREE ENERGY PREDICTED BY IDOCK:   -1.85 KCAL/MOL
REMARK 927      BINDING AFFINITY PREDICTED BY RF-SCORE:    0.00 PKD
ROOT
HETATM    1  C   UNL     1     -14.022  13.765  72.488  1.00  0.00    -0.572 C  
HETATM    2  C   UNL     1     -13.919  15.277  72.370  1.00  0.00    -0.642 C  
ENDROOT
BRANCH   2   3
HETATM    3  C   UNL     1     -12.492  15.733  72.260  1.00  0.00    -0.533 C  
HETATM    4  C   UNL     1     -11.769  15.778  71.128  1.00  0.00    -0.476 C  
BRANCH   4   5
HETATM    5  C   UNL     1     -12.271  15.341  69.781  1.00  0.00    -0.326 C  
BRANCH   5   6
HETATM    6  C   UNL     1     -11.498  15.960  68.652  1.00  0.00    -0.391 C  
HETATM    7  C   UNL     1     -11.345  15.419  67.430  1.00  0.00    -0.243 C  
BRANCH   7   8
HETATM    8  C   UNL     1     -11.899  14.080  67.034  1.00  0.00    -0.458 C  
BRANCH   8   9
HETATM    9  C   UNL     1     -11.082  13.418  65.965  1.00  0.00    -0.294 C  
HETATM   10  C   UNL     1      -9.892  12.822  66.164  1.00  0.00    -0.269 C  
BRANCH  10  11
HETATM   11  C   UNL     1      -9.256  12.680  67.517  1.00  0.00    -0.190 C  
BRANCH  11  12
HETATM   12  C   UNL     1      -7.844  13.255  67.566  1.00  0.00    -0.173 C  
BRANCH  12  13
HETATM   13  C   UNL     1      -7.859  14.643  68.209  1.00  0.00    -0.128 C  
BRANCH  13  14
HETATM   14  C   UNL     1      -7.208  15.673  67.291  1.00  0.00    -0.252 C  
BRANCH  14  15
HETATM   15  C   UNL     1      -8.210  16.240  66.286  1.00  0.00    -0.312 C  
BRANCH  15  16
HETATM   16  C   UNL     1      -8.601  17.666  66.669  1.00  0.00    -0.282 C  
BRANCH  16  17
HETATM   17  C   UNL     1      -7.519  18.343  67.505  1.00  0.00    -0.221 C  
HETATM   18  C   UNL     1      -8.106  19.058  68.701  1.00  0.00    -0.361 C  
HETATM   19  O   UNL     1      -9.291  19.100  68.992  1.00  0.00    -0.348 OA 
HETATM   20  O   UNL     1      -7.158  19.671  69.448  1.00  0.00    -0.357 OA 
ENDBRANCH  16  17
ENDBRANCH  15  16
ENDBRANCH  14  15
ENDBRANCH  13  14
ENDBRANCH  12  13
ENDBRANCH  11  12
ENDBRANCH  10  11
ENDBRANCH   8   9
ENDBRANCH   7   8
ENDBRANCH   5   6
ENDBRANCH   4   5
ENDBRANCH   2   3
TORSDOF 12
ENDMDL
MODEL      171
REMARK 921   NORMALIZED FREE ENERGY PREDICTED BY IDOCK:   -4.01 KCAL/MOL
REMARK 922        TOTAL FREE ENERGY PREDICTED BY IDOCK:   -8.66 KCAL/MOL
REMARK 923 INTER-LIGAND FREE ENERGY PREDICTED BY IDOCK:   -6.03 KCAL/MOL
REMARK 924 INTRA-LIGAND FREE ENERGY PREDICTED BY IDOCK:   -2.63 KCAL/MOL
REMARK 927      BINDING AFFINITY PREDICTED BY RF-SCORE:    0.00 PKD
ROOT
HETATM    1  C   UNL     1     -12.262  15.192  64.348  1.00  0.00    -0.289 C  
HETATM    2  C   UNL     1     -12.793  13.905  64.958  1.00  0.00    -0.309 C  
ENDROOT
BRANCH   2   3
HETATM    3  C   UNL     1     -12.467  12.709  64.109  1.00  0.00    -0.488 C  
HETATM    4  C   UNL     1     -11.447  11.858  64.313  1.00  0.00    -0.423 C  
BRANCH   4   5
HETATM    5  C   UNL     1     -10.438  11.991  65.418  1.00  0.00    -0.313 C  
BRANCH   5   6
HETATM    6  C   UNL     1     -10.924  11.407  66.713  1.00  0.00    -0.347 C  
HETATM    7  C   UNL     1     -10.147  10.810  67.634  1.00  0.00    -0.205 C  
BRANCH   7   8
HETATM    8  C   UNL     1      -8.668  10.605  67.472  1.00  0.00    -0.125 C  
BRANCH   8   9
HETATM    9  C   UNL     1      -7.895  11.031  68.686  1.00  0.00    -0.136 C  
HETATM   10  C   UNL     1      -7.238  12.198  68.808  1.00  0.00    -0.103 C  
BRANCH  10  11
HETATM   11  C   UNL     1      -7.254  13.270  67.756  1.00  0.00    -0.151 C  
BRANCH  11  12
HETATM   12  C   UNL     1      -8.112  14.468  68.150  1.00  0.00    -0.137 C  
BRANCH  12  13
HETATM   13  C   UNL     1      -9.111  14.793  67.039  1.00  0.00    -0.257 C  
BRANCH  13  14
HETATM   14  C   UNL     1     -10.484  15.115  67.622  1.00  0.00    -0.253 C  
BRANCH  14  15
HETATM   15  C   UNL     1     -10.661  14.502  69.010  1.00  0.00    -0.258 C  
BRANCH  15  16
HETATM   16  C   UNL     1     -12.120  14.110  69.237  1.00  0.00    -0.364 C  
BRANCH  16  17
HETATM   17  C   UNL     1     -12.359  13.626  70.664  1.00  0.00    -0.440 C  
HETATM   18  C   UNL     1     -13.149  14.633  71.469  1.00  0.00    -0.348 C  
HETATM   19  O   UNL     1     -13.565  15.704  71.056  1.00  0.00    -0.588 OA 
HETATM   20  O   UNL     1     -13.362  14.220  72.741  1.00  0.00    -0.495 OA 
ENDBRANCH  16  17
ENDBRANCH  15  16
ENDBRANCH  14  15
ENDBRANCH  13  14
ENDBRANCH  12  13
ENDBRANCH  11  12
ENDBRANCH  10  11
ENDBRANCH   8   9
ENDBRANCH   7   8
ENDBRANCH   5   6
ENDBRANCH   4   5
ENDBRANCH   2   3
TORSDOF 12
ENDMDL
MODEL      172
REMARK 921   NORMALIZED FREE ENERGY PREDICTED BY IDOCK:   -4.01 KCAL/MOL
REMARK 922        TOTAL FREE ENERGY PREDICTED BY IDOCK:   -8.66 KCAL/MOL
REMARK 923 INTER-LIGAND FREE ENERGY PREDICTED BY IDOCK:   -6.80 KCAL/MOL
REMARK 924 INTRA-LIGAND FREE ENERGY PREDICTED BY IDOCK:   -1.86 KCAL/MOL
REMARK 927      BINDING AFFINITY PREDICTED BY RF-SCORE:    0.00 PKD
ROOT
HETATM    1  C   UNL     1      -9.323   7.834  66.828  1.00  0.00    -0.227 C  
HETATM    2  C   UNL     1      -9.927   9.052  67.508  1.00  0.00    -0.262 C  
ENDROOT
BRANCH   2   3
HETATM    3  C   UNL     1      -9.358   9.264  68.882  1.00  0.00    -0.150 C  
HETATM    4  C   UNL     1      -9.983   9.873  69.903  1.00  0.00    -0.292 C  
BRANCH   4   5
HETATM    5  C   UNL     1     -11.355  10.480  69.820  1.00  0.00    -0.367 C  
BRANCH   5   6
HETATM    6  C   UNL     1     -12.193  10.174  71.028  1.00  0.00    -0.474 C  
HETATM    7  C   UNL     1     -12.997  11.050  71.655  1.00  0.00    -0.561 C  
BRANCH   7   8
HETATM    8  C   UNL     1     -13.138  12.490  71.253  1.00  0.00    -0.223 C  
BRANCH   8   9
HETATM    9  C   UNL     1     -13.723  13.334  72.346  1.00  0.00    -0.678 C  
HETATM   10  C   UNL     1     -13.819  14.676  72.315  1.00  0.00    -0.583 C  
BRANCH  10  11
HETATM   11  C   UNL     1     -13.410  15.506  71.132  1.00  0.00    -0.553 C  
BRANCH  11  12
HETATM   12  C   UNL     1     -11.996  16.061  71.264  1.00  0.00    -0.475 C  
BRANCH  12  13
HETATM   13  C   UNL     1     -11.035  15.286  70.361  1.00  0.00    -0.317 C  
BRANCH  13  14
HETATM   14  C   UNL     1     -11.553  15.244  68.927  1.00  0.00    -0.365 C  
BRANCH  14  15
HETATM   15  C   UNL     1     -11.379  13.857  68.309  1.00  0.00    -0.325 C  
BRANCH  15  16
HETATM   16  C   UNL     1     -10.643  13.956  66.975  1.00  0.00    -0.279 C  
BRANCH  16  17
HETATM   17  C   UNL     1      -9.853  12.687  66.670  1.00  0.00    -0.245 C  
HETATM   18  C   UNL     1      -8.395  12.835  67.044  1.00  0.00    -0.120 C  
HETATM   19  O   UNL     1      -7.886  13.829  67.537  1.00  0.00    -0.159 OA 
HETATM   20  O   UNL     1      -7.680  11.719  66.771  1.00  0.00    -0.149 OA 
ENDBRANCH  16  17
ENDBRANCH  15  16
ENDBRANCH  14  15
ENDBRANCH  13  14
ENDBRANCH  12  13
ENDBRANCH  11  12
ENDBRANCH  10  11
ENDBRANCH   8   9
ENDBRANCH   7   8
ENDBRANCH   5   6
ENDBRANCH   4   5
ENDBRANCH   2   3
TORSDOF 12
ENDMDL
MODEL      173
REMARK 921   NORMALIZED FREE ENERGY PREDICTED BY IDOCK:   -4.00 KCAL/MOL
REMARK 922        TOTAL FREE ENERGY PREDICTED BY IDOCK:   -8.65 KCAL/MOL
REMARK 923 INTER-LIGAND FREE ENERGY PREDICTED BY IDOCK:   -7.01 KCAL/MOL
REMARK 924 INTRA-LIGAND FREE ENERGY PREDICTED BY IDOCK:   -1.64 KCAL/MOL
REMARK 927      BINDING AFFINITY PREDICTED BY RF-SCORE:    0.00 PKD
ROOT
HETATM    1  C   UNL     1     -11.335   4.537  73.353  1.00  0.00    -0.376 C  
HETATM    2  C   UNL     1     -10.996   5.952  72.913  1.00  0.00    -0.303 C  
ENDROOT
BRANCH   2   3
HETATM    3  C   UNL     1     -12.070   6.537  72.040  1.00  0.00    -0.358 C  
HETATM    4  C   UNL     1     -11.909   6.952  70.772  1.00  0.00    -0.427 C  
BRANCH   4   5
HETATM    5  C   UNL     1     -10.603   6.929  70.030  1.00  0.00    -0.254 C  
BRANCH   5   6
HETATM    6  C   UNL     1     -10.426   5.677  69.219  1.00  0.00    -0.356 C  
HETATM    7  C   UNL     1     -10.561   5.594  67.883  1.00  0.00    -0.266 C  
BRANCH   7   8
HETATM    8  C   UNL     1     -10.957   6.749  67.010  1.00  0.00    -0.439 C  
BRANCH   8   9
HETATM    9  C   UNL     1      -9.771   7.517  66.506  1.00  0.00    -0.238 C  
HETATM   10  C   UNL     1      -9.591   8.842  66.657  1.00  0.00    -0.283 C  
BRANCH  10  11
HETATM   11  C   UNL     1     -10.538   9.722  67.423  1.00  0.00    -0.330 C  
BRANCH  11  12
HETATM   12  C   UNL     1     -10.077  11.174  67.477  1.00  0.00    -0.210 C  
BRANCH  12  13
HETATM   13  C   UNL     1     -11.049  12.069  66.708  1.00  0.00    -0.353 C  
BRANCH  13  14
HETATM   14  C   UNL     1     -11.905  12.890  67.667  1.00  0.00    -0.400 C  
BRANCH  14  15
HETATM   15  C   UNL     1     -11.097  13.361  68.876  1.00  0.00    -0.307 C  
BRANCH  15  16
HETATM   16  C   UNL     1     -11.909  13.194  70.158  1.00  0.00    -0.328 C  
BRANCH  16  17
HETATM   17  C   UNL     1     -12.108  11.723  70.513  1.00  0.00    -0.439 C  
HETATM   18  C   UNL     1     -13.003  11.558  71.720  1.00  0.00    -0.394 C  
HETATM   19  O   UNL     1     -13.522  12.466  72.350  1.00  0.00    -0.503 OA 
HETATM   20  O   UNL     1     -13.182  10.257  72.051  1.00  0.00    -0.450 OA 
ENDBRANCH  16  17
ENDBRANCH  15  16
ENDBRANCH  14  15
ENDBRANCH  13  14
ENDBRANCH  12  13
ENDBRANCH  11  12
ENDBRANCH  10  11
ENDBRANCH   8   9
ENDBRANCH   7   8
ENDBRANCH   5   6
ENDBRANCH   4   5
ENDBRANCH   2   3
TORSDOF 12
ENDMDL
MODEL      174
REMARK 921   NORMALIZED FREE ENERGY PREDICTED BY IDOCK:   -3.99 KCAL/MOL
REMARK 922        TOTAL FREE ENERGY PREDICTED BY IDOCK:   -8.64 KCAL/MOL
REMARK 923 INTER-LIGAND FREE ENERGY PREDICTED BY IDOCK:   -6.68 KCAL/MOL
REMARK 924 INTRA-LIGAND FREE ENERGY PREDICTED BY IDOCK:   -1.96 KCAL/MOL
REMARK 927      BINDING AFFINITY PREDICTED BY RF-SCORE:    0.00 PKD
ROOT
HETATM    1  C   UNL     1     -10.050   8.929  67.467  1.00  0.00    -0.285 C  
HETATM    2  C   UNL     1      -9.761  10.340  67.952  1.00  0.00    -0.165 C  
ENDROOT
BRANCH   2   3
HETATM    3  C   UNL     1     -11.017  11.061  68.354  1.00  0.00    -0.281 C  
HETATM    4  C   UNL     1     -11.698  11.931  67.590  1.00  0.00    -0.346 C  
BRANCH   4   5
HETATM    5  C   UNL     1     -11.285  12.354  66.209  1.00  0.00    -0.361 C  
BRANCH   5   6
HETATM    6  C   UNL     1     -12.401  13.018  65.454  1.00  0.00    -0.538 C  
HETATM    7  C   UNL     1     -12.272  14.114  64.686  1.00  0.00    -0.465 C  
BRANCH   7   8
HETATM    8  C   UNL     1     -10.982  14.862  64.508  1.00  0.00    -0.216 C  
BRANCH   8   9
HETATM    9  C   UNL     1     -11.040  16.246  65.084  1.00  0.00    -0.219 C  
HETATM   10  C   UNL     1     -10.153  16.753  65.959  1.00  0.00    -0.350 C  
BRANCH  10  11
HETATM   11  C   UNL     1      -8.933  16.009  66.423  1.00  0.00    -0.354 C  
BRANCH  11  12
HETATM   12  C   UNL     1      -9.052  15.528  67.865  1.00  0.00    -0.175 C  
BRANCH  12  13
HETATM   13  C   UNL     1      -9.365  16.703  68.793  1.00  0.00    -0.256 C  
BRANCH  13  14
HETATM   14  C   UNL     1     -10.674  16.469  69.540  1.00  0.00    -0.321 C  
BRANCH  14  15
HETATM   15  C   UNL     1     -10.882  14.989  69.857  1.00  0.00    -0.266 C  
BRANCH  15  16
HETATM   16  C   UNL     1     -12.364  14.628  69.772  1.00  0.00    -0.306 C  
BRANCH  16  17
HETATM   17  C   UNL     1     -12.781  13.683  70.894  1.00  0.00    -0.382 C  
HETATM   18  C   UNL     1     -13.473  14.423  72.017  1.00  0.00    -0.402 C  
HETATM   19  O   UNL     1     -13.692  15.624  72.047  1.00  0.00    -0.476 OA 
HETATM   20  O   UNL     1     -13.841  13.597  73.025  1.00  0.00    -0.512 OA 
ENDBRANCH  16  17
ENDBRANCH  15  16
ENDBRANCH  14  15
ENDBRANCH  13  14
ENDBRANCH  12  13
ENDBRANCH  11  12
ENDBRANCH  10  11
ENDBRANCH   8   9
ENDBRANCH   7   8
ENDBRANCH   5   6
ENDBRANCH   4   5
ENDBRANCH   2   3
TORSDOF 12
ENDMDL
MODEL      175
REMARK 921   NORMALIZED FREE ENERGY PREDICTED BY IDOCK:   -3.99 KCAL/MOL
REMARK 922        TOTAL FREE ENERGY PREDICTED BY IDOCK:   -8.63 KCAL/MOL
REMARK 923 INTER-LIGAND FREE ENERGY PREDICTED BY IDOCK:   -6.90 KCAL/MOL
REMARK 924 INTRA-LIGAND FREE ENERGY PREDICTED BY IDOCK:   -1.73 KCAL/MOL
REMARK 927      BINDING AFFINITY PREDICTED BY RF-SCORE:    0.00 PKD
ROOT
HETATM    1  C   UNL     1      -8.002   7.101  71.152  1.00  0.00    -0.102 C  
HETATM    2  C   UNL     1      -9.431   6.764  71.550  1.00  0.00    -0.156 C  
ENDROOT
BRANCH   2   3
HETATM    3  C   UNL     1     -10.314   6.576  70.349  1.00  0.00    -0.237 C  
HETATM    4  C   UNL     1     -11.656   6.516  70.366  1.00  0.00    -0.470 C  
BRANCH   4   5
HETATM    5  C   UNL     1     -12.494   6.591  71.610  1.00  0.00    -0.271 C  
BRANCH   5   6
HETATM    6  C   UNL     1     -13.795   7.308  71.384  1.00  0.00    -0.416 C  
HETATM    7  C   UNL     1     -14.040   8.589  71.713  1.00  0.00    -0.515 C  
BRANCH   7   8
HETATM    8  C   UNL     1     -13.045   9.480  72.400  1.00  0.00    -0.430 C  
BRANCH   8   9
HETATM    9  C   UNL     1     -12.924  10.820  71.737  1.00  0.00    -0.568 C  
HETATM   10  C   UNL     1     -12.083  11.105  70.727  1.00  0.00    -0.458 C  
BRANCH  10  11
HETATM   11  C   UNL     1     -11.194  10.081  70.078  1.00  0.00    -0.345 C  
BRANCH  11  12
HETATM   12  C   UNL     1     -10.449  10.632  68.867  1.00  0.00    -0.232 C  
BRANCH  12  13
HETATM   13  C   UNL     1     -11.433  11.257  67.878  1.00  0.00    -0.360 C  
BRANCH  13  14
HETATM   14  C   UNL     1     -10.882  12.564  67.316  1.00  0.00    -0.277 C  
BRANCH  14  15
HETATM   15  C   UNL     1     -10.550  13.556  68.430  1.00  0.00    -0.258 C  
BRANCH  15  16
HETATM   16  C   UNL     1     -11.438  14.794  68.323  1.00  0.00    -0.338 C  
BRANCH  16  17
HETATM   17  C   UNL     1     -11.109  15.820  69.403  1.00  0.00    -0.314 C  
HETATM   18  C   UNL     1     -11.983  15.644  70.625  1.00  0.00    -0.402 C  
HETATM   19  O   UNL     1     -12.847  14.793  70.762  1.00  0.00    -0.337 OA 
HETATM   20  O   UNL     1     -11.707  16.554  71.588  1.00  0.00    -0.415 OA 
ENDBRANCH  16  17
ENDBRANCH  15  16
ENDBRANCH  14  15
ENDBRANCH  13  14
ENDBRANCH  12  13
ENDBRANCH  11  12
ENDBRANCH  10  11
ENDBRANCH   8   9
ENDBRANCH   7   8
ENDBRANCH   5   6
ENDBRANCH   4   5
ENDBRANCH   2   3
TORSDOF 12
ENDMDL
MODEL      176
REMARK 921   NORMALIZED FREE ENERGY PREDICTED BY IDOCK:   -3.98 KCAL/MOL
REMARK 922        TOTAL FREE ENERGY PREDICTED BY IDOCK:   -8.62 KCAL/MOL
REMARK 923 INTER-LIGAND FREE ENERGY PREDICTED BY IDOCK:   -6.56 KCAL/MOL
REMARK 924 INTRA-LIGAND FREE ENERGY PREDICTED BY IDOCK:   -2.05 KCAL/MOL
REMARK 927      BINDING AFFINITY PREDICTED BY RF-SCORE:    0.00 PKD
ROOT
HETATM    1  C   UNL     1     -10.464  12.034  63.578  1.00  0.00    -0.505 C  
HETATM    2  C   UNL     1     -11.407  11.856  64.757  1.00  0.00    -0.344 C  
ENDROOT
BRANCH   2   3
HETATM    3  C   UNL     1     -12.547  12.834  64.711  1.00  0.00    -0.518 C  
HETATM    4  C   UNL     1     -12.535  14.075  65.224  1.00  0.00    -0.495 C  
BRANCH   4   5
HETATM    5  C   UNL     1     -11.376  14.677  65.967  1.00  0.00    -0.344 C  
BRANCH   5   6
HETATM    6  C   UNL     1     -11.501  14.516  67.455  1.00  0.00    -0.385 C  
HETATM    7  C   UNL     1     -10.646  13.829  68.234  1.00  0.00    -0.262 C  
BRANCH   7   8
HETATM    8  C   UNL     1      -9.454  13.082  67.709  1.00  0.00    -0.209 C  
BRANCH   8   9
HETATM    9  C   UNL     1      -8.503  13.972  66.965  1.00  0.00    -0.168 C  
HETATM   10  C   UNL     1      -7.445  14.597  67.513  1.00  0.00    -0.217 C  
BRANCH  10  11
HETATM   11  C   UNL     1      -7.035  14.422  68.947  1.00  0.00    -0.105 C  
BRANCH  11  12
HETATM   12  C   UNL     1      -6.361  15.664  69.521  1.00  0.00    -0.166 C  
BRANCH  12  13
HETATM   13  C   UNL     1      -6.400  16.806  68.506  1.00  0.00    -0.149 C  
BRANCH  13  14
HETATM   14  C   UNL     1      -6.731  18.129  69.189  1.00  0.00    -0.252 C  
BRANCH  14  15
HETATM   15  C   UNL     1      -7.920  18.822  68.524  1.00  0.00    -0.377 C  
BRANCH  15  16
HETATM   16  C   UNL     1      -9.090  17.851  68.379  1.00  0.00    -0.292 C  
BRANCH  16  17
HETATM   17  C   UNL     1      -9.492  17.665  66.919  1.00  0.00    -0.278 C  
HETATM   18  C   UNL     1     -10.530  18.679  66.493  1.00  0.00    -0.420 C  
HETATM   19  O   UNL     1     -11.001  19.553  67.203  1.00  0.00    -0.492 OA 
HETATM   20  O   UNL     1     -10.902  18.520  65.202  1.00  0.00    -0.588 OA 
ENDBRANCH  16  17
ENDBRANCH  15  16
ENDBRANCH  14  15
ENDBRANCH  13  14
ENDBRANCH  12  13
ENDBRANCH  11  12
ENDBRANCH  10  11
ENDBRANCH   8   9
ENDBRANCH   7   8
ENDBRANCH   5   6
ENDBRANCH   4   5
ENDBRANCH   2   3
TORSDOF 12
ENDMDL
MODEL      177
REMARK 921   NORMALIZED FREE ENERGY PREDICTED BY IDOCK:   -3.97 KCAL/MOL
REMARK 922        TOTAL FREE ENERGY PREDICTED BY IDOCK:   -8.60 KCAL/MOL
REMARK 923 INTER-LIGAND FREE ENERGY PREDICTED BY IDOCK:   -6.61 KCAL/MOL
REMARK 924 INTRA-LIGAND FREE ENERGY PREDICTED BY IDOCK:   -1.99 KCAL/MOL
REMARK 927      BINDING AFFINITY PREDICTED BY RF-SCORE:    0.00 PKD
ROOT
HETATM    1  C   UNL     1     -10.647   7.282  73.514  1.00  0.00    -0.408 C  
HETATM    2  C   UNL     1     -11.265   8.180  72.453  1.00  0.00    -0.452 C  
ENDROOT
BRANCH   2   3
HETATM    3  C   UNL     1     -10.842   7.780  71.068  1.00  0.00    -0.253 C  
HETATM    4  C   UNL     1     -10.519   8.623  70.074  1.00  0.00    -0.229 C  
BRANCH   4   5
HETATM    5  C   UNL     1     -10.564  10.121  70.181  1.00  0.00    -0.337 C  
BRANCH   5   6
HETATM    6  C   UNL     1     -11.579  10.732  69.259  1.00  0.00    -0.376 C  
HETATM    7  C   UNL     1     -11.345  11.110  67.990  1.00  0.00    -0.380 C  
BRANCH   7   8
HETATM    8  C   UNL     1     -10.003  11.010  67.323  1.00  0.00    -0.210 C  
BRANCH   8   9
HETATM    9  C   UNL     1     -10.034  10.137  66.104  1.00  0.00    -0.310 C  
HETATM   10  C   UNL     1     -10.219  10.578  64.846  1.00  0.00    -0.371 C  
BRANCH  10  11
HETATM   11  C   UNL     1     -10.349  12.032  64.492  1.00  0.00    -0.334 C  
BRANCH  11  12
HETATM   12  C   UNL     1     -11.730  12.385  63.952  1.00  0.00    -0.529 C  
BRANCH  12  13
HETATM   13  C   UNL     1     -12.563  13.074  65.033  1.00  0.00    -0.515 C  
BRANCH  13  14
HETATM   14  C   UNL     1     -11.809  14.262  65.623  1.00  0.00    -0.373 C  
BRANCH  14  15
HETATM   15  C   UNL     1     -12.019  14.364  67.133  1.00  0.00    -0.419 C  
BRANCH  15  16
HETATM   16  C   UNL     1     -10.996  15.316  67.751  1.00  0.00    -0.312 C  
BRANCH  16  17
HETATM   17  C   UNL     1      -9.794  14.565  68.315  1.00  0.00    -0.229 C  
HETATM   18  C   UNL     1      -8.562  14.764  67.461  1.00  0.00    -0.187 C  
HETATM   19  O   UNL     1      -8.502  15.440  66.446  1.00  0.00    -0.265 OA 
HETATM   20  O   UNL     1      -7.489  14.096  67.946  1.00  0.00    -0.119 OA 
ENDBRANCH  16  17
ENDBRANCH  15  16
ENDBRANCH  14  15
ENDBRANCH  13  14
ENDBRANCH  12  13
ENDBRANCH  11  12
ENDBRANCH  10  11
ENDBRANCH   8   9
ENDBRANCH   7   8
ENDBRANCH   5   6
ENDBRANCH   4   5
ENDBRANCH   2   3
TORSDOF 12
ENDMDL
MODEL      178
REMARK 921   NORMALIZED FREE ENERGY PREDICTED BY IDOCK:   -3.96 KCAL/MOL
REMARK 922        TOTAL FREE ENERGY PREDICTED BY IDOCK:   -8.58 KCAL/MOL
REMARK 923 INTER-LIGAND FREE ENERGY PREDICTED BY IDOCK:   -7.24 KCAL/MOL
REMARK 924 INTRA-LIGAND FREE ENERGY PREDICTED BY IDOCK:   -1.34 KCAL/MOL
REMARK 927      BINDING AFFINITY PREDICTED BY RF-SCORE:    0.00 PKD
ROOT
HETATM    1  C   UNL     1     -11.535  12.273  67.814  1.00  0.00    -0.392 C  
HETATM    2  C   UNL     1     -11.069  10.837  67.991  1.00  0.00    -0.359 C  
ENDROOT
BRANCH   2   3
HETATM    3  C   UNL     1     -10.116  10.698  69.144  1.00  0.00    -0.234 C  
HETATM    4  C   UNL     1     -10.243   9.833  70.164  1.00  0.00    -0.328 C  
BRANCH   4   5
HETATM    5  C   UNL     1     -11.392   8.880  70.333  1.00  0.00    -0.229 C  
BRANCH   5   6
HETATM    6  C   UNL     1     -12.046   9.003  71.680  1.00  0.00    -0.422 C  
HETATM    7  C   UNL     1     -12.732  10.075  72.113  1.00  0.00    -0.354 C  
BRANCH   7   8
HETATM    8  C   UNL     1     -12.905  11.335  71.314  1.00  0.00    -0.491 C  
BRANCH   8   9
HETATM    9  C   UNL     1     -13.474  12.457  72.132  1.00  0.00    -0.481 C  
HETATM   10  C   UNL     1     -13.327  13.764  71.851  1.00  0.00    -0.499 C  
BRANCH  10  11
HETATM   11  C   UNL     1     -12.624  14.272  70.625  1.00  0.00    -0.424 C  
BRANCH  11  12
HETATM   12  C   UNL     1     -11.606  15.363  70.940  1.00  0.00    -0.396 C  
BRANCH  12  13
HETATM   13  C   UNL     1     -10.672  15.577  69.748  1.00  0.00    -0.301 C  
BRANCH  13  14
HETATM   14  C   UNL     1     -11.393  16.303  68.617  1.00  0.00    -0.333 C  
BRANCH  14  15
HETATM   15  C   UNL     1     -10.900  15.836  67.248  1.00  0.00    -0.298 C  
BRANCH  15  16
HETATM   16  C   UNL     1      -9.970  16.880  66.631  1.00  0.00    -0.302 C  
BRANCH  16  17
HETATM   17  C   UNL     1     -10.490  18.297  66.848  1.00  0.00    -0.396 C  
HETATM   18  C   UNL     1      -9.383  19.237  67.272  1.00  0.00    -0.306 C  
HETATM   19  O   UNL     1      -8.211  18.932  67.423  1.00  0.00    -0.266 OA 
HETATM   20  O   UNL     1      -9.832  20.498  67.476  1.00  0.00    -0.433 OA 
ENDBRANCH  16  17
ENDBRANCH  15  16
ENDBRANCH  14  15
ENDBRANCH  13  14
ENDBRANCH  12  13
ENDBRANCH  11  12
ENDBRANCH  10  11
ENDBRANCH   8   9
ENDBRANCH   7   8
ENDBRANCH   5   6
ENDBRANCH   4   5
ENDBRANCH   2   3
TORSDOF 12
ENDMDL
MODEL      179
REMARK 921   NORMALIZED FREE ENERGY PREDICTED BY IDOCK:   -3.96 KCAL/MOL
REMARK 922        TOTAL FREE ENERGY PREDICTED BY IDOCK:   -8.58 KCAL/MOL
REMARK 923 INTER-LIGAND FREE ENERGY PREDICTED BY IDOCK:   -6.82 KCAL/MOL
REMARK 924 INTRA-LIGAND FREE ENERGY PREDICTED BY IDOCK:   -1.76 KCAL/MOL
REMARK 927      BINDING AFFINITY PREDICTED BY RF-SCORE:    0.00 PKD
ROOT
HETATM    1  C   UNL     1      -9.576  11.561  63.027  1.00  0.00    -0.371 C  
HETATM    2  C   UNL     1     -10.937  11.441  63.694  1.00  0.00    -0.443 C  
ENDROOT
BRANCH   2   3
HETATM    3  C   UNL     1     -11.455  12.777  64.146  1.00  0.00    -0.450 C  
HETATM    4  C   UNL     1     -11.330  13.289  65.382  1.00  0.00    -0.317 C  
BRANCH   4   5
HETATM    5  C   UNL     1     -10.673  12.581  66.532  1.00  0.00    -0.266 C  
BRANCH   5   6
HETATM    6  C   UNL     1     -11.595  11.609  67.210  1.00  0.00    -0.316 C  
HETATM    7  C   UNL     1     -11.908  11.622  68.518  1.00  0.00    -0.357 C  
BRANCH   7   8
HETATM    8  C   UNL     1     -11.336  12.600  69.504  1.00  0.00    -0.227 C  
BRANCH   8   9
HETATM    9  C   UNL     1     -12.291  12.913  70.618  1.00  0.00    -0.385 C  
HETATM   10  C   UNL     1     -12.762  14.140  70.905  1.00  0.00    -0.432 C  
BRANCH  10  11
HETATM   11  C   UNL     1     -12.442  15.359  70.088  1.00  0.00    -0.370 C  
BRANCH  11  12
HETATM   12  C   UNL     1     -11.131  16.018  70.504  1.00  0.00    -0.370 C  
BRANCH  12  13
HETATM   13  C   UNL     1     -10.518  16.771  69.323  1.00  0.00    -0.331 C  
BRANCH  13  14
HETATM   14  C   UNL     1     -10.551  15.917  68.059  1.00  0.00    -0.287 C  
BRANCH  14  15
HETATM   15  C   UNL     1     -10.283  16.756  66.810  1.00  0.00    -0.304 C  
BRANCH  15  16
HETATM   16  C   UNL     1      -9.196  16.107  65.955  1.00  0.00    -0.363 C  
BRANCH  16  17
HETATM   17  C   UNL     1      -7.827  16.192  66.623  1.00  0.00    -0.288 C  
HETATM   18  C   UNL     1      -7.107  17.471  66.259  1.00  0.00    -0.305 C  
HETATM   19  O   UNL     1      -7.543  18.349  65.531  1.00  0.00    -0.510 OA 
HETATM   20  O   UNL     1      -5.887  17.556  66.839  1.00  0.00    -0.130 OA 
ENDBRANCH  16  17
ENDBRANCH  15  16
ENDBRANCH  14  15
ENDBRANCH  13  14
ENDBRANCH  12  13
ENDBRANCH  11  12
ENDBRANCH  10  11
ENDBRANCH   8   9
ENDBRANCH   7   8
ENDBRANCH   5   6
ENDBRANCH   4   5
ENDBRANCH   2   3
TORSDOF 12
ENDMDL
MODEL      180
REMARK 921   NORMALIZED FREE ENERGY PREDICTED BY IDOCK:   -3.96 KCAL/MOL
REMARK 922        TOTAL FREE ENERGY PREDICTED BY IDOCK:   -8.58 KCAL/MOL
REMARK 923 INTER-LIGAND FREE ENERGY PREDICTED BY IDOCK:   -6.60 KCAL/MOL
REMARK 924 INTRA-LIGAND FREE ENERGY PREDICTED BY IDOCK:   -1.98 KCAL/MOL
REMARK 927      BINDING AFFINITY PREDICTED BY RF-SCORE:    0.00 PKD
ROOT
HETATM    1  C   UNL     1     -12.126  11.931  63.558  1.00  0.00    -0.575 C  
HETATM    2  C   UNL     1     -11.684  11.913  65.013  1.00  0.00    -0.253 C  
ENDROOT
BRANCH   2   3
HETATM    3  C   UNL     1     -12.039  13.191  65.719  1.00  0.00    -0.502 C  
HETATM    4  C   UNL     1     -12.122  13.353  67.050  1.00  0.00    -0.390 C  
BRANCH   4   5
HETATM    5  C   UNL     1     -11.906  12.257  68.055  1.00  0.00    -0.368 C  
BRANCH   5   6
HETATM    6  C   UNL     1     -11.789  12.779  69.458  1.00  0.00    -0.379 C  
HETATM    7  C   UNL     1     -12.195  12.129  70.563  1.00  0.00    -0.392 C  
BRANCH   7   8
HETATM    8  C   UNL     1     -12.871  10.788  70.542  1.00  0.00    -0.335 C  
BRANCH   8   9
HETATM    9  C   UNL     1     -13.369  10.378  71.896  1.00  0.00    -0.469 C  
HETATM   10  C   UNL     1     -13.693   9.121  72.249  1.00  0.00    -0.548 C  
BRANCH  10  11
HETATM   11  C   UNL     1     -13.525   7.939  71.337  1.00  0.00    -0.290 C  
BRANCH  11  12
HETATM   12  C   UNL     1     -12.194   7.222  71.542  1.00  0.00    -0.387 C  
BRANCH  12  13
HETATM   13  C   UNL     1     -11.682   6.665  70.213  1.00  0.00    -0.432 C  
BRANCH  13  14
HETATM   14  C   UNL     1     -10.263   7.150  69.933  1.00  0.00    -0.215 C  
BRANCH  14  15
HETATM   15  C   UNL     1      -9.941   8.423  70.715  1.00  0.00    -0.222 C  
BRANCH  15  16
HETATM   16  C   UNL     1      -9.634   9.573  69.758  1.00  0.00    -0.235 C  
BRANCH  16  17
HETATM   17  C   UNL     1      -9.954   9.206  68.313  1.00  0.00    -0.199 C  
HETATM   18  C   UNL     1      -8.905   9.733  67.359  1.00  0.00    -0.132 C  
HETATM   19  O   UNL     1      -7.911  10.368  67.676  1.00  0.00    -0.105 OA 
HETATM   20  O   UNL     1      -9.181   9.422  66.071  1.00  0.00    -0.169 OA 
ENDBRANCH  16  17
ENDBRANCH  15  16
ENDBRANCH  14  15
ENDBRANCH  13  14
ENDBRANCH  12  13
ENDBRANCH  11  12
ENDBRANCH  10  11
ENDBRANCH   8   9
ENDBRANCH   7   8
ENDBRANCH   5   6
ENDBRANCH   4   5
ENDBRANCH   2   3
TORSDOF 12
ENDMDL
MODEL      181
REMARK 921   NORMALIZED FREE ENERGY PREDICTED BY IDOCK:   -3.96 KCAL/MOL
REMARK 922        TOTAL FREE ENERGY PREDICTED BY IDOCK:   -8.57 KCAL/MOL
REMARK 923 INTER-LIGAND FREE ENERGY PREDICTED BY IDOCK:   -6.77 KCAL/MOL
REMARK 924 INTRA-LIGAND FREE ENERGY PREDICTED BY IDOCK:   -1.81 KCAL/MOL
REMARK 927      BINDING AFFINITY PREDICTED BY RF-SCORE:    0.00 PKD
ROOT
HETATM    1  C   UNL     1     -10.638  19.478  67.359  1.00  0.00    -0.607 C  
HETATM    2  C   UNL     1     -10.588  17.965  67.502  1.00  0.00    -0.386 C  
ENDROOT
BRANCH   2   3
HETATM    3  C   UNL     1     -10.130  17.301  66.235  1.00  0.00    -0.323 C  
HETATM    4  C   UNL     1      -9.950  15.980  66.064  1.00  0.00    -0.365 C  
BRANCH   4   5
HETATM    5  C   UNL     1     -10.148  14.950  67.138  1.00  0.00    -0.240 C  
BRANCH   5   6
HETATM    6  C   UNL     1     -11.576  14.496  67.244  1.00  0.00    -0.405 C  
HETATM    7  C   UNL     1     -12.132  13.937  68.334  1.00  0.00    -0.327 C  
BRANCH   7   8
HETATM    8  C   UNL     1     -11.378  13.644  69.599  1.00  0.00    -0.226 C  
BRANCH   8   9
HETATM    9  C   UNL     1     -12.291  13.367  70.757  1.00  0.00    -0.433 C  
HETATM   10  C   UNL     1     -12.748  12.150  71.102  1.00  0.00    -0.351 C  
BRANCH  10  11
HETATM   11  C   UNL     1     -12.338  10.885  70.403  1.00  0.00    -0.436 C  
BRANCH  11  12
HETATM   12  C   UNL     1     -11.517   9.960  71.295  1.00  0.00    -0.435 C  
BRANCH  12  13
HETATM   13  C   UNL     1     -10.224   9.551  70.589  1.00  0.00    -0.364 C  
BRANCH  13  14
HETATM   14  C   UNL     1     -10.040  10.339  69.296  1.00  0.00    -0.244 C  
BRANCH  14  15
HETATM   15  C   UNL     1      -9.460   9.465  68.184  1.00  0.00    -0.146 C  
BRANCH  15  16
HETATM   16  C   UNL     1     -10.347   9.524  66.942  1.00  0.00    -0.307 C  
BRANCH  16  17
HETATM   17  C   UNL     1     -10.627  10.961  66.516  1.00  0.00    -0.295 C  
HETATM   18  C   UNL     1     -10.232  11.203  65.076  1.00  0.00    -0.296 C  
HETATM   19  O   UNL     1      -9.753  10.371  64.322  1.00  0.00    -0.291 OA 
HETATM   20  O   UNL     1     -10.468  12.478  64.687  1.00  0.00    -0.292 OA 
ENDBRANCH  16  17
ENDBRANCH  15  16
ENDBRANCH  14  15
ENDBRANCH  13  14
ENDBRANCH  12  13
ENDBRANCH  11  12
ENDBRANCH  10  11
ENDBRANCH   8   9
ENDBRANCH   7   8
ENDBRANCH   5   6
ENDBRANCH   4   5
ENDBRANCH   2   3
TORSDOF 12
ENDMDL
MODEL      182
REMARK 921   NORMALIZED FREE ENERGY PREDICTED BY IDOCK:   -3.95 KCAL/MOL
REMARK 922        TOTAL FREE ENERGY PREDICTED BY IDOCK:   -8.56 KCAL/MOL
REMARK 923 INTER-LIGAND FREE ENERGY PREDICTED BY IDOCK:   -7.37 KCAL/MOL
REMARK 924 INTRA-LIGAND FREE ENERGY PREDICTED BY IDOCK:   -1.19 KCAL/MOL
REMARK 927      BINDING AFFINITY PREDICTED BY RF-SCORE:    0.00 PKD
ROOT
HETATM    1  C   UNL     1     -10.784   5.701  69.678  1.00  0.00    -0.398 C  
HETATM    2  C   UNL     1     -11.829   6.648  70.246  1.00  0.00    -0.378 C  
ENDROOT
BRANCH   2   3
HETATM    3  C   UNL     1     -11.485   7.086  71.641  1.00  0.00    -0.299 C  
HETATM    4  C   UNL     1     -11.910   8.213  72.235  1.00  0.00    -0.441 C  
BRANCH   4   5
HETATM    5  C   UNL     1     -12.779   9.246  71.575  1.00  0.00    -0.426 C  
BRANCH   5   6
HETATM    6  C   UNL     1     -11.979  10.306  70.873  1.00  0.00    -0.473 C  
HETATM    7  C   UNL     1     -12.287  11.614  70.840  1.00  0.00    -0.436 C  
BRANCH   7   8
HETATM    8  C   UNL     1     -13.515  12.199  71.475  1.00  0.00     0.055 C  
BRANCH   8   9
HETATM    9  C   UNL     1     -13.185  13.164  72.576  1.00  0.00    -0.437 C  
HETATM   10  C   UNL     1     -13.076  14.496  72.424  1.00  0.00    -0.487 C  
BRANCH  10  11
HETATM   11  C   UNL     1     -13.345  15.205  71.127  1.00  0.00    -0.535 C  
BRANCH  11  12
HETATM   12  C   UNL     1     -12.068  15.654  70.426  1.00  0.00    -0.425 C  
BRANCH  12  13
HETATM   13  C   UNL     1     -11.787  14.765  69.214  1.00  0.00    -0.352 C  
BRANCH  13  14
HETATM   14  C   UNL     1     -10.290  14.690  68.931  1.00  0.00    -0.245 C  
BRANCH  14  15
HETATM   15  C   UNL     1      -9.920  15.460  67.664  1.00  0.00    -0.225 C  
BRANCH  15  16
HETATM   16  C   UNL     1      -9.775  16.950  67.968  1.00  0.00    -0.256 C  
BRANCH  16  17
HETATM   17  C   UNL     1     -10.207  17.813  66.786  1.00  0.00    -0.351 C  
HETATM   18  C   UNL     1     -10.366  19.263  67.184  1.00  0.00    -0.432 C  
HETATM   19  O   UNL     1     -10.174  19.719  68.300  1.00  0.00    -0.425 OA 
HETATM   20  O   UNL     1     -10.757  20.039  66.146  1.00  0.00    -0.405 OA 
ENDBRANCH  16  17
ENDBRANCH  15  16
ENDBRANCH  14  15
ENDBRANCH  13  14
ENDBRANCH  12  13
ENDBRANCH  11  12
ENDBRANCH  10  11
ENDBRANCH   8   9
ENDBRANCH   7   8
ENDBRANCH   5   6
ENDBRANCH   4   5
ENDBRANCH   2   3
TORSDOF 12
ENDMDL
MODEL      183
REMARK 921   NORMALIZED FREE ENERGY PREDICTED BY IDOCK:   -3.94 KCAL/MOL
REMARK 922        TOTAL FREE ENERGY PREDICTED BY IDOCK:   -8.55 KCAL/MOL
REMARK 923 INTER-LIGAND FREE ENERGY PREDICTED BY IDOCK:   -6.69 KCAL/MOL
REMARK 924 INTRA-LIGAND FREE ENERGY PREDICTED BY IDOCK:   -1.86 KCAL/MOL
REMARK 927      BINDING AFFINITY PREDICTED BY RF-SCORE:    0.00 PKD
ROOT
HETATM    1  C   UNL     1     -13.148  10.792  71.789  1.00  0.00    -0.573 C  
HETATM    2  C   UNL     1     -12.925  12.279  71.563  1.00  0.00    -0.390 C  
ENDROOT
BRANCH   2   3
HETATM    3  C   UNL     1     -13.757  13.115  72.493  1.00  0.00    -0.563 C  
HETATM    4  C   UNL     1     -14.025  14.423  72.343  1.00  0.00    -0.585 C  
BRANCH   4   5
HETATM    5  C   UNL     1     -13.498  15.275  71.224  1.00  0.00    -0.591 C  
BRANCH   5   6
HETATM    6  C   UNL     1     -12.058  15.654  71.420  1.00  0.00    -0.476 C  
HETATM    7  C   UNL     1     -11.126  15.686  70.451  1.00  0.00    -0.369 C  
BRANCH   7   8
HETATM    8  C   UNL     1     -11.392  15.300  69.024  1.00  0.00    -0.311 C  
BRANCH   8   9
HETATM    9  C   UNL     1     -10.288  14.468  68.442  1.00  0.00    -0.241 C  
HETATM   10  C   UNL     1     -10.423  13.197  68.022  1.00  0.00    -0.245 C  
BRANCH  10  11
HETATM   11  C   UNL     1     -11.734  12.463  68.018  1.00  0.00    -0.414 C  
BRANCH  11  12
HETATM   12  C   UNL     1     -11.588  10.996  68.408  1.00  0.00    -0.372 C  
BRANCH  12  13
HETATM   13  C   UNL     1     -10.223  10.752  69.054  1.00  0.00    -0.229 C  
BRANCH  13  14
HETATM   14  C   UNL     1     -10.271   9.544  69.984  1.00  0.00    -0.281 C  
BRANCH  14  15
HETATM   15  C   UNL     1      -8.967   8.747  69.933  1.00  0.00    -0.152 C  
BRANCH  15  16
HETATM   16  C   UNL     1      -9.034   7.684  68.838  1.00  0.00    -0.137 C  
BRANCH  16  17
HETATM   17  C   UNL     1      -8.262   8.107  67.592  1.00  0.00    -0.127 C  
HETATM   18  C   UNL     1      -9.191   8.398  66.434  1.00  0.00    -0.201 C  
HETATM   19  O   UNL     1     -10.409   8.321  66.464  1.00  0.00    -0.276 OA 
HETATM   20  O   UNL     1      -8.519   8.767  65.319  1.00  0.00    -0.155 OA 
ENDBRANCH  16  17
ENDBRANCH  15  16
ENDBRANCH  14  15
ENDBRANCH  13  14
ENDBRANCH  12  13
ENDBRANCH  11  12
ENDBRANCH  10  11
ENDBRANCH   8   9
ENDBRANCH   7   8
ENDBRANCH   5   6
ENDBRANCH   4   5
ENDBRANCH   2   3
TORSDOF 12
ENDMDL
MODEL      184
REMARK 921   NORMALIZED FREE ENERGY PREDICTED BY IDOCK:   -3.94 KCAL/MOL
REMARK 922        TOTAL FREE ENERGY PREDICTED BY IDOCK:   -8.55 KCAL/MOL
REMARK 923 INTER-LIGAND FREE ENERGY PREDICTED BY IDOCK:   -6.42 KCAL/MOL
REMARK 924 INTRA-LIGAND FREE ENERGY PREDICTED BY IDOCK:   -2.12 KCAL/MOL
REMARK 927      BINDING AFFINITY PREDICTED BY RF-SCORE:    0.00 PKD
ROOT
HETATM    1  C   UNL     1     -13.049  11.412  71.909  1.00  0.00    -0.505 C  
HETATM    2  C   UNL     1     -12.420  12.464  71.009  1.00  0.00    -0.353 C  
ENDROOT
BRANCH   2   3
HETATM    3  C   UNL     1     -12.887  13.849  71.359  1.00  0.00    -0.439 C  
HETATM    4  C   UNL     1     -12.736  14.942  70.594  1.00  0.00    -0.422 C  
BRANCH   4   5
HETATM    5  C   UNL     1     -12.034  14.960  69.266  1.00  0.00    -0.326 C  
BRANCH   5   6
HETATM    6  C   UNL     1     -11.433  16.300  68.951  1.00  0.00    -0.282 C  
HETATM    7  C   UNL     1     -10.141  16.629  69.123  1.00  0.00    -0.285 C  
BRANCH   7   8
HETATM    8  C   UNL     1      -9.113  15.700  69.702  1.00  0.00    -0.165 C  
BRANCH   8   9
HETATM    9  C   UNL     1      -7.762  15.878  69.073  1.00  0.00    -0.209 C  
HETATM   10  C   UNL     1      -7.382  15.335  67.903  1.00  0.00    -0.155 C  
BRANCH  10  11
HETATM   11  C   UNL     1      -8.299  14.527  67.030  1.00  0.00    -0.195 C  
BRANCH  11  12
HETATM   12  C   UNL     1      -8.154  13.026  67.256  1.00  0.00    -0.164 C  
BRANCH  12  13
HETATM   13  C   UNL     1      -9.250  12.522  68.195  1.00  0.00    -0.209 C  
BRANCH  13  14
HETATM   14  C   UNL     1     -10.233  11.624  67.450  1.00  0.00    -0.226 C  
BRANCH  14  15
HETATM   15  C   UNL     1     -11.652  12.188  67.494  1.00  0.00    -0.413 C  
BRANCH  15  16
HETATM   16  C   UNL     1     -12.094  12.632  66.101  1.00  0.00    -0.399 C  
BRANCH  16  17
HETATM   17  C   UNL     1     -11.948  14.139  65.915  1.00  0.00    -0.420 C  
HETATM   18  C   UNL     1     -10.919  14.473  64.858  1.00  0.00    -0.410 C  
HETATM   19  O   UNL     1     -10.275  13.662  64.213  1.00  0.00    -0.350 OA 
HETATM   20  O   UNL     1     -10.774  15.808  64.689  1.00  0.00    -0.497 OA 
ENDBRANCH  16  17
ENDBRANCH  15  16
ENDBRANCH  14  15
ENDBRANCH  13  14
ENDBRANCH  12  13
ENDBRANCH  11  12
ENDBRANCH  10  11
ENDBRANCH   8   9
ENDBRANCH   7   8
ENDBRANCH   5   6
ENDBRANCH   4   5
ENDBRANCH   2   3
TORSDOF 12
ENDMDL
MODEL      185
REMARK 921   NORMALIZED FREE ENERGY PREDICTED BY IDOCK:   -3.94 KCAL/MOL
REMARK 922        TOTAL FREE ENERGY PREDICTED BY IDOCK:   -8.54 KCAL/MOL
REMARK 923 INTER-LIGAND FREE ENERGY PREDICTED BY IDOCK:   -6.71 KCAL/MOL
REMARK 924 INTRA-LIGAND FREE ENERGY PREDICTED BY IDOCK:   -1.83 KCAL/MOL
REMARK 927      BINDING AFFINITY PREDICTED BY RF-SCORE:    0.00 PKD
ROOT
HETATM    1  C   UNL     1     -12.472  10.113  70.831  1.00  0.00    -0.455 C  
HETATM    2  C   UNL     1     -12.448  11.630  70.927  1.00  0.00    -0.440 C  
ENDROOT
BRANCH   2   3
HETATM    3  C   UNL     1     -13.294  12.130  72.063  1.00  0.00    -0.470 C  
HETATM    4  C   UNL     1     -13.749  13.386  72.207  1.00  0.00    -0.705 C  
BRANCH   4   5
HETATM    5  C   UNL     1     -13.448  14.513  71.260  1.00  0.00    -0.428 C  
BRANCH   5   6
HETATM    6  C   UNL     1     -12.209  15.270  71.643  1.00  0.00    -0.433 C  
HETATM    7  C   UNL     1     -11.337  15.818  70.777  1.00  0.00    -0.419 C  
BRANCH   7   8
HETATM    8  C   UNL     1     -11.463  15.709  69.285  1.00  0.00    -0.368 C  
BRANCH   8   9
HETATM    9  C   UNL     1     -10.286  15.018  68.662  1.00  0.00    -0.231 C  
HETATM   10  C   UNL     1     -10.344  13.853  67.991  1.00  0.00    -0.245 C  
BRANCH  10  11
HETATM   11  C   UNL     1     -11.628  13.122  67.716  1.00  0.00    -0.379 C  
BRANCH  11  12
HETATM   12  C   UNL     1     -11.403  11.772  67.044  1.00  0.00    -0.387 C  
BRANCH  12  13
HETATM   13  C   UNL     1     -10.510  10.888  67.916  1.00  0.00    -0.227 C  
BRANCH  13  14
HETATM   14  C   UNL     1     -10.662   9.419  67.533  1.00  0.00    -0.290 C  
BRANCH  14  15
HETATM   15  C   UNL     1     -10.180   8.496  68.652  1.00  0.00    -0.217 C  
BRANCH  15  16
HETATM   16  C   UNL     1      -8.904   9.046  69.286  1.00  0.00    -0.139 C  
BRANCH  16  17
HETATM   17  C   UNL     1      -9.113   9.410  70.753  1.00  0.00    -0.268 C  
HETATM   18  C   UNL     1      -8.614   8.318  71.674  1.00  0.00    -0.155 C  
HETATM   19  O   UNL     1      -8.098   7.270  71.318  1.00  0.00    -0.100 OA 
HETATM   20  O   UNL     1      -8.801   8.624  72.979  1.00  0.00    -0.355 OA 
ENDBRANCH  16  17
ENDBRANCH  15  16
ENDBRANCH  14  15
ENDBRANCH  13  14
ENDBRANCH  12  13
ENDBRANCH  11  12
ENDBRANCH  10  11
ENDBRANCH   8   9
ENDBRANCH   7   8
ENDBRANCH   5   6
ENDBRANCH   4   5
ENDBRANCH   2   3
TORSDOF 12
ENDMDL
MODEL      186
REMARK 921   NORMALIZED FREE ENERGY PREDICTED BY IDOCK:   -3.94 KCAL/MOL
REMARK 922        TOTAL FREE ENERGY PREDICTED BY IDOCK:   -8.54 KCAL/MOL
REMARK 923 INTER-LIGAND FREE ENERGY PREDICTED BY IDOCK:   -6.41 KCAL/MOL
REMARK 924 INTRA-LIGAND FREE ENERGY PREDICTED BY IDOCK:   -2.13 KCAL/MOL
REMARK 927      BINDING AFFINITY PREDICTED BY RF-SCORE:    0.00 PKD
ROOT
HETATM    1  C   UNL     1      -7.989   8.843  67.528  1.00  0.00    -0.101 C  
HETATM    2  C   UNL     1      -8.998   9.820  68.110  1.00  0.00    -0.119 C  
ENDROOT
BRANCH   2   3
HETATM    3  C   UNL     1      -8.835   9.969  69.597  1.00  0.00    -0.217 C  
HETATM    4  C   UNL     1      -9.616   9.401  70.530  1.00  0.00    -0.330 C  
BRANCH   4   5
HETATM    5  C   UNL     1     -10.813   8.544  70.231  1.00  0.00    -0.249 C  
BRANCH   5   6
HETATM    6  C   UNL     1     -11.509   8.074  71.476  1.00  0.00    -0.303 C  
HETATM    7  C   UNL     1     -12.668   8.566  71.948  1.00  0.00    -0.401 C  
BRANCH   7   8
HETATM    8  C   UNL     1     -13.416   9.700  71.307  1.00  0.00    -0.359 C  
BRANCH   8   9
HETATM    9  C   UNL     1     -13.095  11.024  71.934  1.00  0.00    -0.525 C  
HETATM   10  C   UNL     1     -12.448  12.030  71.318  1.00  0.00    -0.303 C  
BRANCH  10  11
HETATM   11  C   UNL     1     -12.023  11.980  69.878  1.00  0.00    -0.391 C  
BRANCH  11  12
HETATM   12  C   UNL     1     -11.683  13.356  69.317  1.00  0.00    -0.383 C  
BRANCH  12  13
HETATM   13  C   UNL     1     -10.312  13.329  68.639  1.00  0.00    -0.206 C  
BRANCH  13  14
HETATM   14  C   UNL     1     -10.415  13.790  67.189  1.00  0.00    -0.272 C  
BRANCH  14  15
HETATM   15  C   UNL     1     -11.862  13.775  66.698  1.00  0.00    -0.445 C  
BRANCH  15  16
HETATM   16  C   UNL     1     -12.064  12.666  65.668  1.00  0.00    -0.502 C  
BRANCH  16  17
HETATM   17  C   UNL     1     -10.845  11.755  65.572  1.00  0.00    -0.348 C  
HETATM   18  C   UNL     1     -10.282  11.722  64.168  1.00  0.00    -0.322 C  
HETATM   19  O   UNL     1     -10.723  12.341  63.212  1.00  0.00    -0.427 OA 
HETATM   20  O   UNL     1      -9.204  10.910  64.067  1.00  0.00    -0.204 OA 
ENDBRANCH  16  17
ENDBRANCH  15  16
ENDBRANCH  14  15
ENDBRANCH  13  14
ENDBRANCH  12  13
ENDBRANCH  11  12
ENDBRANCH  10  11
ENDBRANCH   8   9
ENDBRANCH   7   8
ENDBRANCH   5   6
ENDBRANCH   4   5
ENDBRANCH   2   3
TORSDOF 12
ENDMDL
MODEL      187
REMARK 921   NORMALIZED FREE ENERGY PREDICTED BY IDOCK:   -3.93 KCAL/MOL
REMARK 922        TOTAL FREE ENERGY PREDICTED BY IDOCK:   -8.54 KCAL/MOL
REMARK 923 INTER-LIGAND FREE ENERGY PREDICTED BY IDOCK:   -6.33 KCAL/MOL
REMARK 924 INTRA-LIGAND FREE ENERGY PREDICTED BY IDOCK:   -2.21 KCAL/MOL
REMARK 927      BINDING AFFINITY PREDICTED BY RF-SCORE:    0.00 PKD
ROOT
HETATM    1  C   UNL     1     -11.476  13.285  68.209  1.00  0.00    -0.351 C  
HETATM    2  C   UNL     1     -10.023  13.727  68.150  1.00  0.00    -0.242 C  
ENDROOT
BRANCH   2   3
HETATM    3  C   UNL     1      -9.858  15.160  68.570  1.00  0.00    -0.220 C  
HETATM    4  C   UNL     1      -9.589  16.190  67.751  1.00  0.00    -0.223 C  
BRANCH   4   5
HETATM    5  C   UNL     1      -9.372  16.064  66.270  1.00  0.00    -0.356 C  
BRANCH   5   6
HETATM    6  C   UNL     1     -10.651  16.176  65.490  1.00  0.00    -0.394 C  
HETATM    7  C   UNL     1     -11.197  15.193  64.753  1.00  0.00    -0.396 C  
BRANCH   7   8
HETATM    8  C   UNL     1     -10.571  13.840  64.569  1.00  0.00    -0.405 C  
BRANCH   8   9
HETATM    9  C   UNL     1     -11.579  12.731  64.634  1.00  0.00    -0.384 C  
HETATM   10  C   UNL     1     -11.282  11.419  64.607  1.00  0.00    -0.220 C  
BRANCH  10  11
HETATM   11  C   UNL     1      -9.875  10.891  64.581  1.00  0.00    -0.350 C  
BRANCH  11  12
HETATM   12  C   UNL     1      -9.289  10.711  65.977  1.00  0.00    -0.219 C  
BRANCH  12  13
HETATM   13  C   UNL     1     -10.236   9.886  66.848  1.00  0.00    -0.302 C  
BRANCH  13  14
HETATM   14  C   UNL     1      -9.454   8.948  67.762  1.00  0.00    -0.163 C  
BRANCH  14  15
HETATM   15  C   UNL     1     -10.237   8.624  69.034  1.00  0.00    -0.218 C  
BRANCH  15  16
HETATM   16  C   UNL     1      -9.994   9.693  70.097  1.00  0.00    -0.309 C  
BRANCH  16  17
HETATM   17  C   UNL     1     -11.293  10.367  70.527  1.00  0.00    -0.424 C  
HETATM   18  C   UNL     1     -11.918   9.668  71.714  1.00  0.00    -0.347 C  
HETATM   19  O   UNL     1     -11.460   8.689  72.283  1.00  0.00    -0.365 OA 
HETATM   20  O   UNL     1     -13.076  10.251  72.101  1.00  0.00    -0.438 OA 
ENDBRANCH  16  17
ENDBRANCH  15  16
ENDBRANCH  14  15
ENDBRANCH  13  14
ENDBRANCH  12  13
ENDBRANCH  11  12
ENDBRANCH  10  11
ENDBRANCH   8   9
ENDBRANCH   7   8
ENDBRANCH   5   6
ENDBRANCH   4   5
ENDBRANCH   2   3
TORSDOF 12
ENDMDL
MODEL      188
REMARK 921   NORMALIZED FREE ENERGY PREDICTED BY IDOCK:   -3.93 KCAL/MOL
REMARK 922        TOTAL FREE ENERGY PREDICTED BY IDOCK:   -8.53 KCAL/MOL
REMARK 923 INTER-LIGAND FREE ENERGY PREDICTED BY IDOCK:   -7.04 KCAL/MOL
REMARK 924 INTRA-LIGAND FREE ENERGY PREDICTED BY IDOCK:   -1.49 KCAL/MOL
REMARK 927      BINDING AFFINITY PREDICTED BY RF-SCORE:    0.00 PKD
ROOT
HETATM    1  C   UNL     1      -9.393   6.583  69.420  1.00  0.00    -0.143 C  
HETATM    2  C   UNL     1     -10.781   7.201  69.451  1.00  0.00    -0.246 C  
ENDROOT
BRANCH   2   3
HETATM    3  C   UNL     1     -11.678   6.508  70.437  1.00  0.00    -0.439 C  
HETATM    4  C   UNL     1     -12.191   7.058  71.550  1.00  0.00    -0.407 C  
BRANCH   4   5
HETATM    5  C   UNL     1     -11.914   8.462  72.009  1.00  0.00    -0.419 C  
BRANCH   5   6
HETATM    6  C   UNL     1     -13.084   9.378  71.792  1.00  0.00    -0.488 C  
HETATM    7  C   UNL     1     -13.042  10.541  71.117  1.00  0.00    -0.450 C  
BRANCH   7   8
HETATM    8  C   UNL     1     -11.790  11.113  70.516  1.00  0.00    -0.448 C  
BRANCH   8   9
HETATM    9  C   UNL     1     -11.558  10.631  69.114  1.00  0.00    -0.342 C  
HETATM   10  C   UNL     1     -11.578  11.413  68.019  1.00  0.00    -0.357 C  
BRANCH  10  11
HETATM   11  C   UNL     1     -11.768  12.902  68.071  1.00  0.00    -0.401 C  
BRANCH  11  12
HETATM   12  C   UNL     1     -12.185  13.489  66.726  1.00  0.00    -0.392 C  
BRANCH  12  13
HETATM   13  C   UNL     1     -11.681  12.606  65.584  1.00  0.00    -0.458 C  
BRANCH  13  14
HETATM   14  C   UNL     1     -10.873  13.425  64.582  1.00  0.00    -0.405 C  
BRANCH  14  15
HETATM   15  C   UNL     1     -10.995  14.924  64.855  1.00  0.00    -0.422 C  
BRANCH  15  16
HETATM   16  C   UNL     1      -9.702  15.462  65.466  1.00  0.00    -0.318 C  
BRANCH  16  17
HETATM   17  C   UNL     1      -9.979  16.431  66.611  1.00  0.00    -0.281 C  
HETATM   18  C   UNL     1      -9.441  15.910  67.924  1.00  0.00    -0.213 C  
HETATM   19  O   UNL     1      -8.848  14.854  68.080  1.00  0.00    -0.165 OA 
HETATM   20  O   UNL     1      -9.687  16.757  68.951  1.00  0.00    -0.246 OA 
ENDBRANCH  16  17
ENDBRANCH  15  16
ENDBRANCH  14  15
ENDBRANCH  13  14
ENDBRANCH  12  13
ENDBRANCH  11  12
ENDBRANCH  10  11
ENDBRANCH   8   9
ENDBRANCH   7   8
ENDBRANCH   5   6
ENDBRANCH   4   5
ENDBRANCH   2   3
TORSDOF 12
ENDMDL
MODEL      189
REMARK 921   NORMALIZED FREE ENERGY PREDICTED BY IDOCK:   -3.93 KCAL/MOL
REMARK 922        TOTAL FREE ENERGY PREDICTED BY IDOCK:   -8.53 KCAL/MOL
REMARK 923 INTER-LIGAND FREE ENERGY PREDICTED BY IDOCK:   -6.81 KCAL/MOL
REMARK 924 INTRA-LIGAND FREE ENERGY PREDICTED BY IDOCK:   -1.72 KCAL/MOL
REMARK 927      BINDING AFFINITY PREDICTED BY RF-SCORE:    0.00 PKD
ROOT
HETATM    1  C   UNL     1     -12.832  11.095  71.328  1.00  0.00    -0.515 C  
HETATM    2  C   UNL     1     -12.007  10.504  70.196  1.00  0.00    -0.398 C  
ENDROOT
BRANCH   2   3
HETATM    3  C   UNL     1     -10.740   9.873  70.700  1.00  0.00    -0.372 C  
HETATM    4  C   UNL     1     -10.569   8.569  70.973  1.00  0.00    -0.267 C  
BRANCH   4   5
HETATM    5  C   UNL     1     -11.644   7.527  70.849  1.00  0.00    -0.309 C  
BRANCH   5   6
HETATM    6  C   UNL     1     -11.086   6.148  70.643  1.00  0.00    -0.384 C  
HETATM    7  C   UNL     1     -10.767   5.612  69.451  1.00  0.00    -0.365 C  
BRANCH   7   8
HETATM    8  C   UNL     1     -10.968   6.315  68.139  1.00  0.00    -0.412 C  
BRANCH   8   9
HETATM    9  C   UNL     1      -9.686   6.857  67.579  1.00  0.00    -0.162 C  
HETATM   10  C   UNL     1      -9.525   8.099  67.089  1.00  0.00    -0.207 C  
BRANCH  10  11
HETATM   11  C   UNL     1     -10.608   9.141  67.107  1.00  0.00    -0.286 C  
BRANCH  11  12
HETATM   12  C   UNL     1     -10.183  10.442  66.435  1.00  0.00    -0.292 C  
BRANCH  12  13
HETATM   13  C   UNL     1     -10.094  10.252  64.920  1.00  0.00    -0.346 C  
BRANCH  13  14
HETATM   14  C   UNL     1     -10.626  11.480  64.187  1.00  0.00    -0.420 C  
BRANCH  14  15
HETATM   15  C   UNL     1     -10.168  12.775  64.859  1.00  0.00    -0.294 C  
BRANCH  15  16
HETATM   16  C   UNL     1     -11.226  13.863  64.696  1.00  0.00    -0.380 C  
BRANCH  16  17
HETATM   17  C   UNL     1     -10.982  15.035  65.642  1.00  0.00    -0.357 C  
HETATM   18  C   UNL     1     -11.586  14.785  67.006  1.00  0.00    -0.339 C  
HETATM   19  O   UNL     1     -12.192  13.780  67.341  1.00  0.00    -0.368 OA 
HETATM   20  O   UNL     1     -11.383  15.821  67.854  1.00  0.00    -0.338 OA 
ENDBRANCH  16  17
ENDBRANCH  15  16
ENDBRANCH  14  15
ENDBRANCH  13  14
ENDBRANCH  12  13
ENDBRANCH  11  12
ENDBRANCH  10  11
ENDBRANCH   8   9
ENDBRANCH   7   8
ENDBRANCH   5   6
ENDBRANCH   4   5
ENDBRANCH   2   3
TORSDOF 12
ENDMDL
MODEL      190
REMARK 921   NORMALIZED FREE ENERGY PREDICTED BY IDOCK:   -3.92 KCAL/MOL
REMARK 922        TOTAL FREE ENERGY PREDICTED BY IDOCK:   -8.52 KCAL/MOL
REMARK 923 INTER-LIGAND FREE ENERGY PREDICTED BY IDOCK:   -6.25 KCAL/MOL
REMARK 924 INTRA-LIGAND FREE ENERGY PREDICTED BY IDOCK:   -2.27 KCAL/MOL
REMARK 927      BINDING AFFINITY PREDICTED BY RF-SCORE:    0.00 PKD
ROOT
HETATM    1  C   UNL     1     -12.649  10.601  71.324  1.00  0.00    -0.533 C  
HETATM    2  C   UNL     1     -12.298  11.115  69.937  1.00  0.00    -0.330 C  
ENDROOT
BRANCH   2   3
HETATM    3  C   UNL     1     -11.952  12.577  69.956  1.00  0.00    -0.372 C  
HETATM    4  C   UNL     1     -11.737  13.345  68.875  1.00  0.00    -0.369 C  
BRANCH   4   5
HETATM    5  C   UNL     1     -11.774  12.847  67.458  1.00  0.00    -0.422 C  
BRANCH   5   6
HETATM    6  C   UNL     1     -12.408  13.833  66.519  1.00  0.00    -0.432 C  
HETATM    7  C   UNL     1     -11.931  14.165  65.306  1.00  0.00    -0.383 C  
BRANCH   7   8
HETATM    8  C   UNL     1     -10.655  13.619  64.732  1.00  0.00    -0.436 C  
BRANCH   8   9
HETATM    9  C   UNL     1     -10.900  12.657  63.607  1.00  0.00    -0.437 C  
HETATM   10  C   UNL     1     -10.620  11.342  63.644  1.00  0.00    -0.476 C  
BRANCH  10  11
HETATM   11  C   UNL     1     -10.084  10.645  64.862  1.00  0.00    -0.402 C  
BRANCH  11  12
HETATM   12  C   UNL     1      -8.602  10.311  64.743  1.00  0.00    -0.193 C  
BRANCH  12  13
HETATM   13  C   UNL     1      -7.844  10.814  65.972  1.00  0.00    -0.149 C  
BRANCH  13  14
HETATM   14  C   UNL     1      -8.808  11.379  67.010  1.00  0.00    -0.168 C  
BRANCH  14  15
HETATM   15  C   UNL     1      -8.335  11.083  68.433  1.00  0.00    -0.139 C  
BRANCH  15  16
HETATM   16  C   UNL     1      -8.937   9.772  68.934  1.00  0.00    -0.144 C  
BRANCH  16  17
HETATM   17  C   UNL     1     -10.089   9.305  68.050  1.00  0.00    -0.234 C  
HETATM   18  C   UNL     1      -9.914   7.864  67.623  1.00  0.00    -0.181 C  
HETATM   19  O   UNL     1      -8.984   7.138  67.936  1.00  0.00    -0.124 OA 
HETATM   20  O   UNL     1     -10.926   7.439  66.830  1.00  0.00    -0.324 OA 
ENDBRANCH  16  17
ENDBRANCH  15  16
ENDBRANCH  14  15
ENDBRANCH  13  14
ENDBRANCH  12  13
ENDBRANCH  11  12
ENDBRANCH  10  11
ENDBRANCH   8   9
ENDBRANCH   7   8
ENDBRANCH   5   6
ENDBRANCH   4   5
ENDBRANCH   2   3
TORSDOF 12
ENDMDL
MODEL      191
REMARK 921   NORMALIZED FREE ENERGY PREDICTED BY IDOCK:   -3.91 KCAL/MOL
REMARK 922        TOTAL FREE ENERGY PREDICTED BY IDOCK:   -8.50 KCAL/MOL
REMARK 923 INTER-LIGAND FREE ENERGY PREDICTED BY IDOCK:   -6.28 KCAL/MOL
REMARK 924 INTRA-LIGAND FREE ENERGY PREDICTED BY IDOCK:   -2.22 KCAL/MOL
REMARK 927      BINDING AFFINITY PREDICTED BY RF-SCORE:    0.00 PKD
ROOT
HETATM    1  C   UNL     1     -12.609  13.676  65.365  1.00  0.00    -0.533 C  
HETATM    2  C   UNL     1     -11.658  12.767  66.128  1.00  0.00    -0.431 C  
ENDROOT
BRANCH   2   3
HETATM    3  C   UNL     1     -10.937  13.506  67.220  1.00  0.00    -0.293 C  
HETATM    4  C   UNL     1     -11.136  13.344  68.539  1.00  0.00    -0.299 C  
BRANCH   4   5
HETATM    5  C   UNL     1     -12.151  12.411  69.137  1.00  0.00    -0.195 C  
BRANCH   5   6
HETATM    6  C   UNL     1     -12.252  12.553  70.629  1.00  0.00    -0.365 C  
HETATM    7  C   UNL     1     -12.726  11.613  71.465  1.00  0.00    -0.423 C  
BRANCH   7   8
HETATM    8  C   UNL     1     -13.269  10.288  71.012  1.00  0.00    -0.399 C  
BRANCH   8   9
HETATM    9  C   UNL     1     -13.266   9.264  72.108  1.00  0.00    -0.535 C  
HETATM   10  C   UNL     1     -12.374   8.263  72.223  1.00  0.00    -0.410 C  
BRANCH  10  11
HETATM   11  C   UNL     1     -11.208   8.085  71.293  1.00  0.00    -0.287 C  
BRANCH  11  12
HETATM   12  C   UNL     1      -9.879   8.462  71.937  1.00  0.00    -0.328 C  
BRANCH  12  13
HETATM   13  C   UNL     1      -8.965   9.136  70.913  1.00  0.00    -0.298 C  
BRANCH  13  14
HETATM   14  C   UNL     1      -9.783   9.782  69.799  1.00  0.00    -0.256 C  
BRANCH  14  15
HETATM   15  C   UNL     1      -8.883  10.359  68.707  1.00  0.00    -0.157 C  
BRANCH  15  16
HETATM   16  C   UNL     1      -8.741   9.368  67.554  1.00  0.00    -0.123 C  
BRANCH  16  17
HETATM   17  C   UNL     1      -9.754   9.640  66.446  1.00  0.00    -0.285 C  
HETATM   18  C   UNL     1      -9.080  10.119  65.179  1.00  0.00    -0.201 C  
HETATM   19  O   UNL     1      -7.878  10.271  65.029  1.00  0.00    -0.139 OA 
HETATM   20  O   UNL     1      -9.968  10.373  64.190  1.00  0.00    -0.328 OA 
ENDBRANCH  16  17
ENDBRANCH  15  16
ENDBRANCH  14  15
ENDBRANCH  13  14
ENDBRANCH  12  13
ENDBRANCH  11  12
ENDBRANCH  10  11
ENDBRANCH   8   9
ENDBRANCH   7   8
ENDBRANCH   5   6
ENDBRANCH   4   5
ENDBRANCH   2   3
TORSDOF 12
ENDMDL
MODEL      192
REMARK 921   NORMALIZED FREE ENERGY PREDICTED BY IDOCK:   -3.90 KCAL/MOL
REMARK 922        TOTAL FREE ENERGY PREDICTED BY IDOCK:   -8.49 KCAL/MOL
REMARK 923 INTER-LIGAND FREE ENERGY PREDICTED BY IDOCK:   -6.77 KCAL/MOL
REMARK 924 INTRA-LIGAND FREE ENERGY PREDICTED BY IDOCK:   -1.71 KCAL/MOL
REMARK 927      BINDING AFFINITY PREDICTED BY RF-SCORE:    0.00 PKD
ROOT
HETATM    1  C   UNL     1      -7.628   6.611  71.583  1.00  0.00    -0.093 C  
HETATM    2  C   UNL     1      -9.066   6.557  71.092  1.00  0.00    -0.152 C  
ENDROOT
BRANCH   2   3
HETATM    3  C   UNL     1      -9.358   5.276  70.363  1.00  0.00    -0.208 C  
HETATM    4  C   UNL     1     -10.273   5.119  69.392  1.00  0.00    -0.293 C  
BRANCH   4   5
HETATM    5  C   UNL     1     -11.185   6.207  68.899  1.00  0.00    -0.338 C  
BRANCH   5   6
HETATM    6  C   UNL     1     -10.928   6.566  67.464  1.00  0.00    -0.444 C  
HETATM    7  C   UNL     1     -10.528   7.773  67.027  1.00  0.00    -0.419 C  
BRANCH   7   8
HETATM    8  C   UNL     1     -10.321   8.959  67.925  1.00  0.00    -0.286 C  
BRANCH   8   9
HETATM    9  C   UNL     1      -8.869   9.287  68.114  1.00  0.00    -0.129 C  
HETATM   10  C   UNL     1      -8.202  10.242  67.441  1.00  0.00    -0.114 C  
BRANCH  10  11
HETATM   11  C   UNL     1      -8.855  11.163  66.449  1.00  0.00    -0.182 C  
BRANCH  11  12
HETATM   12  C   UNL     1      -8.875  10.588  65.037  1.00  0.00    -0.207 C  
BRANCH  12  13
HETATM   13  C   UNL     1     -10.195  10.929  64.345  1.00  0.00    -0.423 C  
BRANCH  13  14
HETATM   14  C   UNL     1     -11.138  11.653  65.300  1.00  0.00    -0.298 C  
BRANCH  14  15
HETATM   15  C   UNL     1     -12.163  12.496  64.544  1.00  0.00    -0.528 C  
BRANCH  15  16
HETATM   16  C   UNL     1     -12.586  13.701  65.381  1.00  0.00    -0.533 C  
BRANCH  16  17
HETATM   17  C   UNL     1     -11.418  14.650  65.636  1.00  0.00    -0.340 C  
HETATM   18  C   UNL     1     -11.487  15.870  64.745  1.00  0.00    -0.234 C  
HETATM   19  O   UNL     1     -12.358  16.099  63.921  1.00  0.00    -0.895 OA 
HETATM   20  O   UNL     1     -10.452  16.716  64.954  1.00  0.00    -0.657 OA 
ENDBRANCH  16  17
ENDBRANCH  15  16
ENDBRANCH  14  15
ENDBRANCH  13  14
ENDBRANCH  12  13
ENDBRANCH  11  12
ENDBRANCH  10  11
ENDBRANCH   8   9
ENDBRANCH   7   8
ENDBRANCH   5   6
ENDBRANCH   4   5
ENDBRANCH   2   3
TORSDOF 12
ENDMDL
MODEL      193
REMARK 921   NORMALIZED FREE ENERGY PREDICTED BY IDOCK:   -3.90 KCAL/MOL
REMARK 922        TOTAL FREE ENERGY PREDICTED BY IDOCK:   -8.48 KCAL/MOL
REMARK 923 INTER-LIGAND FREE ENERGY PREDICTED BY IDOCK:   -6.54 KCAL/MOL
REMARK 924 INTRA-LIGAND FREE ENERGY PREDICTED BY IDOCK:   -1.94 KCAL/MOL
REMARK 927      BINDING AFFINITY PREDICTED BY RF-SCORE:    0.00 PKD
ROOT
HETATM    1  C   UNL     1      -9.033   9.050  70.773  1.00  0.00    -0.286 C  
HETATM    2  C   UNL     1     -10.457   9.302  71.242  1.00  0.00    -0.408 C  
ENDROOT
BRANCH   2   3
HETATM    3  C   UNL     1     -10.939   8.222  72.168  1.00  0.00    -0.396 C  
HETATM    4  C   UNL     1     -11.602   7.113  71.800  1.00  0.00    -0.314 C  
BRANCH   4   5
HETATM    5  C   UNL     1     -12.004   6.793  70.388  1.00  0.00    -0.343 C  
BRANCH   5   6
HETATM    6  C   UNL     1     -11.005   5.914  69.692  1.00  0.00    -0.447 C  
HETATM    7  C   UNL     1     -10.522   6.120  68.454  1.00  0.00    -0.280 C  
BRANCH   7   8
HETATM    8  C   UNL     1     -10.955   7.251  67.567  1.00  0.00    -0.221 C  
BRANCH   8   9
HETATM    9  C   UNL     1      -9.816   8.156  67.198  1.00  0.00    -0.281 C  
HETATM   10  C   UNL     1      -9.859   9.500  67.233  1.00  0.00    -0.228 C  
BRANCH  10  11
HETATM   11  C   UNL     1     -11.050  10.276  67.720  1.00  0.00    -0.335 C  
BRANCH  11  12
HETATM   12  C   UNL     1     -11.347  11.499  66.858  1.00  0.00    -0.324 C  
BRANCH  12  13
HETATM   13  C   UNL     1     -11.616  12.717  67.742  1.00  0.00    -0.405 C  
BRANCH  13  14
HETATM   14  C   UNL     1     -11.740  12.309  69.206  1.00  0.00    -0.388 C  
BRANCH  14  15
HETATM   15  C   UNL     1     -12.044  13.512  70.099  1.00  0.00    -0.425 C  
BRANCH  15  16
HETATM   16  C   UNL     1     -11.902  14.812  69.310  1.00  0.00    -0.352 C  
BRANCH  16  17
HETATM   17  C   UNL     1     -10.584  15.517  69.614  1.00  0.00    -0.285 C  
HETATM   18  C   UNL     1     -10.315  16.641  68.639  1.00  0.00    -0.304 C  
HETATM   19  O   UNL     1     -11.045  16.971  67.717  1.00  0.00    -0.263 OA 
HETATM   20  O   UNL     1      -9.144  17.270  68.892  1.00  0.00    -0.252 OA 
ENDBRANCH  16  17
ENDBRANCH  15  16
ENDBRANCH  14  15
ENDBRANCH  13  14
ENDBRANCH  12  13
ENDBRANCH  11  12
ENDBRANCH  10  11
ENDBRANCH   8   9
ENDBRANCH   7   8
ENDBRANCH   5   6
ENDBRANCH   4   5
ENDBRANCH   2   3
TORSDOF 12
ENDMDL
MODEL      194
REMARK 921   NORMALIZED FREE ENERGY PREDICTED BY IDOCK:   -3.89 KCAL/MOL
REMARK 922        TOTAL FREE ENERGY PREDICTED BY IDOCK:   -8.46 KCAL/MOL
REMARK 923 INTER-LIGAND FREE ENERGY PREDICTED BY IDOCK:   -6.56 KCAL/MOL
REMARK 924 INTRA-LIGAND FREE ENERGY PREDICTED BY IDOCK:   -1.90 KCAL/MOL
REMARK 927      BINDING AFFINITY PREDICTED BY RF-SCORE:    0.00 PKD
ROOT
HETATM    1  C   UNL     1     -12.392  12.335  63.639  1.00  0.00    -0.664 C  
HETATM    2  C   UNL     1     -12.359  12.475  65.153  1.00  0.00    -0.496 C  
ENDROOT
BRANCH   2   3
HETATM    3  C   UNL     1     -10.953  12.506  65.680  1.00  0.00    -0.323 C  
HETATM    4  C   UNL     1     -10.491  13.331  66.634  1.00  0.00    -0.279 C  
BRANCH   4   5
HETATM    5  C   UNL     1     -11.312  14.394  67.308  1.00  0.00    -0.357 C  
BRANCH   5   6
HETATM    6  C   UNL     1     -10.728  14.822  68.624  1.00  0.00    -0.253 C  
HETATM    7  C   UNL     1     -11.270  14.574  69.829  1.00  0.00    -0.276 C  
BRANCH   7   8
HETATM    8  C   UNL     1     -12.576  13.859  70.026  1.00  0.00    -0.226 C  
BRANCH   8   9
HETATM    9  C   UNL     1     -12.465  12.723  71.000  1.00  0.00    -0.369 C  
HETATM   10  C   UNL     1     -12.173  11.452  70.668  1.00  0.00    -0.484 C  
BRANCH  10  11
HETATM   11  C   UNL     1     -11.848  11.018  69.267  1.00  0.00    -0.411 C  
BRANCH  11  12
HETATM   12  C   UNL     1     -10.407  10.539  69.119  1.00  0.00    -0.240 C  
BRANCH  12  13
HETATM   13  C   UNL     1     -10.370   9.025  68.912  1.00  0.00    -0.232 C  
BRANCH  13  14
HETATM   14  C   UNL     1     -10.443   8.292  70.247  1.00  0.00    -0.221 C  
BRANCH  14  15
HETATM   15  C   UNL     1     -11.813   7.649  70.460  1.00  0.00    -0.102 C  
BRANCH  15  16
HETATM   16  C   UNL     1     -12.048   7.371  71.943  1.00  0.00    -0.341 C  
BRANCH  16  17
HETATM   17  C   UNL     1     -10.891   7.872  72.802  1.00  0.00    -0.451 C  
HETATM   18  C   UNL     1     -10.324   6.771  73.670  1.00  0.00    -0.344 C  
HETATM   19  O   UNL     1     -10.717   5.615  73.698  1.00  0.00    -0.262 OA 
HETATM   20  O   UNL     1      -9.302   7.203  74.444  1.00  0.00    -0.225 OA 
ENDBRANCH  16  17
ENDBRANCH  15  16
ENDBRANCH  14  15
ENDBRANCH  13  14
ENDBRANCH  12  13
ENDBRANCH  11  12
ENDBRANCH  10  11
ENDBRANCH   8   9
ENDBRANCH   7   8
ENDBRANCH   5   6
ENDBRANCH   4   5
ENDBRANCH   2   3
TORSDOF 12
ENDMDL
MODEL      195
REMARK 921   NORMALIZED FREE ENERGY PREDICTED BY IDOCK:   -3.85 KCAL/MOL
REMARK 922        TOTAL FREE ENERGY PREDICTED BY IDOCK:   -8.39 KCAL/MOL
REMARK 923 INTER-LIGAND FREE ENERGY PREDICTED BY IDOCK:   -7.08 KCAL/MOL
REMARK 924 INTRA-LIGAND FREE ENERGY PREDICTED BY IDOCK:   -1.32 KCAL/MOL
REMARK 927      BINDING AFFINITY PREDICTED BY RF-SCORE:    0.00 PKD
ROOT
HETATM    1  C   UNL     1     -14.094  13.633  72.323  1.00  0.00    -0.602 C  
HETATM    2  C   UNL     1     -14.295  14.873  71.465  1.00  0.00    -0.631 C  
ENDROOT
BRANCH   2   3
HETATM    3  C   UNL     1     -13.014  15.635  71.276  1.00  0.00    -0.556 C  
HETATM    4  C   UNL     1     -12.175  15.508  70.235  1.00  0.00    -0.432 C  
BRANCH   4   5
HETATM    5  C   UNL     1     -12.369  14.545  69.099  1.00  0.00    -0.152 C  
BRANCH   5   6
HETATM    6  C   UNL     1     -11.799  13.187  69.392  1.00  0.00    -0.383 C  
HETATM    7  C   UNL     1     -11.448  12.278  68.466  1.00  0.00    -0.349 C  
BRANCH   7   8
HETATM    8  C   UNL     1     -11.620  12.482  66.988  1.00  0.00    -0.437 C  
BRANCH   8   9
HETATM    9  C   UNL     1     -11.078  13.803  66.527  1.00  0.00    -0.309 C  
HETATM   10  C   UNL     1      -9.793  14.186  66.630  1.00  0.00    -0.289 C  
BRANCH  10  11
HETATM   11  C   UNL     1      -8.707  13.296  67.165  1.00  0.00    -0.215 C  
BRANCH  11  12
HETATM   12  C   UNL     1      -7.860  13.979  68.233  1.00  0.00    -0.140 C  
BRANCH  12  13
HETATM   13  C   UNL     1      -8.674  15.062  68.943  1.00  0.00    -0.197 C  
BRANCH  13  14
HETATM   14  C   UNL     1      -7.884  16.364  69.033  1.00  0.00    -0.231 C  
BRANCH  14  15
HETATM   15  C   UNL     1      -7.112  16.641  67.744  1.00  0.00    -0.152 C  
BRANCH  15  16
HETATM   16  C   UNL     1      -8.042  17.218  66.679  1.00  0.00    -0.300 C  
BRANCH  16  17
HETATM   17  C   UNL     1      -8.959  18.294  67.252  1.00  0.00    -0.259 C  
HETATM   18  C   UNL     1     -10.229  18.433  66.443  1.00  0.00    -0.410 C  
HETATM   19  O   UNL     1     -10.517  17.776  65.455  1.00  0.00    -0.646 OA 
HETATM   20  O   UNL     1     -11.049  19.390  66.936  1.00  0.00    -0.388 OA 
ENDBRANCH  16  17
ENDBRANCH  15  16
ENDBRANCH  14  15
ENDBRANCH  13  14
ENDBRANCH  12  13
ENDBRANCH  11  12
ENDBRANCH  10  11
ENDBRANCH   8   9
ENDBRANCH   7   8
ENDBRANCH   5   6
ENDBRANCH   4   5
ENDBRANCH   2   3
TORSDOF 12
ENDMDL
MODEL      196
REMARK 921   NORMALIZED FREE ENERGY PREDICTED BY IDOCK:   -3.85 KCAL/MOL
REMARK 922        TOTAL FREE ENERGY PREDICTED BY IDOCK:   -8.39 KCAL/MOL
REMARK 923 INTER-LIGAND FREE ENERGY PREDICTED BY IDOCK:   -6.34 KCAL/MOL
REMARK 924 INTRA-LIGAND FREE ENERGY PREDICTED BY IDOCK:   -2.06 KCAL/MOL
REMARK 927      BINDING AFFINITY PREDICTED BY RF-SCORE:    0.00 PKD
ROOT
HETATM    1  C   UNL     1     -11.978  13.847  64.427  1.00  0.00    -0.480 C  
HETATM    2  C   UNL     1     -12.113  12.337  64.303  1.00  0.00    -0.499 C  
ENDROOT
BRANCH   2   3
HETATM    3  C   UNL     1     -10.979  11.739  63.518  1.00  0.00    -0.499 C  
HETATM    4  C   UNL     1     -10.123  10.806  63.968  1.00  0.00    -0.410 C  
BRANCH   4   5
HETATM    5  C   UNL     1     -10.142  10.234  65.356  1.00  0.00    -0.354 C  
BRANCH   5   6
HETATM    6  C   UNL     1      -9.535  11.163  66.369  1.00  0.00    -0.216 C  
HETATM    7  C   UNL     1     -10.105  11.515  67.535  1.00  0.00    -0.203 C  
BRANCH   7   8
HETATM    8  C   UNL     1     -11.465  11.055  67.973  1.00  0.00    -0.365 C  
BRANCH   8   9
HETATM    9  C   UNL     1     -11.938  11.763  69.208  1.00  0.00    -0.354 C  
HETATM   10  C   UNL     1     -11.941  11.233  70.445  1.00  0.00    -0.471 C  
BRANCH  10  11
HETATM   11  C   UNL     1     -11.396   9.869  70.761  1.00  0.00    -0.430 C  
BRANCH  11  12
HETATM   12  C   UNL     1     -12.394   8.997  71.514  1.00  0.00    -0.397 C  
BRANCH  12  13
HETATM   13  C   UNL     1     -12.107   7.517  71.254  1.00  0.00    -0.351 C  
BRANCH  13  14
HETATM   14  C   UNL     1     -10.752   7.338  70.578  1.00  0.00    -0.249 C  
BRANCH  14  15
HETATM   15  C   UNL     1     -10.884   6.597  69.248  1.00  0.00    -0.335 C  
BRANCH  15  16
HETATM   16  C   UNL     1     -10.506   7.515  68.087  1.00  0.00    -0.233 C  
BRANCH  16  17
HETATM   17  C   UNL     1      -9.610   6.807  67.075  1.00  0.00    -0.188 C  
HETATM   18  C   UNL     1      -8.229   7.421  67.029  1.00  0.00    -0.121 C  
HETATM   19  O   UNL     1      -7.846   8.360  67.709  1.00  0.00    -0.104 OA 
HETATM   20  O   UNL     1      -7.425   6.807  66.129  1.00  0.00    -0.077 OA 
ENDBRANCH  16  17
ENDBRANCH  15  16
ENDBRANCH  14  15
ENDBRANCH  13  14
ENDBRANCH  12  13
ENDBRANCH  11  12
ENDBRANCH  10  11
ENDBRANCH   8   9
ENDBRANCH   7   8
ENDBRANCH   5   6
ENDBRANCH   4   5
ENDBRANCH   2   3
TORSDOF 12
ENDMDL
MODEL      197
REMARK 921   NORMALIZED FREE ENERGY PREDICTED BY IDOCK:   -3.85 KCAL/MOL
REMARK 922        TOTAL FREE ENERGY PREDICTED BY IDOCK:   -8.39 KCAL/MOL
REMARK 923 INTER-LIGAND FREE ENERGY PREDICTED BY IDOCK:   -6.63 KCAL/MOL
REMARK 924 INTRA-LIGAND FREE ENERGY PREDICTED BY IDOCK:   -1.76 KCAL/MOL
REMARK 927      BINDING AFFINITY PREDICTED BY RF-SCORE:    0.00 PKD
ROOT
HETATM    1  C   UNL     1     -11.053   7.259  69.907  1.00  0.00    -0.233 C  
HETATM    2  C   UNL     1     -10.642   8.722  69.949  1.00  0.00    -0.230 C  
ENDROOT
BRANCH   2   3
HETATM    3  C   UNL     1     -11.243   9.437  71.126  1.00  0.00    -0.427 C  
HETATM    4  C   UNL     1     -12.073  10.491  71.061  1.00  0.00    -0.492 C  
BRANCH   4   5
HETATM    5  C   UNL     1     -12.507  11.154  69.785  1.00  0.00    -0.230 C  
BRANCH   5   6
HETATM    6  C   UNL     1     -11.639  12.324  69.420  1.00  0.00    -0.378 C  
HETATM    7  C   UNL     1     -11.032  12.497  68.233  1.00  0.00    -0.270 C  
BRANCH   7   8
HETATM    8  C   UNL     1     -11.105  11.509  67.105  1.00  0.00    -0.355 C  
BRANCH   8   9
HETATM    9  C   UNL     1     -10.067  11.765  66.053  1.00  0.00    -0.263 C  
HETATM   10  C   UNL     1     -10.325  11.948  64.745  1.00  0.00    -0.323 C  
BRANCH  10  11
HETATM   11  C   UNL     1     -11.715  11.990  64.176  1.00  0.00    -0.457 C  
BRANCH  11  12
HETATM   12  C   UNL     1     -12.043  13.330  63.525  1.00  0.00    -0.550 C  
BRANCH  12  13
HETATM   13  C   UNL     1     -12.247  14.403  64.595  1.00  0.00    -0.479 C  
BRANCH  13  14
HETATM   14  C   UNL     1     -11.350  15.608  64.333  1.00  0.00    -0.272 C  
BRANCH  14  15
HETATM   15  C   UNL     1     -10.752  16.154  65.630  1.00  0.00    -0.321 C  
BRANCH  15  16
HETATM   16  C   UNL     1      -9.415  15.480  65.926  1.00  0.00    -0.377 C  
BRANCH  16  17
HETATM   17  C   UNL     1      -8.344  16.495  66.314  1.00  0.00    -0.364 C  
HETATM   18  C   UNL     1      -8.374  16.798  67.795  1.00  0.00    -0.188 C  
HETATM   19  O   UNL     1      -9.141  16.303  68.606  1.00  0.00    -0.208 OA 
HETATM   20  O   UNL     1      -7.434  17.704  68.152  1.00  0.00    -0.215 OA 
ENDBRANCH  16  17
ENDBRANCH  15  16
ENDBRANCH  14  15
ENDBRANCH  13  14
ENDBRANCH  12  13
ENDBRANCH  11  12
ENDBRANCH  10  11
ENDBRANCH   8   9
ENDBRANCH   7   8
ENDBRANCH   5   6
ENDBRANCH   4   5
ENDBRANCH   2   3
TORSDOF 12
ENDMDL
MODEL      198
REMARK 921   NORMALIZED FREE ENERGY PREDICTED BY IDOCK:   -3.84 KCAL/MOL
REMARK 922        TOTAL FREE ENERGY PREDICTED BY IDOCK:   -8.38 KCAL/MOL
REMARK 923 INTER-LIGAND FREE ENERGY PREDICTED BY IDOCK:   -6.14 KCAL/MOL
REMARK 924 INTRA-LIGAND FREE ENERGY PREDICTED BY IDOCK:   -2.24 KCAL/MOL
REMARK 927      BINDING AFFINITY PREDICTED BY RF-SCORE:    0.00 PKD
ROOT
HETATM    1  C   UNL     1     -12.188  12.880  65.200  1.00  0.00    -0.519 C  
HETATM    2  C   UNL     1     -11.543  12.049  66.298  1.00  0.00    -0.378 C  
ENDROOT
BRANCH   2   3
HETATM    3  C   UNL     1     -10.908  12.912  67.351  1.00  0.00    -0.272 C  
HETATM    4  C   UNL     1     -11.180  12.870  68.666  1.00  0.00    -0.321 C  
BRANCH   4   5
HETATM    5  C   UNL     1     -12.201  11.966  69.295  1.00  0.00    -0.169 C  
BRANCH   5   6
HETATM    6  C   UNL     1     -12.332  12.188  70.774  1.00  0.00    -0.391 C  
HETATM    7  C   UNL     1     -12.858  11.309  71.646  1.00  0.00    -0.510 C  
BRANCH   7   8
HETATM    8  C   UNL     1     -13.436   9.981  71.247  1.00  0.00    -0.331 C  
BRANCH   8   9
HETATM    9  C   UNL     1     -13.129   8.902  72.243  1.00  0.00    -0.491 C  
HETATM   10  C   UNL     1     -12.150   7.989  72.111  1.00  0.00    -0.391 C  
BRANCH  10  11
HETATM   11  C   UNL     1     -11.181   7.977  70.963  1.00  0.00    -0.287 C  
BRANCH  11  12
HETATM   12  C   UNL     1      -9.958   8.852  71.218  1.00  0.00    -0.358 C  
BRANCH  12  13
HETATM   13  C   UNL     1      -9.610   9.655  69.964  1.00  0.00    -0.281 C  
BRANCH  13  14
HETATM   14  C   UNL     1     -10.454   9.201  68.777  1.00  0.00    -0.236 C  
BRANCH  14  15
HETATM   15  C   UNL     1      -9.650   9.225  67.477  1.00  0.00    -0.184 C  
BRANCH  15  16
HETATM   16  C   UNL     1      -9.097   7.836  67.166  1.00  0.00    -0.154 C  
BRANCH  16  17
HETATM   17  C   UNL     1     -10.211   6.806  67.008  1.00  0.00    -0.304 C  
HETATM   18  C   UNL     1      -9.748   5.601  66.219  1.00  0.00    -0.135 C  
HETATM   19  O   UNL     1      -8.628   5.441  65.760  1.00  0.00    -0.128 OA 
HETATM   20  O   UNL     1     -10.730   4.682  66.064  1.00  0.00    -0.295 OA 
ENDBRANCH  16  17
ENDBRANCH  15  16
ENDBRANCH  14  15
ENDBRANCH  13  14
ENDBRANCH  12  13
ENDBRANCH  11  12
ENDBRANCH  10  11
ENDBRANCH   8   9
ENDBRANCH   7   8
ENDBRANCH   5   6
ENDBRANCH   4   5
ENDBRANCH   2   3
TORSDOF 12
ENDMDL
MODEL      199
REMARK 921   NORMALIZED FREE ENERGY PREDICTED BY IDOCK:   -3.82 KCAL/MOL
REMARK 922        TOTAL FREE ENERGY PREDICTED BY IDOCK:   -8.35 KCAL/MOL
REMARK 923 INTER-LIGAND FREE ENERGY PREDICTED BY IDOCK:   -7.07 KCAL/MOL
REMARK 924 INTRA-LIGAND FREE ENERGY PREDICTED BY IDOCK:   -1.28 KCAL/MOL
REMARK 927      BINDING AFFINITY PREDICTED BY RF-SCORE:    0.00 PKD
ROOT
HETATM    1  C   UNL     1      -9.315  16.414  68.738  1.00  0.00    -0.245 C  
HETATM    2  C   UNL     1     -10.571  16.563  69.582  1.00  0.00    -0.302 C  
ENDROOT
BRANCH   2   3
HETATM    3  C   UNL     1     -11.666  15.644  69.120  1.00  0.00    -0.402 C  
HETATM    4  C   UNL     1     -12.703  15.226  69.864  1.00  0.00    -0.130 C  
BRANCH   4   5
HETATM    5  C   UNL     1     -12.914  15.588  71.307  1.00  0.00    -0.565 C  
BRANCH   5   6
HETATM    6  C   UNL     1     -14.044  14.820  71.932  1.00  0.00    -0.609 C  
HETATM    7  C   UNL     1     -14.012  13.512  72.243  1.00  0.00    -0.638 C  
BRANCH   7   8
HETATM    8  C   UNL     1     -12.840  12.615  71.964  1.00  0.00    -0.268 C  
BRANCH   8   9
HETATM    9  C   UNL     1     -13.245  11.179  71.804  1.00  0.00    -0.486 C  
HETATM   10  C   UNL     1     -12.902  10.395  70.765  1.00  0.00    -0.450 C  
BRANCH  10  11
HETATM   11  C   UNL     1     -11.998  10.845  69.653  1.00  0.00    -0.414 C  
BRANCH  11  12
HETATM   12  C   UNL     1     -10.926   9.815  69.314  1.00  0.00    -0.222 C  
BRANCH  12  13
HETATM   13  C   UNL     1      -9.946   9.667  70.478  1.00  0.00    -0.318 C  
BRANCH  13  14
HETATM   14  C   UNL     1      -9.916   8.227  70.981  1.00  0.00    -0.226 C  
BRANCH  14  15
HETATM   15  C   UNL     1     -10.051   8.162  72.502  1.00  0.00    -0.370 C  
BRANCH  15  16
HETATM   16  C   UNL     1     -11.339   7.441  72.894  1.00  0.00    -0.322 C  
BRANCH  16  17
HETATM   17  C   UNL     1     -11.380   6.019  72.341  1.00  0.00    -0.349 C  
HETATM   18  C   UNL     1     -10.956   5.005  73.380  1.00  0.00    -0.327 C  
HETATM   19  O   UNL     1     -10.624   5.260  74.527  1.00  0.00    -0.304 OA 
HETATM   20  O   UNL     1     -10.980   3.740  72.901  1.00  0.00    -0.116 OA 
ENDBRANCH  16  17
ENDBRANCH  15  16
ENDBRANCH  14  15
ENDBRANCH  13  14
ENDBRANCH  12  13
ENDBRANCH  11  12
ENDBRANCH  10  11
ENDBRANCH   8   9
ENDBRANCH   7   8
ENDBRANCH   5   6
ENDBRANCH   4   5
ENDBRANCH   2   3
TORSDOF 12
ENDMDL
MODEL      200
REMARK 921   NORMALIZED FREE ENERGY PREDICTED BY IDOCK:   -3.82 KCAL/MOL
REMARK 922        TOTAL FREE ENERGY PREDICTED BY IDOCK:   -8.34 KCAL/MOL
REMARK 923 INTER-LIGAND FREE ENERGY PREDICTED BY IDOCK:   -7.00 KCAL/MOL
REMARK 924 INTRA-LIGAND FREE ENERGY PREDICTED BY IDOCK:   -1.34 KCAL/MOL
REMARK 927      BINDING AFFINITY PREDICTED BY RF-SCORE:    0.00 PKD
ROOT
HETATM    1  C   UNL     1     -12.363  12.042  63.485  1.00  0.00    -0.661 C  
HETATM    2  C   UNL     1     -11.557  12.183  64.767  1.00  0.00    -0.380 C  
ENDROOT
BRANCH   2   3
HETATM    3  C   UNL     1     -12.092  13.279  65.644  1.00  0.00    -0.488 C  
HETATM    4  C   UNL     1     -12.223  13.220  66.979  1.00  0.00    -0.310 C  
BRANCH   4   5
HETATM    5  C   UNL     1     -11.885  12.017  67.814  1.00  0.00    -0.308 C  
BRANCH   5   6
HETATM    6  C   UNL     1     -11.368  12.389  69.174  1.00  0.00    -0.327 C  
HETATM    7  C   UNL     1     -11.683  11.760  70.320  1.00  0.00    -0.317 C  
BRANCH   7   8
HETATM    8  C   UNL     1     -12.642  10.607  70.405  1.00  0.00    -0.395 C  
BRANCH   8   9
HETATM    9  C   UNL     1     -13.143  10.382  71.801  1.00  0.00    -0.567 C  
HETATM   10  C   UNL     1     -13.794   9.280  72.216  1.00  0.00    -0.492 C  
BRANCH  10  11
HETATM   11  C   UNL     1     -14.043   8.088  71.337  1.00  0.00    -0.413 C  
BRANCH  11  12
HETATM   12  C   UNL     1     -13.084   6.937  71.622  1.00  0.00    -0.338 C  
BRANCH  12  13
HETATM   13  C   UNL     1     -11.929   6.949  70.619  1.00  0.00    -0.400 C  
BRANCH  13  14
HETATM   14  C   UNL     1     -10.646   7.447  71.275  1.00  0.00    -0.231 C  
BRANCH  14  15
HETATM   15  C   UNL     1     -10.803   7.573  72.790  1.00  0.00    -0.397 C  
BRANCH  15  16
HETATM   16  C   UNL     1      -9.739   6.743  73.507  1.00  0.00    -0.228 C  
BRANCH  16  17
HETATM   17  C   UNL     1      -9.410   5.465  72.742  1.00  0.00    -0.148 C  
HETATM   18  C   UNL     1     -10.417   4.373  73.023  1.00  0.00    -0.183 C  
HETATM   19  O   UNL     1     -11.387   4.473  73.758  1.00  0.00    -0.256 OA 
HETATM   20  O   UNL     1     -10.132   3.229  72.357  1.00  0.00    -0.155 OA 
ENDBRANCH  16  17
ENDBRANCH  15  16
ENDBRANCH  14  15
ENDBRANCH  13  14
ENDBRANCH  12  13
ENDBRANCH  11  12
ENDBRANCH  10  11
ENDBRANCH   8   9
ENDBRANCH   7   8
ENDBRANCH   5   6
ENDBRANCH   4   5
ENDBRANCH   2   3
TORSDOF 12
ENDMDL
MODEL      201
REMARK 921   NORMALIZED FREE ENERGY PREDICTED BY IDOCK:   -3.82 KCAL/MOL
REMARK 922        TOTAL FREE ENERGY PREDICTED BY IDOCK:   -8.33 KCAL/MOL
REMARK 923 INTER-LIGAND FREE ENERGY PREDICTED BY IDOCK:   -6.15 KCAL/MOL
REMARK 924 INTRA-LIGAND FREE ENERGY PREDICTED BY IDOCK:   -2.18 KCAL/MOL
REMARK 927      BINDING AFFINITY PREDICTED BY RF-SCORE:    0.00 PKD
ROOT
HETATM    1  C   UNL     1      -6.182  16.002  69.791  1.00  0.00    -0.179 C  
HETATM    2  C   UNL     1      -5.844  15.092  68.620  1.00  0.00    -0.089 C  
ENDROOT
BRANCH   2   3
HETATM    3  C   UNL     1      -6.820  15.252  67.489  1.00  0.00    -0.218 C  
HETATM    4  C   UNL     1      -7.876  14.457  67.248  1.00  0.00    -0.188 C  
BRANCH   4   5
HETATM    5  C   UNL     1      -8.230  13.244  68.062  1.00  0.00    -0.162 C  
BRANCH   5   6
HETATM    6  C   UNL     1      -7.565  11.997  67.553  1.00  0.00    -0.147 C  
HETATM    7  C   UNL     1      -8.143  11.082  66.756  1.00  0.00    -0.151 C  
BRANCH   7   8
HETATM    8  C   UNL     1      -9.569  11.159  66.292  1.00  0.00    -0.234 C  
BRANCH   8   9
HETATM    9  C   UNL     1      -9.832  10.280  65.104  1.00  0.00    -0.389 C  
HETATM   10  C   UNL     1     -10.242  10.717  63.900  1.00  0.00    -0.377 C  
BRANCH  10  11
HETATM   11  C   UNL     1     -10.423  12.171  63.566  1.00  0.00    -0.490 C  
BRANCH  11  12
HETATM   12  C   UNL     1     -11.890  12.585  63.520  1.00  0.00    -0.616 C  
BRANCH  12  13
HETATM   13  C   UNL     1     -12.070  13.971  64.141  1.00  0.00    -0.456 C  
BRANCH  13  14
HETATM   14  C   UNL     1     -10.781  14.435  64.813  1.00  0.00    -0.423 C  
BRANCH  14  15
HETATM   15  C   UNL     1     -11.046  14.979  66.217  1.00  0.00    -0.334 C  
BRANCH  15  16
HETATM   16  C   UNL     1     -12.272  14.304  66.828  1.00  0.00    -0.384 C  
BRANCH  16  17
HETATM   17  C   UNL     1     -11.881  13.159  67.758  1.00  0.00    -0.392 C  
HETATM   18  C   UNL     1     -12.023  13.550  69.212  1.00  0.00    -0.330 C  
HETATM   19  O   UNL     1     -12.406  14.634  69.623  1.00  0.00    -0.298 OA 
HETATM   20  O   UNL     1     -11.671  12.546  70.049  1.00  0.00    -0.297 OA 
ENDBRANCH  16  17
ENDBRANCH  15  16
ENDBRANCH  14  15
ENDBRANCH  13  14
ENDBRANCH  12  13
ENDBRANCH  11  12
ENDBRANCH  10  11
ENDBRANCH   8   9
ENDBRANCH   7   8
ENDBRANCH   5   6
ENDBRANCH   4   5
ENDBRANCH   2   3
TORSDOF 12
ENDMDL
MODEL      202
REMARK 921   NORMALIZED FREE ENERGY PREDICTED BY IDOCK:   -3.82 KCAL/MOL
REMARK 922        TOTAL FREE ENERGY PREDICTED BY IDOCK:   -8.33 KCAL/MOL
REMARK 923 INTER-LIGAND FREE ENERGY PREDICTED BY IDOCK:   -6.25 KCAL/MOL
REMARK 924 INTRA-LIGAND FREE ENERGY PREDICTED BY IDOCK:   -2.08 KCAL/MOL
REMARK 927      BINDING AFFINITY PREDICTED BY RF-SCORE:    0.00 PKD
ROOT
HETATM    1  C   UNL     1     -13.210   9.885  71.880  1.00  0.00    -0.558 C  
HETATM    2  C   UNL     1     -12.910  10.681  70.620  1.00  0.00    -0.404 C  
ENDROOT
BRANCH   2   3
HETATM    3  C   UNL     1     -12.502  12.092  70.935  1.00  0.00    -0.384 C  
HETATM    4  C   UNL     1     -11.954  12.961  70.070  1.00  0.00    -0.380 C  
BRANCH   4   5
HETATM    5  C   UNL     1     -11.626  12.642  68.639  1.00  0.00    -0.356 C  
BRANCH   5   6
HETATM    6  C   UNL     1     -11.881  13.801  67.719  1.00  0.00    -0.404 C  
HETATM    7  C   UNL     1     -11.223  14.038  66.570  1.00  0.00    -0.326 C  
BRANCH   7   8
HETATM    8  C   UNL     1     -10.096  13.186  66.063  1.00  0.00    -0.286 C  
BRANCH   8   9
HETATM    9  C   UNL     1     -10.392  12.587  64.719  1.00  0.00    -0.331 C  
HETATM   10  C   UNL     1     -10.498  11.269  64.472  1.00  0.00    -0.396 C  
BRANCH  10  11
HETATM   11  C   UNL     1     -10.403  10.217  65.540  1.00  0.00    -0.239 C  
BRANCH  11  12
HETATM   12  C   UNL     1      -8.984   9.689  65.720  1.00  0.00    -0.207 C  
BRANCH  12  13
HETATM   13  C   UNL     1      -8.504   9.932  67.152  1.00  0.00    -0.121 C  
BRANCH  13  14
HETATM   14  C   UNL     1      -9.632   9.688  68.150  1.00  0.00    -0.159 C  
BRANCH  14  15
HETATM   15  C   UNL     1      -9.272  10.213  69.540  1.00  0.00    -0.223 C  
BRANCH  15  16
HETATM   16  C   UNL     1      -8.780   9.073  70.429  1.00  0.00    -0.224 C  
BRANCH  16  17
HETATM   17  C   UNL     1      -9.927   8.414  71.189  1.00  0.00    -0.245 C  
HETATM   18  C   UNL     1      -9.595   8.235  72.654  1.00  0.00    -0.282 C  
HETATM   19  O   UNL     1      -8.552   8.573  73.192  1.00  0.00    -0.362 OA 
HETATM   20  O   UNL     1     -10.601   7.643  73.339  1.00  0.00    -0.368 OA 
ENDBRANCH  16  17
ENDBRANCH  15  16
ENDBRANCH  14  15
ENDBRANCH  13  14
ENDBRANCH  12  13
ENDBRANCH  11  12
ENDBRANCH  10  11
ENDBRANCH   8   9
ENDBRANCH   7   8
ENDBRANCH   5   6
ENDBRANCH   4   5
ENDBRANCH   2   3
TORSDOF 12
ENDMDL
MODEL      203
REMARK 921   NORMALIZED FREE ENERGY PREDICTED BY IDOCK:   -3.81 KCAL/MOL
REMARK 922        TOTAL FREE ENERGY PREDICTED BY IDOCK:   -8.33 KCAL/MOL
REMARK 923 INTER-LIGAND FREE ENERGY PREDICTED BY IDOCK:   -6.11 KCAL/MOL
REMARK 924 INTRA-LIGAND FREE ENERGY PREDICTED BY IDOCK:   -2.22 KCAL/MOL
REMARK 927      BINDING AFFINITY PREDICTED BY RF-SCORE:    0.00 PKD
ROOT
HETATM    1  C   UNL     1     -10.012  10.117  64.970  1.00  0.00    -0.375 C  
HETATM    2  C   UNL     1     -10.002  11.393  64.144  1.00  0.00    -0.335 C  
ENDROOT
BRANCH   2   3
HETATM    3  C   UNL     1     -11.278  11.566  63.370  1.00  0.00    -0.342 C  
HETATM    4  C   UNL     1     -12.300  12.367  63.715  1.00  0.00    -0.625 C  
BRANCH   4   5
HETATM    5  C   UNL     1     -12.343  13.200  64.964  1.00  0.00    -0.511 C  
BRANCH   5   6
HETATM    6  C   UNL     1     -11.811  14.588  64.748  1.00  0.00    -0.446 C  
HETATM    7  C   UNL     1     -10.719  15.100  65.341  1.00  0.00    -0.396 C  
BRANCH   7   8
HETATM    8  C   UNL     1      -9.891  14.358  66.351  1.00  0.00    -0.309 C  
BRANCH   8   9
HETATM    9  C   UNL     1      -9.887  15.030  67.692  1.00  0.00    -0.220 C  
HETATM   10  C   UNL     1     -10.844  14.886  68.627  1.00  0.00    -0.253 C  
BRANCH  10  11
HETATM   11  C   UNL     1     -12.020  13.965  68.471  1.00  0.00    -0.394 C  
BRANCH  11  12
HETATM   12  C   UNL     1     -11.836  12.646  69.215  1.00  0.00    -0.358 C  
BRANCH  12  13
HETATM   13  C   UNL     1     -11.626  11.502  68.222  1.00  0.00    -0.378 C  
BRANCH  13  14
HETATM   14  C   UNL     1     -10.218  10.928  68.346  1.00  0.00    -0.193 C  
BRANCH  14  15
HETATM   15  C   UNL     1     -10.057  10.113  69.629  1.00  0.00    -0.265 C  
BRANCH  15  16
HETATM   16  C   UNL     1      -9.004   9.023  69.439  1.00  0.00    -0.145 C  
BRANCH  16  17
HETATM   17  C   UNL     1      -7.659   9.604  69.015  1.00  0.00    -0.076 C  
HETATM   18  C   UNL     1      -6.763   9.862  70.206  1.00  0.00    -0.126 C  
HETATM   19  O   UNL     1      -7.049   9.637  71.371  1.00  0.00    -0.324 OA 
HETATM   20  O   UNL     1      -5.568  10.386  69.845  1.00  0.00    -0.041 OA 
ENDBRANCH  16  17
ENDBRANCH  15  16
ENDBRANCH  14  15
ENDBRANCH  13  14
ENDBRANCH  12  13
ENDBRANCH  11  12
ENDBRANCH  10  11
ENDBRANCH   8   9
ENDBRANCH   7   8
ENDBRANCH   5   6
ENDBRANCH   4   5
ENDBRANCH   2   3
TORSDOF 12
ENDMDL
MODEL      204
REMARK 921   NORMALIZED FREE ENERGY PREDICTED BY IDOCK:   -3.81 KCAL/MOL
REMARK 922        TOTAL FREE ENERGY PREDICTED BY IDOCK:   -8.32 KCAL/MOL
REMARK 923 INTER-LIGAND FREE ENERGY PREDICTED BY IDOCK:   -6.45 KCAL/MOL
REMARK 924 INTRA-LIGAND FREE ENERGY PREDICTED BY IDOCK:   -1.87 KCAL/MOL
REMARK 927      BINDING AFFINITY PREDICTED BY RF-SCORE:    0.00 PKD
ROOT
HETATM    1  C   UNL     1     -10.062  13.947  67.317  1.00  0.00    -0.242 C  
HETATM    2  C   UNL     1     -11.073  13.436  68.331  1.00  0.00    -0.301 C  
ENDROOT
BRANCH   2   3
HETATM    3  C   UNL     1     -11.548  12.051  67.995  1.00  0.00    -0.407 C  
HETATM    4  C   UNL     1     -11.779  11.066  68.880  1.00  0.00    -0.400 C  
BRANCH   4   5
HETATM    5  C   UNL     1     -11.562  11.187  70.362  1.00  0.00    -0.355 C  
BRANCH   5   6
HETATM    6  C   UNL     1     -12.781  11.687  71.082  1.00  0.00    -0.426 C  
HETATM    7  C   UNL     1     -13.474  10.995  72.003  1.00  0.00    -0.286 C  
BRANCH   7   8
HETATM    8  C   UNL     1     -13.144   9.589  72.415  1.00  0.00    -0.430 C  
BRANCH   8   9
HETATM    9  C   UNL     1     -14.057   8.579  71.783  1.00  0.00    -0.515 C  
HETATM   10  C   UNL     1     -13.687   7.348  71.387  1.00  0.00    -0.419 C  
BRANCH  10  11
HETATM   11  C   UNL     1     -12.306   6.794  71.596  1.00  0.00    -0.409 C  
BRANCH  11  12
HETATM   12  C   UNL     1     -11.471   6.799  70.320  1.00  0.00    -0.414 C  
BRANCH  12  13
HETATM   13  C   UNL     1     -10.401   7.889  70.390  1.00  0.00    -0.212 C  
BRANCH  13  14
HETATM   14  C   UNL     1     -10.086   8.247  71.839  1.00  0.00    -0.314 C  
BRANCH  14  15
HETATM   15  C   UNL     1      -8.731   7.688  72.272  1.00  0.00    -0.160 C  
BRANCH  15  16
HETATM   16  C   UNL     1      -8.739   7.370  73.766  1.00  0.00    -0.240 C  
BRANCH  16  17
HETATM   17  C   UNL     1     -10.000   6.617  74.177  1.00  0.00    -0.361 C  
HETATM   18  C   UNL     1      -9.805   5.119  74.100  1.00  0.00    -0.178 C  
HETATM   19  O   UNL     1      -8.778   4.553  73.762  1.00  0.00    -0.105 OA 
HETATM   20  O   UNL     1     -10.920   4.438  74.454  1.00  0.00    -0.276 OA 
ENDBRANCH  16  17
ENDBRANCH  15  16
ENDBRANCH  14  15
ENDBRANCH  13  14
ENDBRANCH  12  13
ENDBRANCH  11  12
ENDBRANCH  10  11
ENDBRANCH   8   9
ENDBRANCH   7   8
ENDBRANCH   5   6
ENDBRANCH   4   5
ENDBRANCH   2   3
TORSDOF 12
ENDMDL
MODEL      205
REMARK 921   NORMALIZED FREE ENERGY PREDICTED BY IDOCK:   -3.80 KCAL/MOL
REMARK 922        TOTAL FREE ENERGY PREDICTED BY IDOCK:   -8.31 KCAL/MOL
REMARK 923 INTER-LIGAND FREE ENERGY PREDICTED BY IDOCK:   -6.33 KCAL/MOL
REMARK 924 INTRA-LIGAND FREE ENERGY PREDICTED BY IDOCK:   -1.98 KCAL/MOL
REMARK 927      BINDING AFFINITY PREDICTED BY RF-SCORE:    0.00 PKD
ROOT
HETATM    1  C   UNL     1     -10.786  19.321  67.328  1.00  0.00    -0.554 C  
HETATM    2  C   UNL     1      -9.400  19.517  67.920  1.00  0.00    -0.411 C  
ENDROOT
BRANCH   2   3
HETATM    3  C   UNL     1      -8.471  20.194  66.953  1.00  0.00    -0.376 C  
HETATM    4  C   UNL     1      -7.676  19.574  66.065  1.00  0.00    -0.322 C  
BRANCH   4   5
HETATM    5  C   UNL     1      -7.564  18.083  65.922  1.00  0.00    -0.171 C  
BRANCH   5   6
HETATM    6  C   UNL     1      -6.340  17.532  66.596  1.00  0.00    -0.241 C  
HETATM    7  C   UNL     1      -6.341  16.575  67.541  1.00  0.00    -0.187 C  
BRANCH   7   8
HETATM    8  C   UNL     1      -7.588  15.945  68.091  1.00  0.00    -0.135 C  
BRANCH   8   9
HETATM    9  C   UNL     1      -7.868  14.604  67.481  1.00  0.00    -0.212 C  
HETATM   10  C   UNL     1      -8.938  14.313  66.718  1.00  0.00    -0.249 C  
BRANCH  10  11
HETATM   11  C   UNL     1      -9.966  15.332  66.316  1.00  0.00    -0.304 C  
BRANCH  11  12
HETATM   12  C   UNL     1     -11.151  15.381  67.275  1.00  0.00    -0.302 C  
BRANCH  12  13
HETATM   13  C   UNL     1     -12.155  14.279  66.934  1.00  0.00    -0.440 C  
BRANCH  13  14
HETATM   14  C   UNL     1     -12.372  14.190  65.427  1.00  0.00    -0.475 C  
BRANCH  14  15
HETATM   15  C   UNL     1     -12.343  12.741  64.941  1.00  0.00    -0.551 C  
BRANCH  15  16
HETATM   16  C   UNL     1     -11.275  11.949  65.692  1.00  0.00    -0.360 C  
BRANCH  16  17
HETATM   17  C   UNL     1     -10.085  11.615  64.798  1.00  0.00    -0.304 C  
HETATM   18  C   UNL     1      -9.557  10.224  65.069  1.00  0.00    -0.285 C  
HETATM   19  O   UNL     1     -10.009   9.440  65.888  1.00  0.00    -0.303 OA 
HETATM   20  O   UNL     1      -8.495   9.918  64.288  1.00  0.00    -0.147 OA 
ENDBRANCH  16  17
ENDBRANCH  15  16
ENDBRANCH  14  15
ENDBRANCH  13  14
ENDBRANCH  12  13
ENDBRANCH  11  12
ENDBRANCH  10  11
ENDBRANCH   8   9
ENDBRANCH   7   8
ENDBRANCH   5   6
ENDBRANCH   4   5
ENDBRANCH   2   3
TORSDOF 12
ENDMDL
MODEL      206
REMARK 921   NORMALIZED FREE ENERGY PREDICTED BY IDOCK:   -3.80 KCAL/MOL
REMARK 922        TOTAL FREE ENERGY PREDICTED BY IDOCK:   -8.31 KCAL/MOL
REMARK 923 INTER-LIGAND FREE ENERGY PREDICTED BY IDOCK:   -5.59 KCAL/MOL
REMARK 924 INTRA-LIGAND FREE ENERGY PREDICTED BY IDOCK:   -2.71 KCAL/MOL
REMARK 927      BINDING AFFINITY PREDICTED BY RF-SCORE:    0.00 PKD
ROOT
HETATM    1  C   UNL     1     -10.906  13.398  66.176  1.00  0.00    -0.287 C  
HETATM    2  C   UNL     1     -11.777  12.879  67.309  1.00  0.00    -0.431 C  
ENDROOT
BRANCH   2   3
HETATM    3  C   UNL     1     -11.632  11.394  67.489  1.00  0.00    -0.298 C  
HETATM    4  C   UNL     1     -11.453  10.762  68.661  1.00  0.00    -0.365 C  
BRANCH   4   5
HETATM    5  C   UNL     1     -11.331  11.452  69.990  1.00  0.00    -0.260 C  
BRANCH   5   6
HETATM    6  C   UNL     1     -12.628  11.469  70.748  1.00  0.00    -0.390 C  
HETATM    7  C   UNL     1     -13.021  10.532  71.629  1.00  0.00    -0.581 C  
BRANCH   7   8
HETATM    8  C   UNL     1     -12.226   9.299  71.949  1.00  0.00    -0.448 C  
BRANCH   8   9
HETATM    9  C   UNL     1     -13.004   8.039  71.706  1.00  0.00    -0.354 C  
HETATM   10  C   UNL     1     -12.497   6.914  71.170  1.00  0.00    -0.398 C  
BRANCH  10  11
HETATM   11  C   UNL     1     -11.049   6.752  70.806  1.00  0.00    -0.323 C  
BRANCH  11  12
HETATM   12  C   UNL     1     -10.785   6.988  69.323  1.00  0.00    -0.245 C  
BRANCH  12  13
HETATM   13  C   UNL     1      -9.463   7.732  69.132  1.00  0.00    -0.151 C  
BRANCH  13  14
HETATM   14  C   UNL     1      -8.866   8.134  70.477  1.00  0.00    -0.144 C  
BRANCH  14  15
HETATM   15  C   UNL     1      -8.215   9.515  70.411  1.00  0.00    -0.220 C  
BRANCH  15  16
HETATM   16  C   UNL     1      -7.947   9.910  68.960  1.00  0.00    -0.101 C  
BRANCH  16  17
HETATM   17  C   UNL     1      -7.727  11.412  68.815  1.00  0.00    -0.135 C  
HETATM   18  C   UNL     1      -7.752  11.842  67.365  1.00  0.00    -0.151 C  
HETATM   19  O   UNL     1      -7.931  11.104  66.409  1.00  0.00    -0.159 OA 
HETATM   20  O   UNL     1      -7.550  13.172  67.221  1.00  0.00    -0.152 OA 
ENDBRANCH  16  17
ENDBRANCH  15  16
ENDBRANCH  14  15
ENDBRANCH  13  14
ENDBRANCH  12  13
ENDBRANCH  11  12
ENDBRANCH  10  11
ENDBRANCH   8   9
ENDBRANCH   7   8
ENDBRANCH   5   6
ENDBRANCH   4   5
ENDBRANCH   2   3
TORSDOF 12
ENDMDL
MODEL      207
REMARK 921   NORMALIZED FREE ENERGY PREDICTED BY IDOCK:   -3.79 KCAL/MOL
REMARK 922        TOTAL FREE ENERGY PREDICTED BY IDOCK:   -8.30 KCAL/MOL
REMARK 923 INTER-LIGAND FREE ENERGY PREDICTED BY IDOCK:   -6.37 KCAL/MOL
REMARK 924 INTRA-LIGAND FREE ENERGY PREDICTED BY IDOCK:   -1.93 KCAL/MOL
REMARK 927      BINDING AFFINITY PREDICTED BY RF-SCORE:    0.00 PKD
ROOT
HETATM    1  C   UNL     1     -13.225   9.820  71.334  1.00  0.00    -0.482 C  
HETATM    2  C   UNL     1     -12.176   8.725  71.227  1.00  0.00    -0.332 C  
ENDROOT
BRANCH   2   3
HETATM    3  C   UNL     1     -10.837   9.185  71.730  1.00  0.00    -0.416 C  
HETATM    4  C   UNL     1      -9.658   8.979  71.118  1.00  0.00    -0.356 C  
BRANCH   4   5
HETATM    5  C   UNL     1      -9.488   8.215  69.836  1.00  0.00    -0.160 C  
BRANCH   5   6
HETATM    6  C   UNL     1      -8.861   9.044  68.752  1.00  0.00    -0.137 C  
HETATM    7  C   UNL     1      -9.521   9.905  67.957  1.00  0.00    -0.147 C  
BRANCH   7   8
HETATM    8  C   UNL     1     -11.005  10.128  68.017  1.00  0.00    -0.326 C  
BRANCH   8   9
HETATM    9  C   UNL     1     -11.357  11.500  68.511  1.00  0.00    -0.337 C  
HETATM   10  C   UNL     1     -11.672  12.544  67.724  1.00  0.00    -0.419 C  
BRANCH  10  11
HETATM   11  C   UNL     1     -11.781  12.448  66.229  1.00  0.00    -0.457 C  
BRANCH  11  12
HETATM   12  C   UNL     1     -10.522  12.929  65.515  1.00  0.00    -0.305 C  
BRANCH  12  13
HETATM   13  C   UNL     1     -10.750  14.318  64.916  1.00  0.00    -0.448 C  
BRANCH  13  14
HETATM   14  C   UNL     1      -9.838  15.348  65.574  1.00  0.00    -0.359 C  
BRANCH  14  15
HETATM   15  C   UNL     1      -9.090  14.754  66.767  1.00  0.00    -0.291 C  
BRANCH  15  16
HETATM   16  C   UNL     1      -8.707  15.852  67.757  1.00  0.00    -0.173 C  
BRANCH  16  17
HETATM   17  C   UNL     1      -9.343  15.627  69.125  1.00  0.00    -0.252 C  
HETATM   18  C   UNL     1     -10.698  16.291  69.225  1.00  0.00    -0.307 C  
HETATM   19  O   UNL     1     -11.244  16.928  68.338  1.00  0.00    -0.299 OA 
HETATM   20  O   UNL     1     -11.271  16.107  70.438  1.00  0.00    -0.364 OA 
ENDBRANCH  16  17
ENDBRANCH  15  16
ENDBRANCH  14  15
ENDBRANCH  13  14
ENDBRANCH  12  13
ENDBRANCH  11  12
ENDBRANCH  10  11
ENDBRANCH   8   9
ENDBRANCH   7   8
ENDBRANCH   5   6
ENDBRANCH   4   5
ENDBRANCH   2   3
TORSDOF 12
ENDMDL
MODEL      208
REMARK 921   NORMALIZED FREE ENERGY PREDICTED BY IDOCK:   -3.79 KCAL/MOL
REMARK 922        TOTAL FREE ENERGY PREDICTED BY IDOCK:   -8.30 KCAL/MOL
REMARK 923 INTER-LIGAND FREE ENERGY PREDICTED BY IDOCK:   -6.11 KCAL/MOL
REMARK 924 INTRA-LIGAND FREE ENERGY PREDICTED BY IDOCK:   -2.19 KCAL/MOL
REMARK 927      BINDING AFFINITY PREDICTED BY RF-SCORE:    0.00 PKD
ROOT
HETATM    1  C   UNL     1     -11.580  10.582  70.536  1.00  0.00    -0.441 C  
HETATM    2  C   UNL     1     -12.868  11.387  70.610  1.00  0.00    -0.189 C  
ENDROOT
BRANCH   2   3
HETATM    3  C   UNL     1     -13.112  11.921  71.993  1.00  0.00    -0.441 C  
HETATM    4  C   UNL     1     -13.632  13.124  72.287  1.00  0.00    -0.677 C  
BRANCH   4   5
HETATM    5  C   UNL     1     -14.023  14.154  71.266  1.00  0.00    -0.196 C  
BRANCH   5   6
HETATM    6  C   UNL     1     -13.186  15.398  71.355  1.00  0.00    -0.578 C  
HETATM    7  C   UNL     1     -12.081  15.642  70.628  1.00  0.00    -0.443 C  
BRANCH   7   8
HETATM    8  C   UNL     1     -11.498  14.670  69.643  1.00  0.00    -0.329 C  
BRANCH   8   9
HETATM    9  C   UNL     1     -11.890  14.985  68.229  1.00  0.00    -0.295 C  
HETATM   10  C   UNL     1     -11.953  14.087  67.230  1.00  0.00    -0.448 C  
BRANCH  10  11
HETATM   11  C   UNL     1     -11.703  12.618  67.422  1.00  0.00    -0.432 C  
BRANCH  11  12
HETATM   12  C   UNL     1     -10.362  12.171  66.852  1.00  0.00    -0.235 C  
BRANCH  12  13
HETATM   13  C   UNL     1      -9.267  12.294  67.912  1.00  0.00    -0.190 C  
BRANCH  13  14
HETATM   14  C   UNL     1      -8.344  11.079  67.883  1.00  0.00    -0.124 C  
BRANCH  14  15
HETATM   15  C   UNL     1      -8.347  10.407  66.511  1.00  0.00    -0.130 C  
BRANCH  15  16
HETATM   16  C   UNL     1      -8.526   8.897  66.657  1.00  0.00    -0.122 C  
BRANCH  16  17
HETATM   17  C   UNL     1      -8.801   8.498  68.103  1.00  0.00    -0.142 C  
HETATM   18  C   UNL     1     -10.118   7.768  68.239  1.00  0.00    -0.192 C  
HETATM   19  O   UNL     1     -10.884   7.508  67.324  1.00  0.00    -0.299 OA 
HETATM   20  O   UNL     1     -10.379   7.415  69.520  1.00  0.00    -0.205 OA 
ENDBRANCH  16  17
ENDBRANCH  15  16
ENDBRANCH  14  15
ENDBRANCH  13  14
ENDBRANCH  12  13
ENDBRANCH  11  12
ENDBRANCH  10  11
ENDBRANCH   8   9
ENDBRANCH   7   8
ENDBRANCH   5   6
ENDBRANCH   4   5
ENDBRANCH   2   3
TORSDOF 12
ENDMDL
MODEL      209
REMARK 921   NORMALIZED FREE ENERGY PREDICTED BY IDOCK:   -3.79 KCAL/MOL
REMARK 922        TOTAL FREE ENERGY PREDICTED BY IDOCK:   -8.29 KCAL/MOL
REMARK 923 INTER-LIGAND FREE ENERGY PREDICTED BY IDOCK:   -6.37 KCAL/MOL
REMARK 924 INTRA-LIGAND FREE ENERGY PREDICTED BY IDOCK:   -1.93 KCAL/MOL
REMARK 927      BINDING AFFINITY PREDICTED BY RF-SCORE:    0.00 PKD
ROOT
HETATM    1  C   UNL     1      -8.856   4.588  65.949  1.00  0.00    -0.121 C  
HETATM    2  C   UNL     1     -10.251   4.776  66.526  1.00  0.00    -0.294 C  
ENDROOT
BRANCH   2   3
HETATM    3  C   UNL     1     -10.218   5.513  67.835  1.00  0.00    -0.231 C  
HETATM    4  C   UNL     1     -10.410   6.833  67.994  1.00  0.00    -0.224 C  
BRANCH   4   5
HETATM    5  C   UNL     1     -10.653   7.799  66.870  1.00  0.00    -0.347 C  
BRANCH   5   6
HETATM    6  C   UNL     1      -9.377   8.319  66.273  1.00  0.00    -0.267 C  
HETATM    7  C   UNL     1      -9.252   9.477  65.601  1.00  0.00    -0.281 C  
BRANCH   7   8
HETATM    8  C   UNL     1     -10.398  10.404  65.313  1.00  0.00    -0.267 C  
BRANCH   8   9
HETATM    9  C   UNL     1     -10.246  11.108  63.997  1.00  0.00    -0.419 C  
HETATM   10  C   UNL     1     -11.112  12.013  63.505  1.00  0.00    -0.519 C  
BRANCH  10  11
HETATM   11  C   UNL     1     -12.322  12.492  64.256  1.00  0.00    -0.541 C  
BRANCH  11  12
HETATM   12  C   UNL     1     -12.218  13.958  64.664  1.00  0.00    -0.449 C  
BRANCH  12  13
HETATM   13  C   UNL     1     -10.925  14.201  65.443  1.00  0.00    -0.328 C  
BRANCH  13  14
HETATM   14  C   UNL     1     -11.210  14.923  66.756  1.00  0.00    -0.338 C  
BRANCH  14  15
HETATM   15  C   UNL     1     -11.840  13.985  67.786  1.00  0.00    -0.419 C  
BRANCH  15  16
HETATM   16  C   UNL     1     -11.011  12.710  67.923  1.00  0.00    -0.262 C  
BRANCH  16  17
HETATM   17  C   UNL     1     -11.717  11.667  68.784  1.00  0.00    -0.392 C  
HETATM   18  C   UNL     1     -10.762  10.594  69.255  1.00  0.00    -0.238 C  
HETATM   19  O   UNL     1      -9.568  10.544  69.001  1.00  0.00    -0.187 OA 
HETATM   20  O   UNL     1     -11.377   9.657  70.013  1.00  0.00    -0.241 OA 
ENDBRANCH  16  17
ENDBRANCH  15  16
ENDBRANCH  14  15
ENDBRANCH  13  14
ENDBRANCH  12  13
ENDBRANCH  11  12
ENDBRANCH  10  11
ENDBRANCH   8   9
ENDBRANCH   7   8
ENDBRANCH   5   6
ENDBRANCH   4   5
ENDBRANCH   2   3
TORSDOF 12
ENDMDL
MODEL      210
REMARK 921   NORMALIZED FREE ENERGY PREDICTED BY IDOCK:   -3.78 KCAL/MOL
REMARK 922        TOTAL FREE ENERGY PREDICTED BY IDOCK:   -8.27 KCAL/MOL
REMARK 923 INTER-LIGAND FREE ENERGY PREDICTED BY IDOCK:   -7.12 KCAL/MOL
REMARK 924 INTRA-LIGAND FREE ENERGY PREDICTED BY IDOCK:   -1.15 KCAL/MOL
REMARK 927      BINDING AFFINITY PREDICTED BY RF-SCORE:    0.00 PKD
ROOT
HETATM    1  C   UNL     1      -6.009  19.827  69.045  1.00  0.00    -0.288 C  
HETATM    2  C   UNL     1      -6.464  20.872  68.039  1.00  0.00    -0.354 C  
ENDROOT
BRANCH   2   3
HETATM    3  C   UNL     1      -6.796  20.258  66.708  1.00  0.00    -0.277 C  
HETATM    4  C   UNL     1      -8.032  20.002  66.251  1.00  0.00    -0.323 C  
BRANCH   4   5
HETATM    5  C   UNL     1      -9.295  20.259  67.023  1.00  0.00    -0.526 C  
BRANCH   5   6
HETATM    6  C   UNL     1      -9.550  19.214  68.072  1.00  0.00    -0.397 C  
HETATM    7  C   UNL     1     -10.040  17.984  67.836  1.00  0.00    -0.360 C  
BRANCH   7   8
HETATM    8  C   UNL     1     -10.447  17.494  66.476  1.00  0.00    -0.270 C  
BRANCH   8   9
HETATM    9  C   UNL     1      -9.586  16.364  65.995  1.00  0.00    -0.352 C  
HETATM   10  C   UNL     1     -10.047  15.196  65.512  1.00  0.00    -0.402 C  
BRANCH  10  11
HETATM   11  C   UNL     1     -11.508  14.900  65.325  1.00  0.00    -0.336 C  
BRANCH  11  12
HETATM   12  C   UNL     1     -12.103  14.117  66.490  1.00  0.00    -0.481 C  
BRANCH  12  13
HETATM   13  C   UNL     1     -11.069  13.146  67.060  1.00  0.00    -0.305 C  
BRANCH  13  14
HETATM   14  C   UNL     1     -10.914  13.340  68.566  1.00  0.00    -0.291 C  
BRANCH  14  15
HETATM   15  C   UNL     1     -12.121  12.792  69.327  1.00  0.00    -0.224 C  
BRANCH  15  16
HETATM   16  C   UNL     1     -11.858  11.359  69.784  1.00  0.00    -0.435 C  
BRANCH  16  17
HETATM   17  C   UNL     1     -12.502  11.070  71.137  1.00  0.00    -0.502 C  
HETATM   18  C   UNL     1     -12.492   9.591  71.454  1.00  0.00    -0.362 C  
HETATM   19  O   UNL     1     -12.028   8.715  70.741  1.00  0.00    -0.240 OA 
HETATM   20  O   UNL     1     -13.069   9.319  72.648  1.00  0.00    -0.390 OA 
ENDBRANCH  16  17
ENDBRANCH  15  16
ENDBRANCH  14  15
ENDBRANCH  13  14
ENDBRANCH  12  13
ENDBRANCH  11  12
ENDBRANCH  10  11
ENDBRANCH   8   9
ENDBRANCH   7   8
ENDBRANCH   5   6
ENDBRANCH   4   5
ENDBRANCH   2   3
TORSDOF 12
ENDMDL
MODEL      211
REMARK 921   NORMALIZED FREE ENERGY PREDICTED BY IDOCK:   -3.77 KCAL/MOL
REMARK 922        TOTAL FREE ENERGY PREDICTED BY IDOCK:   -8.27 KCAL/MOL
REMARK 923 INTER-LIGAND FREE ENERGY PREDICTED BY IDOCK:   -6.33 KCAL/MOL
REMARK 924 INTRA-LIGAND FREE ENERGY PREDICTED BY IDOCK:   -1.93 KCAL/MOL
REMARK 927      BINDING AFFINITY PREDICTED BY RF-SCORE:    0.00 PKD
ROOT
HETATM    1  C   UNL     1     -11.785   8.903  72.030  1.00  0.00    -0.438 C  
HETATM    2  C   UNL     1     -12.497   7.676  71.482  1.00  0.00    -0.361 C  
ENDROOT
BRANCH   2   3
HETATM    3  C   UNL     1     -11.630   6.451  71.550  1.00  0.00    -0.364 C  
HETATM    4  C   UNL     1     -10.960   5.908  70.520  1.00  0.00    -0.362 C  
BRANCH   4   5
HETATM    5  C   UNL     1     -11.001   6.427  69.111  1.00  0.00    -0.416 C  
BRANCH   5   6
HETATM    6  C   UNL     1      -9.698   7.043  68.687  1.00  0.00    -0.139 C  
HETATM    7  C   UNL     1      -9.498   8.354  68.464  1.00  0.00    -0.149 C  
BRANCH   7   8
HETATM    8  C   UNL     1     -10.577   9.393  68.568  1.00  0.00    -0.234 C  
BRANCH   8   9
HETATM    9  C   UNL     1     -10.053  10.717  69.039  1.00  0.00    -0.225 C  
HETATM   10  C   UNL     1     -10.561  11.914  68.693  1.00  0.00    -0.259 C  
BRANCH  10  11
HETATM   11  C   UNL     1     -11.783  12.074  67.834  1.00  0.00    -0.393 C  
BRANCH  11  12
HETATM   12  C   UNL     1     -11.456  12.088  66.344  1.00  0.00    -0.417 C  
BRANCH  12  13
HETATM   13  C   UNL     1     -12.282  13.159  65.630  1.00  0.00    -0.521 C  
BRANCH  13  14
HETATM   14  C   UNL     1     -11.699  14.547  65.875  1.00  0.00    -0.345 C  
BRANCH  14  15
HETATM   15  C   UNL     1     -10.206  14.593  65.549  1.00  0.00    -0.395 C  
BRANCH  15  16
HETATM   16  C   UNL     1      -9.421  15.168  66.726  1.00  0.00    -0.260 C  
BRANCH  16  17
HETATM   17  C   UNL     1     -10.339  15.561  67.879  1.00  0.00    -0.250 C  
HETATM   18  C   UNL     1      -9.636  15.450  69.214  1.00  0.00    -0.268 C  
HETATM   19  O   UNL     1      -8.478  15.099  69.380  1.00  0.00    -0.225 OA 
HETATM   20  O   UNL     1     -10.442  15.788  70.248  1.00  0.00    -0.308 OA 
ENDBRANCH  16  17
ENDBRANCH  15  16
ENDBRANCH  14  15
ENDBRANCH  13  14
ENDBRANCH  12  13
ENDBRANCH  11  12
ENDBRANCH  10  11
ENDBRANCH   8   9
ENDBRANCH   7   8
ENDBRANCH   5   6
ENDBRANCH   4   5
ENDBRANCH   2   3
TORSDOF 12
ENDMDL
MODEL      212
REMARK 921   NORMALIZED FREE ENERGY PREDICTED BY IDOCK:   -3.77 KCAL/MOL
REMARK 922        TOTAL FREE ENERGY PREDICTED BY IDOCK:   -8.27 KCAL/MOL
REMARK 923 INTER-LIGAND FREE ENERGY PREDICTED BY IDOCK:   -6.83 KCAL/MOL
REMARK 924 INTRA-LIGAND FREE ENERGY PREDICTED BY IDOCK:   -1.43 KCAL/MOL
REMARK 927      BINDING AFFINITY PREDICTED BY RF-SCORE:    0.00 PKD
ROOT
HETATM    1  C   UNL     1      -5.815  19.399  68.819  1.00  0.00    -0.242 C  
HETATM    2  C   UNL     1      -6.630  20.086  67.735  1.00  0.00    -0.277 C  
ENDROOT
BRANCH   2   3
HETATM    3  C   UNL     1      -6.993  19.139  66.626  1.00  0.00    -0.216 C  
HETATM    4  C   UNL     1      -8.217  18.635  66.397  1.00  0.00    -0.295 C  
BRANCH   4   5
HETATM    5  C   UNL     1      -9.424  18.914  67.246  1.00  0.00    -0.336 C  
BRANCH   5   6
HETATM    6  C   UNL     1      -9.618  17.885  68.323  1.00  0.00    -0.312 C  
HETATM    7  C   UNL     1     -10.174  16.673  68.145  1.00  0.00    -0.280 C  
BRANCH   7   8
HETATM    8  C   UNL     1     -10.723  16.190  66.833  1.00  0.00    -0.247 C  
BRANCH   8   9
HETATM    9  C   UNL     1      -9.809  15.212  66.156  1.00  0.00    -0.325 C  
HETATM   10  C   UNL     1     -10.198  14.042  65.617  1.00  0.00    -0.351 C  
BRANCH  10  11
HETATM   11  C   UNL     1     -11.631  13.594  65.562  1.00  0.00    -0.337 C  
BRANCH  11  12
HETATM   12  C   UNL     1     -12.085  12.914  66.850  1.00  0.00    -0.313 C  
BRANCH  12  13
HETATM   13  C   UNL     1     -10.951  12.068  67.431  1.00  0.00    -0.311 C  
BRANCH  13  14
HETATM   14  C   UNL     1     -10.855  12.253  68.942  1.00  0.00    -0.238 C  
BRANCH  14  15
HETATM   15  C   UNL     1     -11.610  11.154  69.690  1.00  0.00    -0.398 C  
BRANCH  15  16
HETATM   16  C   UNL     1     -12.429  11.751  70.832  1.00  0.00    -0.416 C  
BRANCH  16  17
HETATM   17  C   UNL     1     -12.384  13.276  70.821  1.00  0.00    -0.425 C  
HETATM   18  C   UNL     1     -13.319  13.868  71.853  1.00  0.00    -0.412 C  
HETATM   19  O   UNL     1     -14.027  13.232  72.617  1.00  0.00    -0.741 OA 
HETATM   20  O   UNL     1     -13.296  15.221  71.849  1.00  0.00    -0.364 OA 
ENDBRANCH  16  17
ENDBRANCH  15  16
ENDBRANCH  14  15
ENDBRANCH  13  14
ENDBRANCH  12  13
ENDBRANCH  11  12
ENDBRANCH  10  11
ENDBRANCH   8   9
ENDBRANCH   7   8
ENDBRANCH   5   6
ENDBRANCH   4   5
ENDBRANCH   2   3
TORSDOF 12
ENDMDL
MODEL      213
REMARK 921   NORMALIZED FREE ENERGY PREDICTED BY IDOCK:   -3.77 KCAL/MOL
REMARK 922        TOTAL FREE ENERGY PREDICTED BY IDOCK:   -8.26 KCAL/MOL
REMARK 923 INTER-LIGAND FREE ENERGY PREDICTED BY IDOCK:   -5.81 KCAL/MOL
REMARK 924 INTRA-LIGAND FREE ENERGY PREDICTED BY IDOCK:   -2.45 KCAL/MOL
REMARK 927      BINDING AFFINITY PREDICTED BY RF-SCORE:    0.00 PKD
ROOT
HETATM    1  C   UNL     1     -12.611  13.891  65.642  1.00  0.00    -0.553 C  
HETATM    2  C   UNL     1     -12.258  13.422  67.045  1.00  0.00    -0.321 C  
ENDROOT
BRANCH   2   3
HETATM    3  C   UNL     1     -11.635  12.054  67.036  1.00  0.00    -0.387 C  
HETATM    4  C   UNL     1     -11.371  11.307  68.120  1.00  0.00    -0.372 C  
BRANCH   4   5
HETATM    5  C   UNL     1     -11.628  11.742  69.535  1.00  0.00    -0.398 C  
BRANCH   5   6
HETATM    6  C   UNL     1     -12.629  10.866  70.232  1.00  0.00    -0.342 C  
HETATM    7  C   UNL     1     -12.326   9.842  71.050  1.00  0.00    -0.451 C  
BRANCH   7   8
HETATM    8  C   UNL     1     -10.923   9.399  71.349  1.00  0.00    -0.443 C  
BRANCH   8   9
HETATM    9  C   UNL     1     -10.335   8.575  70.241  1.00  0.00    -0.218 C  
HETATM   10  C   UNL     1      -9.154   8.817  69.646  1.00  0.00    -0.149 C  
BRANCH  10  11
HETATM   11  C   UNL     1      -8.225   9.919  70.071  1.00  0.00    -0.187 C  
BRANCH  11  12
HETATM   12  C   UNL     1      -7.255  10.329  68.968  1.00  0.00    -0.080 C  
BRANCH  12  13
HETATM   13  C   UNL     1      -8.015  10.610  67.671  1.00  0.00    -0.106 C  
BRANCH  13  14
HETATM   14  C   UNL     1      -7.612  11.961  67.088  1.00  0.00    -0.154 C  
BRANCH  14  15
HETATM   15  C   UNL     1      -8.189  13.117  67.904  1.00  0.00    -0.162 C  
BRANCH  15  16
HETATM   16  C   UNL     1      -8.588  14.271  66.986  1.00  0.00    -0.213 C  
BRANCH  16  17
HETATM   17  C   UNL     1      -9.311  15.377  67.749  1.00  0.00    -0.195 C  
HETATM   18  C   UNL     1      -9.892  16.412  66.813  1.00  0.00    -0.256 C  
HETATM   19  O   UNL     1      -9.816  16.390  65.595  1.00  0.00    -0.484 OA 
HETATM   20  O   UNL     1     -10.529  17.404  67.478  1.00  0.00    -0.343 OA 
ENDBRANCH  16  17
ENDBRANCH  15  16
ENDBRANCH  14  15
ENDBRANCH  13  14
ENDBRANCH  12  13
ENDBRANCH  11  12
ENDBRANCH  10  11
ENDBRANCH   8   9
ENDBRANCH   7   8
ENDBRANCH   5   6
ENDBRANCH   4   5
ENDBRANCH   2   3
TORSDOF 12
ENDMDL
MODEL      214
REMARK 921   NORMALIZED FREE ENERGY PREDICTED BY IDOCK:   -3.77 KCAL/MOL
REMARK 922        TOTAL FREE ENERGY PREDICTED BY IDOCK:   -8.26 KCAL/MOL
REMARK 923 INTER-LIGAND FREE ENERGY PREDICTED BY IDOCK:   -6.60 KCAL/MOL
REMARK 924 INTRA-LIGAND FREE ENERGY PREDICTED BY IDOCK:   -1.66 KCAL/MOL
REMARK 927      BINDING AFFINITY PREDICTED BY RF-SCORE:    0.00 PKD
ROOT
HETATM    1  C   UNL     1     -11.174   9.129  71.830  1.00  0.00    -0.451 C  
HETATM    2  C   UNL     1     -12.235   8.123  71.412  1.00  0.00    -0.324 C  
ENDROOT
BRANCH   2   3
HETATM    3  C   UNL     1     -11.712   6.715  71.444  1.00  0.00    -0.374 C  
HETATM    4  C   UNL     1     -11.224   6.037  70.391  1.00  0.00    -0.380 C  
BRANCH   4   5
HETATM    5  C   UNL     1     -11.157   6.576  68.991  1.00  0.00    -0.375 C  
BRANCH   5   6
HETATM    6  C   UNL     1      -9.890   7.339  68.728  1.00  0.00    -0.161 C  
HETATM    7  C   UNL     1      -9.828   8.609  68.291  1.00  0.00    -0.186 C  
BRANCH   7   8
HETATM    8  C   UNL     1     -11.035   9.438  67.959  1.00  0.00    -0.119 C  
BRANCH   8   9
HETATM    9  C   UNL     1     -11.228  10.576  68.917  1.00  0.00    -0.323 C  
HETATM   10  C   UNL     1     -10.947  11.864  68.648  1.00  0.00    -0.271 C  
BRANCH  10  11
HETATM   11  C   UNL     1     -10.463  12.342  67.308  1.00  0.00    -0.236 C  
BRANCH  11  12
HETATM   12  C   UNL     1      -8.970  12.109  67.105  1.00  0.00    -0.189 C  
BRANCH  12  13
HETATM   13  C   UNL     1      -8.702  11.583  65.694  1.00  0.00     0.050 C  
BRANCH  13  14
HETATM   14  C   UNL     1      -9.888  10.770  65.184  1.00  0.00    -0.333 C  
BRANCH  14  15
HETATM   15  C   UNL     1     -10.404  11.309  63.850  1.00  0.00    -0.439 C  
BRANCH  15  16
HETATM   16  C   UNL     1     -11.781  11.946  64.028  1.00  0.00    -0.469 C  
BRANCH  16  17
HETATM   17  C   UNL     1     -11.828  13.359  63.455  1.00  0.00    -0.399 C  
HETATM   18  C   UNL     1     -12.392  14.346  64.453  1.00  0.00    -0.403 C  
HETATM   19  O   UNL     1     -12.765  14.077  65.584  1.00  0.00    -0.526 OA 
HETATM   20  O   UNL     1     -12.448  15.603  63.954  1.00  0.00    -0.693 OA 
ENDBRANCH  16  17
ENDBRANCH  15  16
ENDBRANCH  14  15
ENDBRANCH  13  14
ENDBRANCH  12  13
ENDBRANCH  11  12
ENDBRANCH  10  11
ENDBRANCH   8   9
ENDBRANCH   7   8
ENDBRANCH   5   6
ENDBRANCH   4   5
ENDBRANCH   2   3
TORSDOF 12
ENDMDL
MODEL      215
REMARK 921   NORMALIZED FREE ENERGY PREDICTED BY IDOCK:   -3.75 KCAL/MOL
REMARK 922        TOTAL FREE ENERGY PREDICTED BY IDOCK:   -8.23 KCAL/MOL
REMARK 923 INTER-LIGAND FREE ENERGY PREDICTED BY IDOCK:   -7.30 KCAL/MOL
REMARK 924 INTRA-LIGAND FREE ENERGY PREDICTED BY IDOCK:   -0.93 KCAL/MOL
REMARK 927      BINDING AFFINITY PREDICTED BY RF-SCORE:    0.00 PKD
ROOT
HETATM    1  C   UNL     1     -13.079  10.070  71.764  1.00  0.00    -0.562 C  
HETATM    2  C   UNL     1     -12.835  11.477  71.240  1.00  0.00    -0.463 C  
ENDROOT
BRANCH   2   3
HETATM    3  C   UNL     1     -13.388  12.521  72.168  1.00  0.00    -0.540 C  
HETATM    4  C   UNL     1     -13.460  13.838  71.911  1.00  0.00    -0.514 C  
BRANCH   4   5
HETATM    5  C   UNL     1     -12.960  14.486  70.651  1.00  0.00    -0.358 C  
BRANCH   5   6
HETATM    6  C   UNL     1     -11.978  15.589  70.924  1.00  0.00    -0.420 C  
HETATM    7  C   UNL     1     -10.826  15.783  70.258  1.00  0.00    -0.363 C  
BRANCH   7   8
HETATM    8  C   UNL     1     -10.335  14.883  69.160  1.00  0.00    -0.246 C  
BRANCH   8   9
HETATM    9  C   UNL     1     -10.302  15.573  67.828  1.00  0.00    -0.263 C  
HETATM   10  C   UNL     1     -10.931  15.138  66.721  1.00  0.00    -0.321 C  
BRANCH  10  11
HETATM   11  C   UNL     1     -11.818  13.926  66.698  1.00  0.00    -0.447 C  
BRANCH  11  12
HETATM   12  C   UNL     1     -12.766  13.914  65.503  1.00  0.00    -0.536 C  
BRANCH  12  13
HETATM   13  C   UNL     1     -11.986  13.679  64.209  1.00  0.00    -0.488 C  
BRANCH  13  14
HETATM   14  C   UNL     1     -12.212  12.263  63.690  1.00  0.00    -0.665 C  
BRANCH  14  15
HETATM   15  C   UNL     1     -10.893  11.508  63.529  1.00  0.00    -0.473 C  
BRANCH  15  16
HETATM   16  C   UNL     1     -10.366  11.060  64.891  1.00  0.00    -0.378 C  
BRANCH  16  17
HETATM   17  C   UNL     1      -9.470   9.831  64.773  1.00  0.00    -0.318 C  
HETATM   18  C   UNL     1      -8.210  10.132  63.992  1.00  0.00    -0.164 C  
HETATM   19  O   UNL     1      -7.916  11.214  63.509  1.00  0.00     0.314 OA 
HETATM   20  O   UNL     1      -7.409   9.048  63.872  1.00  0.00    -0.095 OA 
ENDBRANCH  16  17
ENDBRANCH  15  16
ENDBRANCH  14  15
ENDBRANCH  13  14
ENDBRANCH  12  13
ENDBRANCH  11  12
ENDBRANCH  10  11
ENDBRANCH   8   9
ENDBRANCH   7   8
ENDBRANCH   5   6
ENDBRANCH   4   5
ENDBRANCH   2   3
TORSDOF 12
ENDMDL
MODEL      216
REMARK 921   NORMALIZED FREE ENERGY PREDICTED BY IDOCK:   -3.75 KCAL/MOL
REMARK 922        TOTAL FREE ENERGY PREDICTED BY IDOCK:   -8.22 KCAL/MOL
REMARK 923 INTER-LIGAND FREE ENERGY PREDICTED BY IDOCK:   -6.75 KCAL/MOL
REMARK 924 INTRA-LIGAND FREE ENERGY PREDICTED BY IDOCK:   -1.47 KCAL/MOL
REMARK 927      BINDING AFFINITY PREDICTED BY RF-SCORE:    0.00 PKD
ROOT
HETATM    1  C   UNL     1     -10.466  12.461  68.237  1.00  0.00    -0.234 C  
HETATM    2  C   UNL     1      -9.439  11.500  67.657  1.00  0.00    -0.170 C  
ENDROOT
BRANCH   2   3
HETATM    3  C   UNL     1      -8.503  10.981  68.712  1.00  0.00    -0.144 C  
HETATM    4  C   UNL     1      -8.710   9.897  69.477  1.00  0.00    -0.200 C  
BRANCH   4   5
HETATM    5  C   UNL     1      -9.943   9.041  69.423  1.00  0.00    -0.191 C  
BRANCH   5   6
HETATM    6  C   UNL     1     -10.459   8.690  70.789  1.00  0.00    -0.249 C  
HETATM    7  C   UNL     1     -11.441   9.340  71.437  1.00  0.00    -0.439 C  
BRANCH   7   8
HETATM    8  C   UNL     1     -12.140  10.553  70.893  1.00  0.00    -0.487 C  
BRANCH   8   9
HETATM    9  C   UNL     1     -13.175  11.088  71.839  1.00  0.00    -0.503 C  
HETATM   10  C   UNL     1     -13.292  12.379  72.200  1.00  0.00    -0.508 C  
BRANCH  10  11
HETATM   11  C   UNL     1     -12.433  13.475  71.639  1.00  0.00    -0.229 C  
BRANCH  11  12
HETATM   12  C   UNL     1     -12.498  14.755  72.465  1.00  0.00    -0.414 C  
BRANCH  12  13
HETATM   13  C   UNL     1     -11.522  15.794  71.912  1.00  0.00    -0.477 C  
BRANCH  13  14
HETATM   14  C   UNL     1     -10.877  15.300  70.621  1.00  0.00    -0.278 C  
BRANCH  14  15
HETATM   15  C   UNL     1     -10.823  16.403  69.565  1.00  0.00    -0.338 C  
BRANCH  15  16
HETATM   16  C   UNL     1     -10.323  15.843  68.235  1.00  0.00    -0.242 C  
BRANCH  16  17
HETATM   17  C   UNL     1     -10.778  16.697  67.055  1.00  0.00    -0.174 C  
HETATM   18  C   UNL     1     -10.324  16.113  65.736  1.00  0.00    -0.378 C  
HETATM   19  O   UNL     1      -9.679  15.085  65.599  1.00  0.00    -0.339 OA 
HETATM   20  O   UNL     1     -10.714  16.865  64.681  1.00  0.00    -0.756 OA 
ENDBRANCH  16  17
ENDBRANCH  15  16
ENDBRANCH  14  15
ENDBRANCH  13  14
ENDBRANCH  12  13
ENDBRANCH  11  12
ENDBRANCH  10  11
ENDBRANCH   8   9
ENDBRANCH   7   8
ENDBRANCH   5   6
ENDBRANCH   4   5
ENDBRANCH   2   3
TORSDOF 12
ENDMDL
MODEL      217
REMARK 921   NORMALIZED FREE ENERGY PREDICTED BY IDOCK:   -3.74 KCAL/MOL
REMARK 922        TOTAL FREE ENERGY PREDICTED BY IDOCK:   -8.21 KCAL/MOL
REMARK 923 INTER-LIGAND FREE ENERGY PREDICTED BY IDOCK:   -7.28 KCAL/MOL
REMARK 924 INTRA-LIGAND FREE ENERGY PREDICTED BY IDOCK:   -0.93 KCAL/MOL
REMARK 927      BINDING AFFINITY PREDICTED BY RF-SCORE:    0.00 PKD
ROOT
HETATM    1  C   UNL     1     -13.681  13.281  72.287  1.00  0.00    -0.686 C  
HETATM    2  C   UNL     1     -14.224  14.558  71.666  1.00  0.00    -0.554 C  
ENDROOT
BRANCH   2   3
HETATM    3  C   UNL     1     -13.160  15.611  71.537  1.00  0.00    -0.561 C  
HETATM    4  C   UNL     1     -12.262  15.700  70.541  1.00  0.00    -0.437 C  
BRANCH   4   5
HETATM    5  C   UNL     1     -12.157  14.726  69.403  1.00  0.00    -0.305 C  
BRANCH   5   6
HETATM    6  C   UNL     1     -11.419  15.296  68.225  1.00  0.00    -0.359 C  
HETATM    7  C   UNL     1     -11.473  14.815  66.971  1.00  0.00    -0.362 C  
BRANCH   7   8
HETATM    8  C   UNL     1     -12.258  13.597  66.576  1.00  0.00    -0.454 C  
BRANCH   8   9
HETATM    9  C   UNL     1     -12.470  13.510  65.094  1.00  0.00    -0.495 C  
HETATM   10  C   UNL     1     -11.625  12.920  64.229  1.00  0.00    -0.434 C  
BRANCH  10  11
HETATM   11  C   UNL     1     -10.377  12.201  64.655  1.00  0.00    -0.328 C  
BRANCH  11  12
HETATM   12  C   UNL     1     -10.650  10.777  65.128  1.00  0.00    -0.239 C  
BRANCH  12  13
HETATM   13  C   UNL     1     -10.134  10.584  66.554  1.00  0.00    -0.280 C  
BRANCH  13  14
HETATM   14  C   UNL     1     -10.540   9.217  67.097  1.00  0.00    -0.286 C  
BRANCH  14  15
HETATM   15  C   UNL     1      -9.550   8.131  66.679  1.00  0.00    -0.295 C  
BRANCH  15  16
HETATM   16  C   UNL     1     -10.234   6.766  66.653  1.00  0.00    -0.211 C  
BRANCH  16  17
HETATM   17  C   UNL     1     -11.074   6.532  67.905  1.00  0.00    -0.352 C  
HETATM   18  C   UNL     1     -10.283   5.822  68.981  1.00  0.00    -0.217 C  
HETATM   19  O   UNL     1      -9.116   5.475  68.893  1.00  0.00    -0.116 OA 
HETATM   20  O   UNL     1     -11.019   5.600  70.095  1.00  0.00    -0.313 OA 
ENDBRANCH  16  17
ENDBRANCH  15  16
ENDBRANCH  14  15
ENDBRANCH  13  14
ENDBRANCH  12  13
ENDBRANCH  11  12
ENDBRANCH  10  11
ENDBRANCH   8   9
ENDBRANCH   7   8
ENDBRANCH   5   6
ENDBRANCH   4   5
ENDBRANCH   2   3
TORSDOF 12
ENDMDL
MODEL      218
REMARK 921   NORMALIZED FREE ENERGY PREDICTED BY IDOCK:   -3.73 KCAL/MOL
REMARK 922        TOTAL FREE ENERGY PREDICTED BY IDOCK:   -8.20 KCAL/MOL
REMARK 923 INTER-LIGAND FREE ENERGY PREDICTED BY IDOCK:   -6.59 KCAL/MOL
REMARK 924 INTRA-LIGAND FREE ENERGY PREDICTED BY IDOCK:   -1.60 KCAL/MOL
REMARK 927      BINDING AFFINITY PREDICTED BY RF-SCORE:    0.00 PKD
ROOT
HETATM    1  C   UNL     1     -10.661  19.635  65.669  1.00  0.00    -0.462 C  
HETATM    2  C   UNL     1      -9.681  19.626  66.832  1.00  0.00    -0.482 C  
ENDROOT
BRANCH   2   3
HETATM    3  C   UNL     1     -10.264  18.962  68.047  1.00  0.00    -0.452 C  
HETATM    4  C   UNL     1     -10.162  17.657  68.352  1.00  0.00    -0.381 C  
BRANCH   4   5
HETATM    5  C   UNL     1      -9.470  16.636  67.495  1.00  0.00    -0.229 C  
BRANCH   5   6
HETATM    6  C   UNL     1      -8.000  16.542  67.788  1.00  0.00    -0.171 C  
HETATM    7  C   UNL     1      -7.404  15.533  68.447  1.00  0.00    -0.115 C  
BRANCH   7   8
HETATM    8  C   UNL     1      -8.145  14.363  69.028  1.00  0.00    -0.047 C  
BRANCH   8   9
HETATM    9  C   UNL     1      -7.812  13.075  68.335  1.00  0.00    -0.134 C  
HETATM   10  C   UNL     1      -8.622  12.433  67.474  1.00  0.00    -0.177 C  
BRANCH  10  11
HETATM   11  C   UNL     1      -9.955  12.972  67.036  1.00  0.00    -0.242 C  
BRANCH  11  12
HETATM   12  C   UNL     1     -11.126  12.186  67.617  1.00  0.00    -0.320 C  
BRANCH  12  13
HETATM   13  C   UNL     1     -11.716  12.926  68.818  1.00  0.00    -0.363 C  
BRANCH  13  14
HETATM   14  C   UNL     1     -12.169  11.941  69.892  1.00  0.00    -0.269 C  
BRANCH  14  15
HETATM   15  C   UNL     1     -12.422  12.644  71.225  1.00  0.00    -0.276 C  
BRANCH  15  16
HETATM   16  C   UNL     1     -13.144  13.971  71.000  1.00  0.00    -0.342 C  
BRANCH  16  17
HETATM   17  C   UNL     1     -13.557  14.620  72.318  1.00  0.00    -0.536 C  
HETATM   18  C   UNL     1     -12.626  15.749  72.699  1.00  0.00    -0.445 C  
HETATM   19  O   UNL     1     -11.662  16.124  72.051  1.00  0.00    -0.477 OA 
HETATM   20  O   UNL     1     -12.977  16.329  73.871  1.00  0.00    -0.675 OA 
ENDBRANCH  16  17
ENDBRANCH  15  16
ENDBRANCH  14  15
ENDBRANCH  13  14
ENDBRANCH  12  13
ENDBRANCH  11  12
ENDBRANCH  10  11
ENDBRANCH   8   9
ENDBRANCH   7   8
ENDBRANCH   5   6
ENDBRANCH   4   5
ENDBRANCH   2   3
TORSDOF 12
ENDMDL
MODEL      219
REMARK 921   NORMALIZED FREE ENERGY PREDICTED BY IDOCK:   -3.72 KCAL/MOL
REMARK 922        TOTAL FREE ENERGY PREDICTED BY IDOCK:   -8.18 KCAL/MOL
REMARK 923 INTER-LIGAND FREE ENERGY PREDICTED BY IDOCK:   -5.30 KCAL/MOL
REMARK 924 INTRA-LIGAND FREE ENERGY PREDICTED BY IDOCK:   -2.88 KCAL/MOL
REMARK 927      BINDING AFFINITY PREDICTED BY RF-SCORE:    0.00 PKD
ROOT
HETATM    1  C   UNL     1      -6.498  10.887  66.376  1.00  0.00    -0.130 C  
HETATM    2  C   UNL     1      -6.247  12.115  67.237  1.00  0.00    -0.152 C  
ENDROOT
BRANCH   2   3
HETATM    3  C   UNL     1      -7.469  12.507  68.019  1.00  0.00    -0.117 C  
HETATM    4  C   UNL     1      -7.839  13.764  68.315  1.00  0.00    -0.144 C  
BRANCH   4   5
HETATM    5  C   UNL     1      -7.060  14.991  67.937  1.00  0.00    -0.165 C  
BRANCH   5   6
HETATM    6  C   UNL     1      -7.718  15.773  66.837  1.00  0.00    -0.254 C  
HETATM    7  C   UNL     1      -8.526  16.834  67.017  1.00  0.00    -0.225 C  
BRANCH   7   8
HETATM    8  C   UNL     1      -8.920  17.364  68.365  1.00  0.00    -0.277 C  
BRANCH   8   9
HETATM    9  C   UNL     1     -10.409  17.447  68.533  1.00  0.00    -0.378 C  
HETATM   10  C   UNL     1     -11.161  16.543  69.187  1.00  0.00    -0.270 C  
BRANCH  10  11
HETATM   11  C   UNL     1     -10.586  15.354  69.903  1.00  0.00    -0.315 C  
BRANCH  11  12
HETATM   12  C   UNL     1     -11.465  14.113  69.780  1.00  0.00    -0.309 C  
BRANCH  12  13
HETATM   13  C   UNL     1     -12.162  14.090  68.420  1.00  0.00    -0.202 C  
BRANCH  13  14
HETATM   14  C   UNL     1     -11.251  13.491  67.353  1.00  0.00    -0.317 C  
BRANCH  14  15
HETATM   15  C   UNL     1     -11.124  14.414  66.142  1.00  0.00    -0.330 C  
BRANCH  15  16
HETATM   16  C   UNL     1     -10.536  13.657  64.953  1.00  0.00    -0.421 C  
BRANCH  16  17
HETATM   17  C   UNL     1     -10.004  12.287  65.363  1.00  0.00    -0.264 C  
HETATM   18  C   UNL     1     -10.469  11.203  64.416  1.00  0.00    -0.353 C  
HETATM   19  O   UNL     1     -11.174  11.372  63.434  1.00  0.00    -0.357 OA 
HETATM   20  O   UNL     1     -10.011   9.980  64.773  1.00  0.00    -0.321 OA 
ENDBRANCH  16  17
ENDBRANCH  15  16
ENDBRANCH  14  15
ENDBRANCH  13  14
ENDBRANCH  12  13
ENDBRANCH  11  12
ENDBRANCH  10  11
ENDBRANCH   8   9
ENDBRANCH   7   8
ENDBRANCH   5   6
ENDBRANCH   4   5
ENDBRANCH   2   3
TORSDOF 12
ENDMDL
MODEL      220
REMARK 921   NORMALIZED FREE ENERGY PREDICTED BY IDOCK:   -3.72 KCAL/MOL
REMARK 922        TOTAL FREE ENERGY PREDICTED BY IDOCK:   -8.18 KCAL/MOL
REMARK 923 INTER-LIGAND FREE ENERGY PREDICTED BY IDOCK:   -6.22 KCAL/MOL
REMARK 924 INTRA-LIGAND FREE ENERGY PREDICTED BY IDOCK:   -1.95 KCAL/MOL
REMARK 927      BINDING AFFINITY PREDICTED BY RF-SCORE:    0.00 PKD
ROOT
HETATM    1  C   UNL     1     -11.088  15.432  64.523  1.00  0.00    -0.272 C  
HETATM    2  C   UNL     1     -12.230  14.447  64.712  1.00  0.00    -0.458 C  
ENDROOT
BRANCH   2   3
HETATM    3  C   UNL     1     -12.150  13.305  63.738  1.00  0.00    -0.546 C  
HETATM    4  C   UNL     1     -11.478  12.158  63.931  1.00  0.00    -0.519 C  
BRANCH   4   5
HETATM    5  C   UNL     1     -10.660  11.846  65.152  1.00  0.00    -0.333 C  
BRANCH   5   6
HETATM    6  C   UNL     1     -11.478  11.871  66.412  1.00  0.00    -0.371 C  
HETATM    7  C   UNL     1     -11.270  11.087  67.485  1.00  0.00    -0.372 C  
BRANCH   7   8
HETATM    8  C   UNL     1     -10.202  10.035  67.556  1.00  0.00    -0.260 C  
BRANCH   8   9
HETATM    9  C   UNL     1      -9.339  10.178  68.776  1.00  0.00    -0.168 C  
HETATM   10  C   UNL     1      -8.256  10.971  68.863  1.00  0.00    -0.127 C  
BRANCH  10  11
HETATM   11  C   UNL     1      -7.807  11.881  67.755  1.00  0.00    -0.138 C  
BRANCH  11  12
HETATM   12  C   UNL     1      -7.827  13.352  68.158  1.00  0.00    -0.145 C  
BRANCH  12  13
HETATM   13  C   UNL     1      -8.733  14.147  67.218  1.00  0.00    -0.229 C  
BRANCH  13  14
HETATM   14  C   UNL     1      -9.833  14.859  67.999  1.00  0.00    -0.216 C  
BRANCH  14  15
HETATM   15  C   UNL     1      -9.253  15.758  69.091  1.00  0.00    -0.256 C  
BRANCH  15  16
HETATM   16  C   UNL     1      -8.571  16.976  68.472  1.00  0.00    -0.257 C  
BRANCH  16  17
HETATM   17  C   UNL     1      -9.458  17.654  67.432  1.00  0.00    -0.256 C  
HETATM   18  C   UNL     1     -10.099  18.910  67.980  1.00  0.00    -0.377 C  
HETATM   19  O   UNL     1      -9.939  19.355  69.105  1.00  0.00    -0.435 OA 
HETATM   20  O   UNL     1     -10.896  19.517  67.070  1.00  0.00    -0.487 OA 
ENDBRANCH  16  17
ENDBRANCH  15  16
ENDBRANCH  14  15
ENDBRANCH  13  14
ENDBRANCH  12  13
ENDBRANCH  11  12
ENDBRANCH  10  11
ENDBRANCH   8   9
ENDBRANCH   7   8
ENDBRANCH   5   6
ENDBRANCH   4   5
ENDBRANCH   2   3
TORSDOF 12
ENDMDL
MODEL      221
REMARK 921   NORMALIZED FREE ENERGY PREDICTED BY IDOCK:   -3.71 KCAL/MOL
REMARK 922        TOTAL FREE ENERGY PREDICTED BY IDOCK:   -8.16 KCAL/MOL
REMARK 923 INTER-LIGAND FREE ENERGY PREDICTED BY IDOCK:   -6.01 KCAL/MOL
REMARK 924 INTRA-LIGAND FREE ENERGY PREDICTED BY IDOCK:   -2.15 KCAL/MOL
REMARK 927      BINDING AFFINITY PREDICTED BY RF-SCORE:    0.00 PKD
ROOT
HETATM    1  C   UNL     1      -9.728  11.347  68.143  1.00  0.00    -0.194 C  
HETATM    2  C   UNL     1     -11.092  10.691  68.289  1.00  0.00    -0.334 C  
ENDROOT
BRANCH   2   3
HETATM    3  C   UNL     1     -11.909  11.340  69.371  1.00  0.00    -0.424 C  
HETATM    4  C   UNL     1     -12.257  10.771  70.537  1.00  0.00    -0.457 C  
BRANCH   4   5
HETATM    5  C   UNL     1     -11.909   9.364  70.933  1.00  0.00    -0.365 C  
BRANCH   5   6
HETATM    6  C   UNL     1     -10.506   9.245  71.455  1.00  0.00    -0.408 C  
HETATM    7  C   UNL     1     -10.102   8.379  72.401  1.00  0.00    -0.386 C  
BRANCH   7   8
HETATM    8  C   UNL     1     -11.022   7.425  73.108  1.00  0.00    -0.408 C  
BRANCH   8   9
HETATM    9  C   UNL     1     -10.290   6.523  74.057  1.00  0.00    -0.362 C  
HETATM   10  C   UNL     1     -10.093   5.206  73.869  1.00  0.00    -0.228 C  
BRANCH  10  11
HETATM   11  C   UNL     1     -10.527   4.474  72.631  1.00  0.00    -0.258 C  
BRANCH  11  12
HETATM   12  C   UNL     1      -9.376   4.226  71.661  1.00  0.00    -0.199 C  
BRANCH  12  13
HETATM   13  C   UNL     1      -9.839   4.448  70.221  1.00  0.00    -0.284 C  
BRANCH  13  14
HETATM   14  C   UNL     1      -9.775   5.926  69.851  1.00  0.00    -0.208 C  
BRANCH  14  15
HETATM   15  C   UNL     1     -11.018   6.364  69.077  1.00  0.00    -0.410 C  
BRANCH  15  16
HETATM   16  C   UNL     1     -10.629   6.881  67.693  1.00  0.00    -0.328 C  
BRANCH  16  17
HETATM   17  C   UNL     1     -11.034   5.906  66.592  1.00  0.00    -0.228 C  
HETATM   18  C   UNL     1      -9.869   5.045  66.154  1.00  0.00    -0.198 C  
HETATM   19  O   UNL     1      -8.738   5.095  66.611  1.00  0.00    -0.110 OA 
HETATM   20  O   UNL     1     -10.212   4.180  65.171  1.00  0.00    -0.224 OA 
ENDBRANCH  16  17
ENDBRANCH  15  16
ENDBRANCH  14  15
ENDBRANCH  13  14
ENDBRANCH  12  13
ENDBRANCH  11  12
ENDBRANCH  10  11
ENDBRANCH   8   9
ENDBRANCH   7   8
ENDBRANCH   5   6
ENDBRANCH   4   5
ENDBRANCH   2   3
TORSDOF 12
ENDMDL
MODEL      222
REMARK 921   NORMALIZED FREE ENERGY PREDICTED BY IDOCK:   -3.71 KCAL/MOL
REMARK 922        TOTAL FREE ENERGY PREDICTED BY IDOCK:   -8.16 KCAL/MOL
REMARK 923 INTER-LIGAND FREE ENERGY PREDICTED BY IDOCK:   -6.47 KCAL/MOL
REMARK 924 INTRA-LIGAND FREE ENERGY PREDICTED BY IDOCK:   -1.69 KCAL/MOL
REMARK 927      BINDING AFFINITY PREDICTED BY RF-SCORE:    0.00 PKD
ROOT
HETATM    1  C   UNL     1     -12.427  11.124  70.350  1.00  0.00    -0.382 C  
HETATM    2  C   UNL     1     -11.359  10.094  70.681  1.00  0.00    -0.433 C  
ENDROOT
BRANCH   2   3
HETATM    3  C   UNL     1     -11.922   8.937  71.458  1.00  0.00    -0.401 C  
HETATM    4  C   UNL     1     -11.265   8.223  72.386  1.00  0.00    -0.451 C  
BRANCH   4   5
HETATM    5  C   UNL     1      -9.831   8.450  72.775  1.00  0.00    -0.289 C  
BRANCH   5   6
HETATM    6  C   UNL     1      -8.921   7.368  72.268  1.00  0.00    -0.154 C  
HETATM    7  C   UNL     1      -8.067   7.494  71.237  1.00  0.00    -0.096 C  
BRANCH   7   8
HETATM    8  C   UNL     1      -7.933   8.742  70.412  1.00  0.00    -0.113 C  
BRANCH   8   9
HETATM    9  C   UNL     1      -8.266   8.509  68.967  1.00  0.00    -0.116 C  
HETATM   10  C   UNL     1      -8.619   9.470  68.095  1.00  0.00    -0.120 C  
BRANCH  10  11
HETATM   11  C   UNL     1      -8.656  10.931  68.445  1.00  0.00    -0.146 C  
BRANCH  11  12
HETATM   12  C   UNL     1      -9.576  11.732  67.530  1.00  0.00    -0.179 C  
BRANCH  12  13
HETATM   13  C   UNL     1      -9.263  11.426  66.065  1.00  0.00    -0.229 C  
BRANCH  13  14
HETATM   14  C   UNL     1     -10.542  11.137  65.285  1.00  0.00    -0.303 C  
BRANCH  14  15
HETATM   15  C   UNL     1     -10.719  12.109  64.119  1.00  0.00    -0.405 C  
BRANCH  15  16
HETATM   16  C   UNL     1     -11.673  13.237  64.506  1.00  0.00    -0.420 C  
BRANCH  16  17
HETATM   17  C   UNL     1     -10.932  14.553  64.723  1.00  0.00    -0.404 C  
HETATM   18  C   UNL     1     -11.739  15.734  64.231  1.00  0.00    -0.162 C  
HETATM   19  O   UNL     1     -12.849  15.675  63.726  1.00  0.00    -0.536 OA 
HETATM   20  O   UNL     1     -11.090  16.909  64.411  1.00  0.00    -1.128 OA 
ENDBRANCH  16  17
ENDBRANCH  15  16
ENDBRANCH  14  15
ENDBRANCH  13  14
ENDBRANCH  12  13
ENDBRANCH  11  12
ENDBRANCH  10  11
ENDBRANCH   8   9
ENDBRANCH   7   8
ENDBRANCH   5   6
ENDBRANCH   4   5
ENDBRANCH   2   3
TORSDOF 12
ENDMDL
MODEL      223
REMARK 921   NORMALIZED FREE ENERGY PREDICTED BY IDOCK:   -3.69 KCAL/MOL
REMARK 922        TOTAL FREE ENERGY PREDICTED BY IDOCK:   -8.12 KCAL/MOL
REMARK 923 INTER-LIGAND FREE ENERGY PREDICTED BY IDOCK:   -6.64 KCAL/MOL
REMARK 924 INTRA-LIGAND FREE ENERGY PREDICTED BY IDOCK:   -1.48 KCAL/MOL
REMARK 927      BINDING AFFINITY PREDICTED BY RF-SCORE:    0.00 PKD
ROOT
HETATM    1  C   UNL     1      -9.672  11.415  63.011  1.00  0.00    -0.393 C  
HETATM    2  C   UNL     1     -11.077  11.553  63.575  1.00  0.00    -0.434 C  
ENDROOT
BRANCH   2   3
HETATM    3  C   UNL     1     -11.394  12.976  63.941  1.00  0.00    -0.460 C  
HETATM    4  C   UNL     1     -10.815  13.678  64.929  1.00  0.00    -0.382 C  
BRANCH   4   5
HETATM    5  C   UNL     1      -9.769  13.132  65.860  1.00  0.00    -0.190 C  
BRANCH   5   6
HETATM    6  C   UNL     1     -10.363  12.333  66.985  1.00  0.00    -0.237 C  
HETATM    7  C   UNL     1     -10.510  12.767  68.249  1.00  0.00    -0.250 C  
BRANCH   7   8
HETATM    8  C   UNL     1     -10.054  14.115  68.727  1.00  0.00    -0.199 C  
BRANCH   8   9
HETATM    9  C   UNL     1     -11.146  15.142  68.669  1.00  0.00    -0.276 C  
HETATM   10  C   UNL     1     -11.572  15.874  69.714  1.00  0.00    -0.340 C  
BRANCH  10  11
HETATM   11  C   UNL     1     -10.947  15.804  71.079  1.00  0.00    -0.235 C  
BRANCH  11  12
HETATM   12  C   UNL     1     -11.822  16.433  72.158  1.00  0.00    -0.499 C  
BRANCH  12  13
HETATM   13  C   UNL     1     -12.724  15.374  72.794  1.00  0.00    -0.510 C  
BRANCH  13  14
HETATM   14  C   UNL     1     -13.991  15.174  71.968  1.00  0.00    -0.629 C  
BRANCH  14  15
HETATM   15  C   UNL     1     -14.399  13.702  71.915  1.00  0.00    -0.151 C  
BRANCH  15  16
HETATM   16  C   UNL     1     -13.175  12.803  72.080  1.00  0.00    -0.546 C  
BRANCH  16  17
HETATM   17  C   UNL     1     -12.872  12.022  70.805  1.00  0.00    -0.118 C  
HETATM   18  C   UNL     1     -12.629  10.557  71.094  1.00  0.00    -0.417 C  
HETATM   19  O   UNL     1     -12.670  10.034  72.196  1.00  0.00    -0.363 OA 
HETATM   20  O   UNL     1     -12.350   9.853  69.972  1.00  0.00    -0.015 OA 
ENDBRANCH  16  17
ENDBRANCH  15  16
ENDBRANCH  14  15
ENDBRANCH  13  14
ENDBRANCH  12  13
ENDBRANCH  11  12
ENDBRANCH  10  11
ENDBRANCH   8   9
ENDBRANCH   7   8
ENDBRANCH   5   6
ENDBRANCH   4   5
ENDBRANCH   2   3
TORSDOF 12
ENDMDL
MODEL      224
REMARK 921   NORMALIZED FREE ENERGY PREDICTED BY IDOCK:   -3.69 KCAL/MOL
REMARK 922        TOTAL FREE ENERGY PREDICTED BY IDOCK:   -8.12 KCAL/MOL
REMARK 923 INTER-LIGAND FREE ENERGY PREDICTED BY IDOCK:   -6.70 KCAL/MOL
REMARK 924 INTRA-LIGAND FREE ENERGY PREDICTED BY IDOCK:   -1.43 KCAL/MOL
REMARK 927      BINDING AFFINITY PREDICTED BY RF-SCORE:    0.00 PKD
ROOT
HETATM    1  C   UNL     1     -11.176  10.985  67.914  1.00  0.00    -0.375 C  
HETATM    2  C   UNL     1     -10.624   9.616  67.550  1.00  0.00    -0.339 C  
ENDROOT
BRANCH   2   3
HETATM    3  C   UNL     1      -9.566   9.165  68.517  1.00  0.00    -0.156 C  
HETATM    4  C   UNL     1      -9.612   8.050  69.265  1.00  0.00    -0.157 C  
BRANCH   4   5
HETATM    5  C   UNL     1     -10.762   7.083  69.278  1.00  0.00    -0.245 C  
BRANCH   5   6
HETATM    6  C   UNL     1     -11.254   6.794  70.668  1.00  0.00    -0.361 C  
HETATM    7  C   UNL     1     -11.884   7.675  71.464  1.00  0.00    -0.323 C  
BRANCH   7   8
HETATM    8  C   UNL     1     -12.149   9.104  71.085  1.00  0.00    -0.365 C  
BRANCH   8   9
HETATM    9  C   UNL     1     -13.153   9.758  71.988  1.00  0.00    -0.546 C  
HETATM   10  C   UNL     1     -13.383  11.082  72.051  1.00  0.00    -0.393 C  
BRANCH  10  11
HETATM   11  C   UNL     1     -12.702  12.082  71.161  1.00  0.00    -0.365 C  
BRANCH  11  12
HETATM   12  C   UNL     1     -13.141  13.515  71.443  1.00  0.00    -0.385 C  
BRANCH  12  13
HETATM   13  C   UNL     1     -12.125  14.503  70.868  1.00  0.00    -0.404 C  
BRANCH  13  14
HETATM   14  C   UNL     1     -12.019  14.354  69.354  1.00  0.00    -0.370 C  
BRANCH  14  15
HETATM   15  C   UNL     1     -10.901  15.224  68.782  1.00  0.00    -0.254 C  
BRANCH  15  16
HETATM   16  C   UNL     1     -11.101  15.435  67.283  1.00  0.00    -0.302 C  
BRANCH  16  17
HETATM   17  C   UNL     1     -10.460  14.318  66.465  1.00  0.00    -0.287 C  
HETATM   18  C   UNL     1     -11.465  13.643  65.558  1.00  0.00    -0.305 C  
HETATM   19  O   UNL     1     -12.647  13.938  65.465  1.00  0.00    -0.489 OA 
HETATM   20  O   UNL     1     -10.912  12.644  64.833  1.00  0.00    -0.277 OA 
ENDBRANCH  16  17
ENDBRANCH  15  16
ENDBRANCH  14  15
ENDBRANCH  13  14
ENDBRANCH  12  13
ENDBRANCH  11  12
ENDBRANCH  10  11
ENDBRANCH   8   9
ENDBRANCH   7   8
ENDBRANCH   5   6
ENDBRANCH   4   5
ENDBRANCH   2   3
TORSDOF 12
ENDMDL
MODEL      225
REMARK 921   NORMALIZED FREE ENERGY PREDICTED BY IDOCK:   -3.69 KCAL/MOL
REMARK 922        TOTAL FREE ENERGY PREDICTED BY IDOCK:   -8.12 KCAL/MOL
REMARK 923 INTER-LIGAND FREE ENERGY PREDICTED BY IDOCK:   -6.69 KCAL/MOL
REMARK 924 INTRA-LIGAND FREE ENERGY PREDICTED BY IDOCK:   -1.44 KCAL/MOL
REMARK 927      BINDING AFFINITY PREDICTED BY RF-SCORE:    0.00 PKD
ROOT
HETATM    1  C   UNL     1     -11.075   4.743  73.323  1.00  0.00    -0.411 C  
HETATM    2  C   UNL     1     -11.001   6.251  73.146  1.00  0.00    -0.251 C  
ENDROOT
BRANCH   2   3
HETATM    3  C   UNL     1     -12.143   6.773  72.321  1.00  0.00    -0.212 C  
HETATM    4  C   UNL     1     -12.088   7.083  71.015  1.00  0.00    -0.413 C  
BRANCH   4   5
HETATM    5  C   UNL     1     -10.849   6.991  70.171  1.00  0.00    -0.285 C  
BRANCH   5   6
HETATM    6  C   UNL     1     -10.905   5.855  69.190  1.00  0.00    -0.406 C  
HETATM    7  C   UNL     1     -10.908   5.987  67.852  1.00  0.00    -0.378 C  
BRANCH   7   8
HETATM    8  C   UNL     1     -10.899   7.311  67.143  1.00  0.00    -0.378 C  
BRANCH   8   9
HETATM    9  C   UNL     1      -9.580   7.599  66.488  1.00  0.00    -0.254 C  
HETATM   10  C   UNL     1      -9.189   8.808  66.046  1.00  0.00    -0.282 C  
BRANCH  10  11
HETATM   11  C   UNL     1     -10.008  10.056  66.219  1.00  0.00    -0.310 C  
BRANCH  11  12
HETATM   12  C   UNL     1      -9.638  11.146  65.219  1.00  0.00    -0.268 C  
BRANCH  12  13
HETATM   13  C   UNL     1     -10.738  11.298  64.168  1.00  0.00    -0.436 C  
BRANCH  13  14
HETATM   14  C   UNL     1     -11.476  12.621  64.344  1.00  0.00    -0.402 C  
BRANCH  14  15
HETATM   15  C   UNL     1     -10.563  13.700  64.926  1.00  0.00    -0.421 C  
BRANCH  15  16
HETATM   16  C   UNL     1     -11.249  14.408  66.092  1.00  0.00    -0.336 C  
BRANCH  16  17
HETATM   17  C   UNL     1     -12.026  13.431  66.968  1.00  0.00    -0.429 C  
HETATM   18  C   UNL     1     -11.221  13.004  68.176  1.00  0.00    -0.272 C  
HETATM   19  O   UNL     1     -10.092  13.382  68.446  1.00  0.00    -0.241 OA 
HETATM   20  O   UNL     1     -11.896  12.130  68.958  1.00  0.00    -0.303 OA 
ENDBRANCH  16  17
ENDBRANCH  15  16
ENDBRANCH  14  15
ENDBRANCH  13  14
ENDBRANCH  12  13
ENDBRANCH  11  12
ENDBRANCH  10  11
ENDBRANCH   8   9
ENDBRANCH   7   8
ENDBRANCH   5   6
ENDBRANCH   4   5
ENDBRANCH   2   3
TORSDOF 12
ENDMDL
MODEL      226
REMARK 921   NORMALIZED FREE ENERGY PREDICTED BY IDOCK:   -3.69 KCAL/MOL
REMARK 922        TOTAL FREE ENERGY PREDICTED BY IDOCK:   -8.12 KCAL/MOL
REMARK 923 INTER-LIGAND FREE ENERGY PREDICTED BY IDOCK:   -6.24 KCAL/MOL
REMARK 924 INTRA-LIGAND FREE ENERGY PREDICTED BY IDOCK:   -1.88 KCAL/MOL
REMARK 927      BINDING AFFINITY PREDICTED BY RF-SCORE:    0.00 PKD
ROOT
HETATM    1  C   UNL     1     -13.292   9.895  71.752  1.00  0.00    -0.501 C  
HETATM    2  C   UNL     1     -12.525  11.049  71.127  1.00  0.00    -0.502 C  
ENDROOT
BRANCH   2   3
HETATM    3  C   UNL     1     -12.985  12.377  71.657  1.00  0.00    -0.409 C  
HETATM    4  C   UNL     1     -12.593  13.580  71.204  1.00  0.00    -0.438 C  
BRANCH   4   5
HETATM    5  C   UNL     1     -11.590  13.788  70.105  1.00  0.00    -0.230 C  
BRANCH   5   6
HETATM    6  C   UNL     1     -11.041  15.186  70.086  1.00  0.00    -0.298 C  
HETATM    7  C   UNL     1      -9.833  15.537  69.610  1.00  0.00    -0.281 C  
BRANCH   7   8
HETATM    8  C   UNL     1      -8.835  14.558  69.062  1.00  0.00    -0.039 C  
BRANCH   8   9
HETATM    9  C   UNL     1      -7.423  14.924  69.415  1.00  0.00    -0.174 C  
HETATM   10  C   UNL     1      -6.569  15.571  68.601  1.00  0.00    -0.103 C  
BRANCH  10  11
HETATM   11  C   UNL     1      -6.951  16.079  67.240  1.00  0.00    -0.240 C  
BRANCH  11  12
HETATM   12  C   UNL     1      -7.132  17.593  67.208  1.00  0.00    -0.199 C  
BRANCH  12  13
HETATM   13  C   UNL     1      -8.171  17.980  66.154  1.00  0.00    -0.180 C  
BRANCH  13  14
HETATM   14  C   UNL     1      -9.584  17.854  66.713  1.00  0.00    -0.305 C  
BRANCH  14  15
HETATM   15  C   UNL     1     -10.494  17.073  65.766  1.00  0.00    -0.261 C  
BRANCH  15  16
HETATM   16  C   UNL     1     -10.280  15.571  65.937  1.00  0.00    -0.367 C  
BRANCH  16  17
HETATM   17  C   UNL     1     -11.604  14.819  66.033  1.00  0.00    -0.286 C  
HETATM   18  C   UNL     1     -11.703  13.730  64.989  1.00  0.00    -0.345 C  
HETATM   19  O   UNL     1     -10.845  13.457  64.164  1.00  0.00    -0.390 OA 
HETATM   20  O   UNL     1     -12.877  13.059  65.056  1.00  0.00    -0.689 OA 
ENDBRANCH  16  17
ENDBRANCH  15  16
ENDBRANCH  14  15
ENDBRANCH  13  14
ENDBRANCH  12  13
ENDBRANCH  11  12
ENDBRANCH  10  11
ENDBRANCH   8   9
ENDBRANCH   7   8
ENDBRANCH   5   6
ENDBRANCH   4   5
ENDBRANCH   2   3
TORSDOF 12
ENDMDL
MODEL      227
REMARK 921   NORMALIZED FREE ENERGY PREDICTED BY IDOCK:   -3.68 KCAL/MOL
REMARK 922        TOTAL FREE ENERGY PREDICTED BY IDOCK:   -8.11 KCAL/MOL
REMARK 923 INTER-LIGAND FREE ENERGY PREDICTED BY IDOCK:   -6.86 KCAL/MOL
REMARK 924 INTRA-LIGAND FREE ENERGY PREDICTED BY IDOCK:   -1.25 KCAL/MOL
REMARK 927      BINDING AFFINITY PREDICTED BY RF-SCORE:    0.00 PKD
ROOT
HETATM    1  C   UNL     1     -10.159  20.281  67.116  1.00  0.00    -0.556 C  
HETATM    2  C   UNL     1      -9.209  19.445  66.272  1.00  0.00    -0.388 C  
ENDROOT
BRANCH   2   3
HETATM    3  C   UNL     1      -8.530  18.380  67.086  1.00  0.00    -0.254 C  
HETATM    4  C   UNL     1      -9.051  17.182  67.397  1.00  0.00    -0.226 C  
BRANCH   4   5
HETATM    5  C   UNL     1     -10.428  16.726  67.007  1.00  0.00    -0.285 C  
BRANCH   5   6
HETATM    6  C   UNL     1     -10.542  16.437  65.537  1.00  0.00    -0.346 C  
HETATM    7  C   UNL     1     -10.515  15.212  64.984  1.00  0.00    -0.418 C  
BRANCH   7   8
HETATM    8  C   UNL     1     -10.322  13.946  65.769  1.00  0.00    -0.326 C  
BRANCH   8   9
HETATM    9  C   UNL     1     -11.590  13.153  65.895  1.00  0.00    -0.391 C  
HETATM   10  C   UNL     1     -12.281  12.985  67.037  1.00  0.00    -0.217 C  
BRANCH  10  11
HETATM   11  C   UNL     1     -11.903  13.639  68.335  1.00  0.00    -0.407 C  
BRANCH  11  12
HETATM   12  C   UNL     1     -11.672  12.630  69.456  1.00  0.00    -0.374 C  
BRANCH  12  13
HETATM   13  C   UNL     1     -10.550  11.663  69.075  1.00  0.00    -0.188 C  
BRANCH  13  14
HETATM   14  C   UNL     1     -10.929  10.228  69.428  1.00  0.00    -0.289 C  
BRANCH  14  15
HETATM   15  C   UNL     1     -10.766   9.958  70.923  1.00  0.00    -0.305 C  
BRANCH  15  16
HETATM   16  C   UNL     1     -12.082   9.467  71.523  1.00  0.00    -0.456 C  
BRANCH  16  17
HETATM   17  C   UNL     1     -11.872   8.267  72.441  1.00  0.00    -0.461 C  
HETATM   18  C   UNL     1     -12.027   6.960  71.695  1.00  0.00    -0.339 C  
HETATM   19  O   UNL     1     -12.281   6.847  70.507  1.00  0.00    -0.340 OA 
HETATM   20  O   UNL     1     -11.851   5.886  72.500  1.00  0.00    -0.295 OA 
ENDBRANCH  16  17
ENDBRANCH  15  16
ENDBRANCH  14  15
ENDBRANCH  13  14
ENDBRANCH  12  13
ENDBRANCH  11  12
ENDBRANCH  10  11
ENDBRANCH   8   9
ENDBRANCH   7   8
ENDBRANCH   5   6
ENDBRANCH   4   5
ENDBRANCH   2   3
TORSDOF 12
ENDMDL
MODEL      228
REMARK 921   NORMALIZED FREE ENERGY PREDICTED BY IDOCK:   -3.68 KCAL/MOL
REMARK 922        TOTAL FREE ENERGY PREDICTED BY IDOCK:   -8.10 KCAL/MOL
REMARK 923 INTER-LIGAND FREE ENERGY PREDICTED BY IDOCK:   -6.25 KCAL/MOL
REMARK 924 INTRA-LIGAND FREE ENERGY PREDICTED BY IDOCK:   -1.85 KCAL/MOL
REMARK 927      BINDING AFFINITY PREDICTED BY RF-SCORE:    0.00 PKD
ROOT
HETATM    1  C   UNL     1     -10.578   9.504  67.494  1.00  0.00    -0.338 C  
HETATM    2  C   UNL     1     -10.312  11.001  67.497  1.00  0.00    -0.233 C  
ENDROOT
BRANCH   2   3
HETATM    3  C   UNL     1     -11.588  11.794  67.540  1.00  0.00    -0.361 C  
HETATM    4  C   UNL     1     -11.849  12.896  66.818  1.00  0.00    -0.452 C  
BRANCH   4   5
HETATM    5  C   UNL     1     -10.880  13.539  65.868  1.00  0.00    -0.279 C  
BRANCH   5   6
HETATM    6  C   UNL     1     -11.507  14.647  65.070  1.00  0.00    -0.386 C  
HETATM    7  C   UNL     1     -11.076  15.920  65.042  1.00  0.00    -0.370 C  
BRANCH   7   8
HETATM    8  C   UNL     1      -9.916  16.428  65.850  1.00  0.00    -0.358 C  
BRANCH   8   9
HETATM    9  C   UNL     1     -10.343  16.973  67.181  1.00  0.00    -0.305 C  
HETATM   10  C   UNL     1     -10.633  18.264  67.426  1.00  0.00    -0.425 C  
BRANCH  10  11
HETATM   11  C   UNL     1     -10.634  19.326  66.364  1.00  0.00    -0.542 C  
BRANCH  11  12
HETATM   12  C   UNL     1      -9.249  19.914  66.119  1.00  0.00    -0.414 C  
BRANCH  12  13
HETATM   13  C   UNL     1      -8.662  20.452  67.425  1.00  0.00    -0.415 C  
BRANCH  13  14
HETATM   14  C   UNL     1      -7.307  19.815  67.714  1.00  0.00    -0.314 C  
BRANCH  14  15
HETATM   15  C   UNL     1      -6.926  18.796  66.640  1.00  0.00    -0.224 C  
BRANCH  15  16
HETATM   16  C   UNL     1      -5.892  17.812  67.181  1.00  0.00    -0.161 C  
BRANCH  16  17
HETATM   17  C   UNL     1      -6.404  16.375  67.141  1.00  0.00    -0.215 C  
HETATM   18  C   UNL     1      -6.872  15.912  68.503  1.00  0.00    -0.124 C  
HETATM   19  O   UNL     1      -6.860  16.583  69.523  1.00  0.00    -0.229 OA 
HETATM   20  O   UNL     1      -7.321  14.636  68.484  1.00  0.00    -0.104 OA 
ENDBRANCH  16  17
ENDBRANCH  15  16
ENDBRANCH  14  15
ENDBRANCH  13  14
ENDBRANCH  12  13
ENDBRANCH  11  12
ENDBRANCH  10  11
ENDBRANCH   8   9
ENDBRANCH   7   8
ENDBRANCH   5   6
ENDBRANCH   4   5
ENDBRANCH   2   3
TORSDOF 12
ENDMDL
MODEL      229
REMARK 921   NORMALIZED FREE ENERGY PREDICTED BY IDOCK:   -3.67 KCAL/MOL
REMARK 922        TOTAL FREE ENERGY PREDICTED BY IDOCK:   -8.09 KCAL/MOL
REMARK 923 INTER-LIGAND FREE ENERGY PREDICTED BY IDOCK:   -7.76 KCAL/MOL
REMARK 924 INTRA-LIGAND FREE ENERGY PREDICTED BY IDOCK:   -0.34 KCAL/MOL
REMARK 927      BINDING AFFINITY PREDICTED BY RF-SCORE:    0.00 PKD
ROOT
HETATM    1  C   UNL     1     -14.032  14.048  72.227  1.00  0.00    -0.651 C  
HETATM    2  C   UNL     1     -13.624  15.264  71.410  1.00  0.00    -0.598 C  
ENDROOT
BRANCH   2   3
HETATM    3  C   UNL     1     -12.132  15.356  71.255  1.00  0.00    -0.424 C  
HETATM    4  C   UNL     1     -11.420  14.868  70.226  1.00  0.00    -0.315 C  
BRANCH   4   5
HETATM    5  C   UNL     1     -12.007  14.110  69.070  1.00  0.00    -0.376 C  
BRANCH   5   6
HETATM    6  C   UNL     1     -11.804  12.627  69.193  1.00  0.00    -0.349 C  
HETATM    7  C   UNL     1     -11.451  11.808  68.186  1.00  0.00    -0.382 C  
BRANCH   7   8
HETATM    8  C   UNL     1     -11.251  12.263  66.770  1.00  0.00    -0.371 C  
BRANCH   8   9
HETATM    9  C   UNL     1     -12.118  13.437  66.419  1.00  0.00    -0.464 C  
HETATM   10  C   UNL     1     -11.706  14.520  65.736  1.00  0.00    -0.344 C  
BRANCH  10  11
HETATM   11  C   UNL     1     -10.323  14.662  65.167  1.00  0.00    -0.431 C  
BRANCH  11  12
HETATM   12  C   UNL     1      -9.272  14.932  66.239  1.00  0.00    -0.301 C  
BRANCH  12  13
HETATM   13  C   UNL     1      -9.826  15.886  67.297  1.00  0.00    -0.234 C  
BRANCH  13  14
HETATM   14  C   UNL     1      -9.407  17.323  67.006  1.00  0.00    -0.257 C  
BRANCH  14  15
HETATM   15  C   UNL     1     -10.620  18.241  66.853  1.00  0.00    -0.356 C  
BRANCH  15  16
HETATM   16  C   UNL     1     -10.202  19.581  66.253  1.00  0.00    -0.582 C  
BRANCH  16  17
HETATM   17  C   UNL     1      -9.329  20.383  67.213  1.00  0.00    -0.547 C  
HETATM   18  C   UNL     1      -7.947  20.618  66.647  1.00  0.00    -0.050 C  
HETATM   19  O   UNL     1      -7.551  20.234  65.557  1.00  0.00    -0.245 OA 
HETATM   20  O   UNL     1      -7.159  21.322  67.493  1.00  0.00    -0.482 OA 
ENDBRANCH  16  17
ENDBRANCH  15  16
ENDBRANCH  14  15
ENDBRANCH  13  14
ENDBRANCH  12  13
ENDBRANCH  11  12
ENDBRANCH  10  11
ENDBRANCH   8   9
ENDBRANCH   7   8
ENDBRANCH   5   6
ENDBRANCH   4   5
ENDBRANCH   2   3
TORSDOF 12
ENDMDL
MODEL      230
REMARK 921   NORMALIZED FREE ENERGY PREDICTED BY IDOCK:   -3.67 KCAL/MOL
REMARK 922        TOTAL FREE ENERGY PREDICTED BY IDOCK:   -8.09 KCAL/MOL
REMARK 923 INTER-LIGAND FREE ENERGY PREDICTED BY IDOCK:   -6.77 KCAL/MOL
REMARK 924 INTRA-LIGAND FREE ENERGY PREDICTED BY IDOCK:   -1.33 KCAL/MOL
REMARK 927      BINDING AFFINITY PREDICTED BY RF-SCORE:    0.00 PKD
ROOT
HETATM    1  C   UNL     1     -13.782   7.541  71.664  1.00  0.00    -0.465 C  
HETATM    2  C   UNL     1     -13.127   8.904  71.820  1.00  0.00    -0.423 C  
ENDROOT
BRANCH   2   3
HETATM    3  C   UNL     1     -11.714   8.791  72.318  1.00  0.00    -0.398 C  
HETATM    4  C   UNL     1     -10.648   8.445  71.577  1.00  0.00    -0.307 C  
BRANCH   4   5
HETATM    5  C   UNL     1     -10.708   8.076  70.122  1.00  0.00    -0.244 C  
BRANCH   5   6
HETATM    6  C   UNL     1      -9.356   8.098  69.468  1.00  0.00    -0.155 C  
HETATM    7  C   UNL     1      -8.717   9.203  69.045  1.00  0.00    -0.135 C  
BRANCH   7   8
HETATM    8  C   UNL     1      -9.296  10.586  69.131  1.00  0.00    -0.200 C  
BRANCH   8   9
HETATM    9  C   UNL     1     -10.346  10.831  68.087  1.00  0.00    -0.197 C  
HETATM   10  C   UNL     1     -11.587  11.287  68.336  1.00  0.00    -0.378 C  
BRANCH  10  11
HETATM   11  C   UNL     1     -12.063  11.681  69.706  1.00  0.00    -0.357 C  
BRANCH  11  12
HETATM   12  C   UNL     1     -12.145  13.193  69.887  1.00  0.00    -0.357 C  
BRANCH  12  13
HETATM   13  C   UNL     1     -11.754  13.905  68.591  1.00  0.00    -0.396 C  
BRANCH  13  14
HETATM   14  C   UNL     1     -11.845  15.418  68.755  1.00  0.00    -0.339 C  
BRANCH  14  15
HETATM   15  C   UNL     1     -10.688  15.962  69.593  1.00  0.00    -0.304 C  
BRANCH  15  16
HETATM   16  C   UNL     1     -10.109  17.220  68.951  1.00  0.00    -0.331 C  
BRANCH  16  17
HETATM   17  C   UNL     1     -10.239  17.190  67.431  1.00  0.00    -0.321 C  
HETATM   18  C   UNL     1     -10.489  18.570  66.866  1.00  0.00    -0.396 C  
HETATM   19  O   UNL     1     -10.574  19.599  67.516  1.00  0.00    -0.442 OA 
HETATM   20  O   UNL     1     -10.615  18.557  65.518  1.00  0.00    -0.621 OA 
ENDBRANCH  16  17
ENDBRANCH  15  16
ENDBRANCH  14  15
ENDBRANCH  13  14
ENDBRANCH  12  13
ENDBRANCH  11  12
ENDBRANCH  10  11
ENDBRANCH   8   9
ENDBRANCH   7   8
ENDBRANCH   5   6
ENDBRANCH   4   5
ENDBRANCH   2   3
TORSDOF 12
ENDMDL
MODEL      231
REMARK 921   NORMALIZED FREE ENERGY PREDICTED BY IDOCK:   -3.67 KCAL/MOL
REMARK 922        TOTAL FREE ENERGY PREDICTED BY IDOCK:   -8.09 KCAL/MOL
REMARK 923 INTER-LIGAND FREE ENERGY PREDICTED BY IDOCK:   -6.78 KCAL/MOL
REMARK 924 INTRA-LIGAND FREE ENERGY PREDICTED BY IDOCK:   -1.31 KCAL/MOL
REMARK 927      BINDING AFFINITY PREDICTED BY RF-SCORE:    0.00 PKD
ROOT
HETATM    1  C   UNL     1     -10.876   5.953  69.531  1.00  0.00    -0.442 C  
HETATM    2  C   UNL     1      -9.505   6.530  69.846  1.00  0.00    -0.161 C  
ENDROOT
BRANCH   2   3
HETATM    3  C   UNL     1      -8.929   5.945  71.104  1.00  0.00    -0.145 C  
HETATM    4  C   UNL     1      -8.967   6.514  72.320  1.00  0.00    -0.138 C  
BRANCH   4   5
HETATM    5  C   UNL     1      -9.566   7.861  72.611  1.00  0.00    -0.290 C  
BRANCH   5   6
HETATM    6  C   UNL     1     -11.020   7.775  72.978  1.00  0.00    -0.442 C  
HETATM    7  C   UNL     1     -12.027   8.343  72.291  1.00  0.00    -0.455 C  
BRANCH   7   8
HETATM    8  C   UNL     1     -11.829   9.191  71.068  1.00  0.00    -0.354 C  
BRANCH   8   9
HETATM    9  C   UNL     1     -12.304  10.600  71.267  1.00  0.00    -0.488 C  
HETATM   10  C   UNL     1     -12.218  11.578  70.347  1.00  0.00    -0.442 C  
BRANCH  10  11
HETATM   11  C   UNL     1     -11.691  11.361  68.957  1.00  0.00    -0.409 C  
BRANCH  11  12
HETATM   12  C   UNL     1     -10.990  12.592  68.394  1.00  0.00    -0.284 C  
BRANCH  12  13
HETATM   13  C   UNL     1     -12.009  13.691  68.090  1.00  0.00    -0.390 C  
BRANCH  13  14
HETATM   14  C   UNL     1     -11.316  15.036  67.898  1.00  0.00    -0.344 C  
BRANCH  14  15
HETATM   15  C   UNL     1     -10.499  15.426  69.130  1.00  0.00    -0.239 C  
BRANCH  15  16
HETATM   16  C   UNL     1      -9.708  16.705  68.862  1.00  0.00    -0.255 C  
BRANCH  16  17
HETATM   17  C   UNL     1     -10.522  17.715  68.061  1.00  0.00    -0.395 C  
HETATM   18  C   UNL     1      -9.876  19.083  68.068  1.00  0.00    -0.352 C  
HETATM   19  O   UNL     1      -8.830  19.371  68.629  1.00  0.00    -0.369 OA 
HETATM   20  O   UNL     1     -10.593  19.992  67.367  1.00  0.00    -0.386 OA 
ENDBRANCH  16  17
ENDBRANCH  15  16
ENDBRANCH  14  15
ENDBRANCH  13  14
ENDBRANCH  12  13
ENDBRANCH  11  12
ENDBRANCH  10  11
ENDBRANCH   8   9
ENDBRANCH   7   8
ENDBRANCH   5   6
ENDBRANCH   4   5
ENDBRANCH   2   3
TORSDOF 12
ENDMDL
MODEL      232
REMARK 921   NORMALIZED FREE ENERGY PREDICTED BY IDOCK:   -3.67 KCAL/MOL
REMARK 922        TOTAL FREE ENERGY PREDICTED BY IDOCK:   -8.08 KCAL/MOL
REMARK 923 INTER-LIGAND FREE ENERGY PREDICTED BY IDOCK:   -7.08 KCAL/MOL
REMARK 924 INTRA-LIGAND FREE ENERGY PREDICTED BY IDOCK:   -1.00 KCAL/MOL
REMARK 927      BINDING AFFINITY PREDICTED BY RF-SCORE:    0.00 PKD
ROOT
HETATM    1  C   UNL     1      -9.575  19.897  66.517  1.00  0.00    -0.534 C  
HETATM    2  C   UNL     1     -10.247  18.560  66.244  1.00  0.00    -0.446 C  
ENDROOT
BRANCH   2   3
HETATM    3  C   UNL     1      -9.243  17.454  66.084  1.00  0.00    -0.171 C  
HETATM    4  C   UNL     1      -9.415  16.179  66.472  1.00  0.00    -0.289 C  
BRANCH   4   5
HETATM    5  C   UNL     1     -10.640  15.660  67.170  1.00  0.00    -0.308 C  
BRANCH   5   6
HETATM    6  C   UNL     1     -11.377  14.638  66.352  1.00  0.00    -0.348 C  
HETATM    7  C   UNL     1     -11.960  13.530  66.841  1.00  0.00    -0.447 C  
BRANCH   7   8
HETATM    8  C   UNL     1     -11.918  13.133  68.289  1.00  0.00    -0.328 C  
BRANCH   8   9
HETATM    9  C   UNL     1     -11.877  11.645  68.472  1.00  0.00    -0.357 C  
HETATM   10  C   UNL     1     -12.079  11.008  69.640  1.00  0.00    -0.411 C  
BRANCH  10  11
HETATM   11  C   UNL     1     -12.447  11.715  70.913  1.00  0.00    -0.440 C  
BRANCH  11  12
HETATM   12  C   UNL     1     -13.187  10.812  71.894  1.00  0.00    -0.524 C  
BRANCH  12  13
HETATM   13  C   UNL     1     -13.028   9.346  71.490  1.00  0.00    -0.449 C  
BRANCH  13  14
HETATM   14  C   UNL     1     -12.192   8.588  72.515  1.00  0.00    -0.383 C  
BRANCH  14  15
HETATM   15  C   UNL     1     -10.716   8.553  72.119  1.00  0.00    -0.426 C  
BRANCH  15  16
HETATM   16  C   UNL     1     -10.332   7.162  71.616  1.00  0.00    -0.215 C  
BRANCH  16  17
HETATM   17  C   UNL     1     -11.293   6.093  72.124  1.00  0.00    -0.347 C  
HETATM   18  C   UNL     1     -10.680   5.276  73.239  1.00  0.00    -0.277 C  
HETATM   19  O   UNL     1      -9.562   5.433  73.703  1.00  0.00    -0.136 OA 
HETATM   20  O   UNL     1     -11.520   4.317  73.694  1.00  0.00    -0.242 OA 
ENDBRANCH  16  17
ENDBRANCH  15  16
ENDBRANCH  14  15
ENDBRANCH  13  14
ENDBRANCH  12  13
ENDBRANCH  11  12
ENDBRANCH  10  11
ENDBRANCH   8   9
ENDBRANCH   7   8
ENDBRANCH   5   6
ENDBRANCH   4   5
ENDBRANCH   2   3
TORSDOF 12
ENDMDL
MODEL      233
REMARK 921   NORMALIZED FREE ENERGY PREDICTED BY IDOCK:   -3.66 KCAL/MOL
REMARK 922        TOTAL FREE ENERGY PREDICTED BY IDOCK:   -8.07 KCAL/MOL
REMARK 923 INTER-LIGAND FREE ENERGY PREDICTED BY IDOCK:   -6.63 KCAL/MOL
REMARK 924 INTRA-LIGAND FREE ENERGY PREDICTED BY IDOCK:   -1.45 KCAL/MOL
REMARK 927      BINDING AFFINITY PREDICTED BY RF-SCORE:    0.00 PKD
ROOT
HETATM    1  C   UNL     1      -7.479   7.283  71.273  1.00  0.00    -0.079 C  
HETATM    2  C   UNL     1      -8.847   6.637  71.435  1.00  0.00    -0.139 C  
ENDROOT
BRANCH   2   3
HETATM    3  C   UNL     1      -9.710   6.849  70.224  1.00  0.00    -0.176 C  
HETATM    4  C   UNL     1     -11.052   6.904  70.219  1.00  0.00    -0.342 C  
BRANCH   4   5
HETATM    5  C   UNL     1     -11.915   6.725  71.436  1.00  0.00    -0.403 C  
BRANCH   5   6
HETATM    6  C   UNL     1     -13.340   7.133  71.195  1.00  0.00    -0.238 C  
HETATM    7  C   UNL     1     -13.917   8.250  71.673  1.00  0.00    -0.461 C  
BRANCH   7   8
HETATM    8  C   UNL     1     -13.217   9.236  72.563  1.00  0.00    -0.439 C  
BRANCH   8   9
HETATM    9  C   UNL     1     -13.364  10.648  72.077  1.00  0.00    -0.409 C  
HETATM   10  C   UNL     1     -12.564  11.236  71.169  1.00  0.00    -0.501 C  
BRANCH  10  11
HETATM   11  C   UNL     1     -11.449  10.518  70.463  1.00  0.00    -0.433 C  
BRANCH  11  12
HETATM   12  C   UNL     1     -11.223  11.032  69.045  1.00  0.00    -0.320 C  
BRANCH  12  13
HETATM   13  C   UNL     1     -11.690  12.483  68.927  1.00  0.00    -0.367 C  
BRANCH  13  14
HETATM   14  C   UNL     1     -11.355  13.051  67.551  1.00  0.00    -0.346 C  
BRANCH  14  15
HETATM   15  C   UNL     1     -11.442  11.978  66.466  1.00  0.00    -0.413 C  
BRANCH  15  16
HETATM   16  C   UNL     1     -10.176  11.980  65.611  1.00  0.00    -0.284 C  
BRANCH  16  17
HETATM   17  C   UNL     1     -10.043  10.697  64.796  1.00  0.00    -0.412 C  
HETATM   18  C   UNL     1      -9.624  10.983  63.371  1.00  0.00    -0.333 C  
HETATM   19  O   UNL     1      -9.405  12.090  62.904  1.00  0.00    -0.257 OA 
HETATM   20  O   UNL     1      -9.510   9.854  62.634  1.00  0.00    -0.275 OA 
ENDBRANCH  16  17
ENDBRANCH  15  16
ENDBRANCH  14  15
ENDBRANCH  13  14
ENDBRANCH  12  13
ENDBRANCH  11  12
ENDBRANCH  10  11
ENDBRANCH   8   9
ENDBRANCH   7   8
ENDBRANCH   5   6
ENDBRANCH   4   5
ENDBRANCH   2   3
TORSDOF 12
ENDMDL
MODEL      234
REMARK 921   NORMALIZED FREE ENERGY PREDICTED BY IDOCK:   -3.66 KCAL/MOL
REMARK 922        TOTAL FREE ENERGY PREDICTED BY IDOCK:   -8.07 KCAL/MOL
REMARK 923 INTER-LIGAND FREE ENERGY PREDICTED BY IDOCK:   -5.97 KCAL/MOL
REMARK 924 INTRA-LIGAND FREE ENERGY PREDICTED BY IDOCK:   -2.10 KCAL/MOL
REMARK 927      BINDING AFFINITY PREDICTED BY RF-SCORE:    0.00 PKD
ROOT
HETATM    1  C   UNL     1     -14.237   7.333  71.416  1.00  0.00    -0.476 C  
HETATM    2  C   UNL     1     -12.778   7.624  71.733  1.00  0.00    -0.356 C  
ENDROOT
BRANCH   2   3
HETATM    3  C   UNL     1     -11.946   6.373  71.725  1.00  0.00    -0.370 C  
HETATM    4  C   UNL     1     -11.010   6.061  70.813  1.00  0.00    -0.364 C  
BRANCH   4   5
HETATM    5  C   UNL     1     -10.670   6.908  69.620  1.00  0.00    -0.276 C  
BRANCH   5   6
HETATM    6  C   UNL     1     -10.883   6.184  68.322  1.00  0.00    -0.387 C  
HETATM    7  C   UNL     1     -10.809   6.744  67.102  1.00  0.00    -0.462 C  
BRANCH   7   8
HETATM    8  C   UNL     1     -10.540   8.203  66.867  1.00  0.00    -0.311 C  
BRANCH   8   9
HETATM    9  C   UNL     1      -9.270   8.435  66.104  1.00  0.00    -0.263 C  
HETATM   10  C   UNL     1      -8.057   8.603  66.661  1.00  0.00    -0.100 C  
BRANCH  10  11
HETATM   11  C   UNL     1      -7.807   8.507  68.139  1.00  0.00    -0.103 C  
BRANCH  11  12
HETATM   12  C   UNL     1      -7.646   9.873  68.798  1.00  0.00    -0.081 C  
BRANCH  12  13
HETATM   13  C   UNL     1      -8.980  10.342  69.381  1.00  0.00    -0.190 C  
BRANCH  13  14
HETATM   14  C   UNL     1      -9.585  11.452  68.528  1.00  0.00    -0.190 C  
BRANCH  14  15
HETATM   15  C   UNL     1     -11.025  11.753  68.940  1.00  0.00    -0.288 C  
BRANCH  15  16
HETATM   16  C   UNL     1     -11.893  11.998  67.707  1.00  0.00    -0.308 C  
BRANCH  16  17
HETATM   17  C   UNL     1     -11.096  11.840  66.416  1.00  0.00    -0.360 C  
HETATM   18  C   UNL     1     -11.470  12.894  65.398  1.00  0.00    -0.324 C  
HETATM   19  O   UNL     1     -12.296  13.778  65.562  1.00  0.00    -0.415 OA 
HETATM   20  O   UNL     1     -10.777  12.760  64.243  1.00  0.00    -0.345 OA 
ENDBRANCH  16  17
ENDBRANCH  15  16
ENDBRANCH  14  15
ENDBRANCH  13  14
ENDBRANCH  12  13
ENDBRANCH  11  12
ENDBRANCH  10  11
ENDBRANCH   8   9
ENDBRANCH   7   8
ENDBRANCH   5   6
ENDBRANCH   4   5
ENDBRANCH   2   3
TORSDOF 12
ENDMDL
MODEL      235
REMARK 921   NORMALIZED FREE ENERGY PREDICTED BY IDOCK:   -3.65 KCAL/MOL
REMARK 922        TOTAL FREE ENERGY PREDICTED BY IDOCK:   -8.05 KCAL/MOL
REMARK 923 INTER-LIGAND FREE ENERGY PREDICTED BY IDOCK:   -6.92 KCAL/MOL
REMARK 924 INTRA-LIGAND FREE ENERGY PREDICTED BY IDOCK:   -1.12 KCAL/MOL
REMARK 927      BINDING AFFINITY PREDICTED BY RF-SCORE:    0.00 PKD
ROOT
HETATM    1  C   UNL     1     -10.399   5.975  69.583  1.00  0.00    -0.294 C  
HETATM    2  C   UNL     1     -10.667   7.471  69.592  1.00  0.00    -0.236 C  
ENDROOT
BRANCH   2   3
HETATM    3  C   UNL     1     -10.398   8.079  70.939  1.00  0.00    -0.221 C  
HETATM    4  C   UNL     1     -11.245   8.859  71.630  1.00  0.00    -0.415 C  
BRANCH   4   5
HETATM    5  C   UNL     1     -12.601   9.283  71.141  1.00  0.00    -0.324 C  
BRANCH   5   6
HETATM    6  C   UNL     1     -13.196  10.379  71.977  1.00  0.00    -0.497 C  
HETATM    7  C   UNL     1     -13.100  11.694  71.712  1.00  0.00    -0.487 C  
BRANCH   7   8
HETATM    8  C   UNL     1     -12.335  12.259  70.550  1.00  0.00    -0.349 C  
BRANCH   8   9
HETATM    9  C   UNL     1     -12.398  13.757  70.497  1.00  0.00    -0.429 C  
HETATM   10  C   UNL     1     -11.914  14.513  69.495  1.00  0.00    -0.363 C  
BRANCH  10  11
HETATM   11  C   UNL     1     -11.303  13.938  68.249  1.00  0.00    -0.325 C  
BRANCH  11  12
HETATM   12  C   UNL     1     -12.055  14.342  66.985  1.00  0.00    -0.424 C  
BRANCH  12  13
HETATM   13  C   UNL     1     -11.077  14.847  65.924  1.00  0.00    -0.338 C  
BRANCH  13  14
HETATM   14  C   UNL     1     -10.022  15.755  66.547  1.00  0.00    -0.283 C  
BRANCH  14  15
HETATM   15  C   UNL     1     -10.477  17.214  66.563  1.00  0.00    -0.255 C  
BRANCH  15  16
HETATM   16  C   UNL     1     -10.342  17.799  67.968  1.00  0.00    -0.395 C  
BRANCH  16  17
HETATM   17  C   UNL     1      -9.531  19.091  67.966  1.00  0.00    -0.370 C  
HETATM   18  C   UNL     1      -8.108  18.856  68.420  1.00  0.00    -0.341 C  
HETATM   19  O   UNL     1      -7.635  17.778  68.746  1.00  0.00    -0.273 OA 
HETATM   20  O   UNL     1      -7.378  19.996  68.431  1.00  0.00    -0.303 OA 
ENDBRANCH  16  17
ENDBRANCH  15  16
ENDBRANCH  14  15
ENDBRANCH  13  14
ENDBRANCH  12  13
ENDBRANCH  11  12
ENDBRANCH  10  11
ENDBRANCH   8   9
ENDBRANCH   7   8
ENDBRANCH   5   6
ENDBRANCH   4   5
ENDBRANCH   2   3
TORSDOF 12
ENDMDL
MODEL      236
REMARK 921   NORMALIZED FREE ENERGY PREDICTED BY IDOCK:   -3.64 KCAL/MOL
REMARK 922        TOTAL FREE ENERGY PREDICTED BY IDOCK:   -8.04 KCAL/MOL
REMARK 923 INTER-LIGAND FREE ENERGY PREDICTED BY IDOCK:   -6.06 KCAL/MOL
REMARK 924 INTRA-LIGAND FREE ENERGY PREDICTED BY IDOCK:   -1.98 KCAL/MOL
REMARK 927      BINDING AFFINITY PREDICTED BY RF-SCORE:    0.00 PKD
ROOT
HETATM    1  C   UNL     1     -11.409   6.191  69.564  1.00  0.00    -0.426 C  
HETATM    2  C   UNL     1      -9.922   6.101  69.257  1.00  0.00    -0.196 C  
ENDROOT
BRANCH   2   3
HETATM    3  C   UNL     1      -9.544   4.748  68.725  1.00  0.00    -0.227 C  
HETATM    4  C   UNL     1      -8.823   3.823  69.380  1.00  0.00    -0.146 C  
BRANCH   4   5
HETATM    5  C   UNL     1      -8.245   4.012  70.754  1.00  0.00    -0.076 C  
BRANCH   5   6
HETATM    6  C   UNL     1      -9.173   3.542  71.837  1.00  0.00    -0.178 C  
HETATM    7  C   UNL     1      -9.735   4.330  72.771  1.00  0.00    -0.181 C  
BRANCH   7   8
HETATM    8  C   UNL     1      -9.475   5.804  72.886  1.00  0.00    -0.160 C  
BRANCH   8   9
HETATM    9  C   UNL     1     -10.709   6.575  73.252  1.00  0.00    -0.300 C  
HETATM   10  C   UNL     1     -10.939   7.860  72.926  1.00  0.00    -0.452 C  
BRANCH  10  11
HETATM   11  C   UNL     1     -10.004   8.677  72.080  1.00  0.00    -0.399 C  
BRANCH  11  12
HETATM   12  C   UNL     1     -10.733   9.482  71.009  1.00  0.00    -0.411 C  
BRANCH  12  13
HETATM   13  C   UNL     1     -12.241   9.251  71.106  1.00  0.00    -0.373 C  
BRANCH  13  14
HETATM   14  C   UNL     1     -13.007  10.537  70.814  1.00  0.00    -0.413 C  
BRANCH  14  15
HETATM   15  C   UNL     1     -12.106  11.766  70.937  1.00  0.00    -0.271 C  
BRANCH  15  16
HETATM   16  C   UNL     1     -12.826  12.882  71.691  1.00  0.00    -0.368 C  
BRANCH  16  17
HETATM   17  C   UNL     1     -12.512  14.254  71.103  1.00  0.00    -0.433 C  
HETATM   18  C   UNL     1     -11.839  15.153  72.116  1.00  0.00    -0.415 C  
HETATM   19  O   UNL     1     -11.562  14.846  73.265  1.00  0.00    -0.193 OA 
HETATM   20  O   UNL     1     -11.562  16.378  71.610  1.00  0.00    -0.443 OA 
ENDBRANCH  16  17
ENDBRANCH  15  16
ENDBRANCH  14  15
ENDBRANCH  13  14
ENDBRANCH  12  13
ENDBRANCH  11  12
ENDBRANCH  10  11
ENDBRANCH   8   9
ENDBRANCH   7   8
ENDBRANCH   5   6
ENDBRANCH   4   5
ENDBRANCH   2   3
TORSDOF 12
ENDMDL
MODEL      237
REMARK 921   NORMALIZED FREE ENERGY PREDICTED BY IDOCK:   -3.64 KCAL/MOL
REMARK 922        TOTAL FREE ENERGY PREDICTED BY IDOCK:   -8.04 KCAL/MOL
REMARK 923 INTER-LIGAND FREE ENERGY PREDICTED BY IDOCK:   -6.62 KCAL/MOL
REMARK 924 INTRA-LIGAND FREE ENERGY PREDICTED BY IDOCK:   -1.42 KCAL/MOL
REMARK 927      BINDING AFFINITY PREDICTED BY RF-SCORE:    0.00 PKD
ROOT
HETATM    1  C   UNL     1      -9.738  11.110  63.596  1.00  0.00    -0.352 C  
HETATM    2  C   UNL     1     -11.053  11.252  64.344  1.00  0.00    -0.273 C  
ENDROOT
BRANCH   2   3
HETATM    3  C   UNL     1     -11.266  12.656  64.836  1.00  0.00    -0.332 C  
HETATM    4  C   UNL     1     -11.024  13.094  66.083  1.00  0.00    -0.299 C  
BRANCH   4   5
HETATM    5  C   UNL     1     -10.530  12.229  67.207  1.00  0.00    -0.236 C  
BRANCH   5   6
HETATM    6  C   UNL     1     -11.652  11.635  68.010  1.00  0.00    -0.383 C  
HETATM    7  C   UNL     1     -12.070  12.085  69.207  1.00  0.00    -0.249 C  
BRANCH   7   8
HETATM    8  C   UNL     1     -11.435  13.234  69.935  1.00  0.00    -0.170 C  
BRANCH   8   9
HETATM    9  C   UNL     1     -12.444  14.238  70.409  1.00  0.00    -0.426 C  
HETATM   10  C   UNL     1     -12.295  15.573  70.331  1.00  0.00    -0.451 C  
BRANCH  10  11
HETATM   11  C   UNL     1     -11.112  16.237  69.687  1.00  0.00    -0.333 C  
BRANCH  11  12
HETATM   12  C   UNL     1     -11.277  16.398  68.179  1.00  0.00    -0.273 C  
BRANCH  12  13
HETATM   13  C   UNL     1     -10.231  17.370  67.632  1.00  0.00    -0.342 C  
BRANCH  13  14
HETATM   14  C   UNL     1     -10.267  18.691  68.393  1.00  0.00    -0.415 C  
BRANCH  14  15
HETATM   15  C   UNL     1      -9.566  19.805  67.616  1.00  0.00    -0.470 C  
BRANCH  15  16
HETATM   16  C   UNL     1      -8.050  19.639  67.697  1.00  0.00    -0.325 C  
BRANCH  16  17
HETATM   17  C   UNL     1      -7.376  19.934  66.361  1.00  0.00    -0.291 C  
HETATM   18  C   UNL     1      -6.953  18.664  65.658  1.00  0.00    -0.220 C  
HETATM   19  O   UNL     1      -7.121  17.530  66.078  1.00  0.00    -0.295 OA 
HETATM   20  O   UNL     1      -6.346  18.911  64.474  1.00  0.00    -0.486 OA 
ENDBRANCH  16  17
ENDBRANCH  15  16
ENDBRANCH  14  15
ENDBRANCH  13  14
ENDBRANCH  12  13
ENDBRANCH  11  12
ENDBRANCH  10  11
ENDBRANCH   8   9
ENDBRANCH   7   8
ENDBRANCH   5   6
ENDBRANCH   4   5
ENDBRANCH   2   3
TORSDOF 12
ENDMDL
MODEL      238
REMARK 921   NORMALIZED FREE ENERGY PREDICTED BY IDOCK:   -3.64 KCAL/MOL
REMARK 922        TOTAL FREE ENERGY PREDICTED BY IDOCK:   -8.04 KCAL/MOL
REMARK 923 INTER-LIGAND FREE ENERGY PREDICTED BY IDOCK:   -6.65 KCAL/MOL
REMARK 924 INTRA-LIGAND FREE ENERGY PREDICTED BY IDOCK:   -1.38 KCAL/MOL
REMARK 927      BINDING AFFINITY PREDICTED BY RF-SCORE:    0.00 PKD
ROOT
HETATM    1  C   UNL     1      -8.936   8.930  69.918  1.00  0.00    -0.160 C  
HETATM    2  C   UNL     1      -8.986   8.574  68.441  1.00  0.00    -0.139 C  
ENDROOT
BRANCH   2   3
HETATM    3  C   UNL     1     -10.375   8.703  67.883  1.00  0.00    -0.286 C  
HETATM    4  C   UNL     1     -10.754   9.553  66.915  1.00  0.00    -0.184 C  
BRANCH   4   5
HETATM    5  C   UNL     1      -9.844  10.548  66.253  1.00  0.00    -0.269 C  
BRANCH   5   6
HETATM    6  C   UNL     1      -9.954  10.520  64.755  1.00  0.00    -0.412 C  
HETATM    7  C   UNL     1     -10.796  11.275  64.027  1.00  0.00    -0.414 C  
BRANCH   7   8
HETATM    8  C   UNL     1     -11.786  12.234  64.623  1.00  0.00    -0.435 C  
BRANCH   8   9
HETATM    9  C   UNL     1     -11.560  13.645  64.168  1.00  0.00    -0.386 C  
HETATM   10  C   UNL     1     -10.848  14.566  64.842  1.00  0.00    -0.436 C  
BRANCH  10  11
HETATM   11  C   UNL     1     -10.119  14.271  66.123  1.00  0.00    -0.325 C  
BRANCH  11  12
HETATM   12  C   UNL     1     -10.079  15.468  67.066  1.00  0.00    -0.254 C  
BRANCH  12  13
HETATM   13  C   UNL     1     -11.313  15.472  67.970  1.00  0.00    -0.332 C  
BRANCH  13  14
HETATM   14  C   UNL     1     -11.784  14.049  68.251  1.00  0.00    -0.392 C  
BRANCH  14  15
HETATM   15  C   UNL     1     -12.209  13.877  69.709  1.00  0.00    -0.388 C  
BRANCH  15  16
HETATM   16  C   UNL     1     -12.965  15.113  70.193  1.00  0.00    -0.126 C  
BRANCH  16  17
HETATM   17  C   UNL     1     -13.575  14.897  71.575  1.00  0.00    -0.511 C  
HETATM   18  C   UNL     1     -12.554  15.100  72.672  1.00  0.00    -0.375 C  
HETATM   19  O   UNL     1     -11.384  15.406  72.506  1.00  0.00    -0.431 OA 
HETATM   20  O   UNL     1     -13.080  14.903  73.904  1.00  0.00    -0.396 OA 
ENDBRANCH  16  17
ENDBRANCH  15  16
ENDBRANCH  14  15
ENDBRANCH  13  14
ENDBRANCH  12  13
ENDBRANCH  11  12
ENDBRANCH  10  11
ENDBRANCH   8   9
ENDBRANCH   7   8
ENDBRANCH   5   6
ENDBRANCH   4   5
ENDBRANCH   2   3
TORSDOF 12
ENDMDL
MODEL      239
REMARK 921   NORMALIZED FREE ENERGY PREDICTED BY IDOCK:   -3.63 KCAL/MOL
REMARK 922        TOTAL FREE ENERGY PREDICTED BY IDOCK:   -8.02 KCAL/MOL
REMARK 923 INTER-LIGAND FREE ENERGY PREDICTED BY IDOCK:   -6.40 KCAL/MOL
REMARK 924 INTRA-LIGAND FREE ENERGY PREDICTED BY IDOCK:   -1.62 KCAL/MOL
REMARK 927      BINDING AFFINITY PREDICTED BY RF-SCORE:    0.00 PKD
ROOT
HETATM    1  C   UNL     1      -9.782   4.210  65.976  1.00  0.00    -0.212 C  
HETATM    2  C   UNL     1      -9.588   5.656  66.403  1.00  0.00    -0.175 C  
ENDROOT
BRANCH   2   3
HETATM    3  C   UNL     1     -10.847   6.243  66.973  1.00  0.00    -0.458 C  
HETATM    4  C   UNL     1     -11.038   6.592  68.256  1.00  0.00    -0.332 C  
BRANCH   4   5
HETATM    5  C   UNL     1     -10.018   6.413  69.346  1.00  0.00    -0.184 C  
BRANCH   5   6
HETATM    6  C   UNL     1     -10.564   5.658  70.524  1.00  0.00    -0.354 C  
HETATM    7  C   UNL     1     -11.532   6.099  71.346  1.00  0.00    -0.317 C  
BRANCH   7   8
HETATM    8  C   UNL     1     -12.182   7.447  71.222  1.00  0.00    -0.374 C  
BRANCH   8   9
HETATM    9  C   UNL     1     -11.356   8.539  71.836  1.00  0.00    -0.399 C  
HETATM   10  C   UNL     1     -10.862   9.597  71.169  1.00  0.00    -0.404 C  
BRANCH  10  11
HETATM   11  C   UNL     1     -11.140   9.861  69.717  1.00  0.00    -0.294 C  
BRANCH  11  12
HETATM   12  C   UNL     1     -12.160  10.975  69.506  1.00  0.00    -0.400 C  
BRANCH  12  13
HETATM   13  C   UNL     1     -11.457  12.331  69.431  1.00  0.00    -0.341 C  
BRANCH  13  14
HETATM   14  C   UNL     1     -10.764  12.509  68.084  1.00  0.00    -0.246 C  
BRANCH  14  15
HETATM   15  C   UNL     1     -11.776  12.704  66.955  1.00  0.00    -0.438 C  
BRANCH  15  16
HETATM   16  C   UNL     1     -11.388  11.864  65.740  1.00  0.00    -0.354 C  
BRANCH  16  17
HETATM   17  C   UNL     1     -10.413  10.751  66.111  1.00  0.00    -0.278 C  
HETATM   18  C   UNL     1      -9.748  10.162  64.887  1.00  0.00    -0.324 C  
HETATM   19  O   UNL     1      -9.940  10.517  63.734  1.00  0.00    -0.323 OA 
HETATM   20  O   UNL     1      -8.886   9.167  65.200  1.00  0.00    -0.188 OA 
ENDBRANCH  16  17
ENDBRANCH  15  16
ENDBRANCH  14  15
ENDBRANCH  13  14
ENDBRANCH  12  13
ENDBRANCH  11  12
ENDBRANCH  10  11
ENDBRANCH   8   9
ENDBRANCH   7   8
ENDBRANCH   5   6
ENDBRANCH   4   5
ENDBRANCH   2   3
TORSDOF 12
ENDMDL
MODEL      240
REMARK 921   NORMALIZED FREE ENERGY PREDICTED BY IDOCK:   -3.62 KCAL/MOL
REMARK 922        TOTAL FREE ENERGY PREDICTED BY IDOCK:   -8.00 KCAL/MOL
REMARK 923 INTER-LIGAND FREE ENERGY PREDICTED BY IDOCK:   -7.20 KCAL/MOL
REMARK 924 INTRA-LIGAND FREE ENERGY PREDICTED BY IDOCK:   -0.81 KCAL/MOL
REMARK 927      BINDING AFFINITY PREDICTED BY RF-SCORE:    0.00 PKD
ROOT
HETATM    1  C   UNL     1      -8.415   4.826  67.309  1.00  0.00    -0.105 C  
HETATM    2  C   UNL     1      -9.252   6.045  67.665  1.00  0.00    -0.107 C  
ENDROOT
BRANCH   2   3
HETATM    3  C   UNL     1      -8.766   6.708  68.923  1.00  0.00    -0.128 C  
HETATM    4  C   UNL     1      -9.525   7.024  69.985  1.00  0.00    -0.161 C  
BRANCH   4   5
HETATM    5  C   UNL     1     -11.008   6.795  70.068  1.00  0.00    -0.344 C  
BRANCH   5   6
HETATM    6  C   UNL     1     -11.528   6.906  71.473  1.00  0.00    -0.315 C  
HETATM    7  C   UNL     1     -12.015   8.028  72.031  1.00  0.00    -0.375 C  
BRANCH   7   8
HETATM    8  C   UNL     1     -12.068   9.355  71.330  1.00  0.00    -0.442 C  
BRANCH   8   9
HETATM    9  C   UNL     1     -13.099  10.272  71.919  1.00  0.00    -0.568 C  
HETATM   10  C   UNL     1     -13.155  11.600  71.713  1.00  0.00    -0.487 C  
BRANCH  10  11
HETATM   11  C   UNL     1     -12.219  12.334  70.797  1.00  0.00    -0.354 C  
BRANCH  11  12
HETATM   12  C   UNL     1     -12.555  13.817  70.677  1.00  0.00    -0.386 C  
BRANCH  12  13
HETATM   13  C   UNL     1     -11.627  14.491  69.665  1.00  0.00    -0.346 C  
BRANCH  13  14
HETATM   14  C   UNL     1     -11.885  13.962  68.257  1.00  0.00    -0.412 C  
BRANCH  14  15
HETATM   15  C   UNL     1     -10.864  14.507  67.259  1.00  0.00    -0.297 C  
BRANCH  15  16
HETATM   16  C   UNL     1     -11.476  14.590  65.862  1.00  0.00    -0.345 C  
BRANCH  16  17
HETATM   17  C   UNL     1     -10.952  13.485  64.949  1.00  0.00    -0.359 C  
HETATM   18  C   UNL     1     -12.061  12.560  64.501  1.00  0.00    -0.425 C  
HETATM   19  O   UNL     1     -13.238  12.662  64.807  1.00  0.00    -0.846 OA 
HETATM   20  O   UNL     1     -11.609  11.570  63.697  1.00  0.00    -0.394 OA 
ENDBRANCH  16  17
ENDBRANCH  15  16
ENDBRANCH  14  15
ENDBRANCH  13  14
ENDBRANCH  12  13
ENDBRANCH  11  12
ENDBRANCH  10  11
ENDBRANCH   8   9
ENDBRANCH   7   8
ENDBRANCH   5   6
ENDBRANCH   4   5
ENDBRANCH   2   3
TORSDOF 12
ENDMDL
MODEL      241
REMARK 921   NORMALIZED FREE ENERGY PREDICTED BY IDOCK:   -3.62 KCAL/MOL
REMARK 922        TOTAL FREE ENERGY PREDICTED BY IDOCK:   -8.00 KCAL/MOL
REMARK 923 INTER-LIGAND FREE ENERGY PREDICTED BY IDOCK:   -6.21 KCAL/MOL
REMARK 924 INTRA-LIGAND FREE ENERGY PREDICTED BY IDOCK:   -1.79 KCAL/MOL
REMARK 927      BINDING AFFINITY PREDICTED BY RF-SCORE:    0.00 PKD
ROOT
HETATM    1  C   UNL     1      -9.647   9.918  64.604  1.00  0.00    -0.320 C  
HETATM    2  C   UNL     1      -8.938   9.420  65.853  1.00  0.00    -0.217 C  
ENDROOT
BRANCH   2   3
HETATM    3  C   UNL     1      -8.764   7.928  65.838  1.00  0.00    -0.180 C  
HETATM    4  C   UNL     1      -9.297   7.069  66.723  1.00  0.00    -0.191 C  
BRANCH   4   5
HETATM    5  C   UNL     1     -10.131   7.474  67.905  1.00  0.00    -0.226 C  
BRANCH   5   6
HETATM    6  C   UNL     1     -10.951   6.338  68.446  1.00  0.00    -0.409 C  
HETATM    7  C   UNL     1     -11.451   6.269  69.692  1.00  0.00    -0.425 C  
BRANCH   7   8
HETATM    8  C   UNL     1     -11.218   7.315  70.745  1.00  0.00    -0.300 C  
BRANCH   8   9
HETATM    9  C   UNL     1     -12.499   7.904  71.258  1.00  0.00    -0.283 C  
HETATM   10  C   UNL     1     -12.751   9.220  71.367  1.00  0.00    -0.402 C  
BRANCH  10  11
HETATM   11  C   UNL     1     -11.792  10.285  70.916  1.00  0.00    -0.473 C  
BRANCH  11  12
HETATM   12  C   UNL     1     -12.305  11.067  69.712  1.00  0.00    -0.331 C  
BRANCH  12  13
HETATM   13  C   UNL     1     -11.514  10.691  68.459  1.00  0.00    -0.333 C  
BRANCH  13  14
HETATM   14  C   UNL     1     -10.438  11.731  68.163  1.00  0.00    -0.221 C  
BRANCH  14  15
HETATM   15  C   UNL     1     -10.943  12.800  67.195  1.00  0.00    -0.295 C  
BRANCH  15  16
HETATM   16  C   UNL     1     -10.747  14.193  67.790  1.00  0.00    -0.251 C  
BRANCH  16  17
HETATM   17  C   UNL     1     -11.981  14.660  68.556  1.00  0.00    -0.298 C  
HETATM   18  C   UNL     1     -11.606  15.380  69.831  1.00  0.00    -0.323 C  
HETATM   19  O   UNL     1     -10.468  15.585  70.223  1.00  0.00    -0.310 OA 
HETATM   20  O   UNL     1     -12.692  15.792  70.526  1.00  0.00    -0.424 OA 
ENDBRANCH  16  17
ENDBRANCH  15  16
ENDBRANCH  14  15
ENDBRANCH  13  14
ENDBRANCH  12  13
ENDBRANCH  11  12
ENDBRANCH  10  11
ENDBRANCH   8   9
ENDBRANCH   7   8
ENDBRANCH   5   6
ENDBRANCH   4   5
ENDBRANCH   2   3
TORSDOF 12
ENDMDL
MODEL      242
REMARK 921   NORMALIZED FREE ENERGY PREDICTED BY IDOCK:   -3.62 KCAL/MOL
REMARK 922        TOTAL FREE ENERGY PREDICTED BY IDOCK:   -7.99 KCAL/MOL
REMARK 923 INTER-LIGAND FREE ENERGY PREDICTED BY IDOCK:   -5.75 KCAL/MOL
REMARK 924 INTRA-LIGAND FREE ENERGY PREDICTED BY IDOCK:   -2.24 KCAL/MOL
REMARK 927      BINDING AFFINITY PREDICTED BY RF-SCORE:    0.00 PKD
ROOT
HETATM    1  C   UNL     1      -5.817  11.339  70.152  1.00  0.00    -0.133 C  
HETATM    2  C   UNL     1      -6.059  11.823  68.731  1.00  0.00    -0.050 C  
ENDROOT
BRANCH   2   3
HETATM    3  C   UNL     1      -7.489  11.634  68.314  1.00  0.00    -0.097 C  
HETATM    4  C   UNL     1      -8.303  12.597  67.849  1.00  0.00    -0.172 C  
BRANCH   4   5
HETATM    5  C   UNL     1      -7.915  14.041  67.705  1.00  0.00    -0.186 C  
BRANCH   5   6
HETATM    6  C   UNL     1      -8.227  14.845  68.935  1.00  0.00    -0.171 C  
HETATM    7  C   UNL     1      -9.385  15.485  69.168  1.00  0.00    -0.250 C  
BRANCH   7   8
HETATM    8  C   UNL     1     -10.530  15.521  68.197  1.00  0.00    -0.259 C  
BRANCH   8   9
HETATM    9  C   UNL     1     -10.345  16.564  67.134  1.00  0.00    -0.298 C  
HETATM   10  C   UNL     1     -10.301  16.316  65.813  1.00  0.00    -0.393 C  
BRANCH  10  11
HETATM   11  C   UNL     1     -10.505  14.950  65.221  1.00  0.00    -0.427 C  
BRANCH  11  12
HETATM   12  C   UNL     1     -11.883  14.784  64.589  1.00  0.00    -0.442 C  
BRANCH  12  13
HETATM   13  C   UNL     1     -12.691  13.731  65.348  1.00  0.00    -0.513 C  
BRANCH  13  14
HETATM   14  C   UNL     1     -11.771  12.686  65.971  1.00  0.00    -0.470 C  
BRANCH  14  15
HETATM   15  C   UNL     1     -12.024  12.540  67.472  1.00  0.00    -0.287 C  
BRANCH  15  16
HETATM   16  C   UNL     1     -11.505  11.194  67.972  1.00  0.00    -0.366 C  
BRANCH  16  17
HETATM   17  C   UNL     1     -11.494  11.123  69.496  1.00  0.00    -0.374 C  
HETATM   18  C   UNL     1     -11.003   9.780  69.988  1.00  0.00    -0.277 C  
HETATM   19  O   UNL     1     -10.646   8.851  69.280  1.00  0.00    -0.227 OA 
HETATM   20  O   UNL     1     -10.996   9.701  71.339  1.00  0.00    -0.360 OA 
ENDBRANCH  16  17
ENDBRANCH  15  16
ENDBRANCH  14  15
ENDBRANCH  13  14
ENDBRANCH  12  13
ENDBRANCH  11  12
ENDBRANCH  10  11
ENDBRANCH   8   9
ENDBRANCH   7   8
ENDBRANCH   5   6
ENDBRANCH   4   5
ENDBRANCH   2   3
TORSDOF 12
ENDMDL
MODEL      243
REMARK 921   NORMALIZED FREE ENERGY PREDICTED BY IDOCK:   -3.61 KCAL/MOL
REMARK 922        TOTAL FREE ENERGY PREDICTED BY IDOCK:   -7.99 KCAL/MOL
REMARK 923 INTER-LIGAND FREE ENERGY PREDICTED BY IDOCK:   -6.53 KCAL/MOL
REMARK 924 INTRA-LIGAND FREE ENERGY PREDICTED BY IDOCK:   -1.46 KCAL/MOL
REMARK 927      BINDING AFFINITY PREDICTED BY RF-SCORE:    0.00 PKD
ROOT
HETATM    1  C   UNL     1     -11.922   8.430  72.294  1.00  0.00    -0.455 C  
HETATM    2  C   UNL     1     -11.785   9.099  70.935  1.00  0.00    -0.341 C  
ENDROOT
BRANCH   2   3
HETATM    3  C   UNL     1     -10.841   8.350  70.038  1.00  0.00    -0.225 C  
HETATM    4  C   UNL     1      -9.803   8.884  69.373  1.00  0.00    -0.183 C  
BRANCH   4   5
HETATM    5  C   UNL     1      -9.439  10.342  69.394  1.00  0.00    -0.225 C  
BRANCH   5   6
HETATM    6  C   UNL     1      -9.121  10.874  68.026  1.00  0.00    -0.152 C  
HETATM    7  C   UNL     1     -10.007  11.451  67.195  1.00  0.00    -0.217 C  
BRANCH   7   8
HETATM    8  C   UNL     1     -11.467  11.606  67.507  1.00  0.00    -0.360 C  
BRANCH   8   9
HETATM    9  C   UNL     1     -11.809  12.991  67.971  1.00  0.00    -0.391 C  
HETATM   10  C   UNL     1     -12.151  14.011  67.163  1.00  0.00    -0.436 C  
BRANCH  10  11
HETATM   11  C   UNL     1     -12.305  13.869  65.675  1.00  0.00    -0.511 C  
BRANCH  11  12
HETATM   12  C   UNL     1     -11.500  14.905  64.899  1.00  0.00    -0.407 C  
BRANCH  12  13
HETATM   13  C   UNL     1     -10.029  14.851  65.311  1.00  0.00    -0.328 C  
BRANCH  13  14
HETATM   14  C   UNL     1      -9.648  16.082  66.127  1.00  0.00    -0.366 C  
BRANCH  14  15
HETATM   15  C   UNL     1     -10.600  17.248  65.860  1.00  0.00    -0.206 C  
BRANCH  15  16
HETATM   16  C   UNL     1     -10.434  18.327  66.928  1.00  0.00    -0.396 C  
BRANCH  16  17
HETATM   17  C   UNL     1      -9.477  19.426  66.476  1.00  0.00    -0.427 C  
HETATM   18  C   UNL     1      -8.289  19.546  67.405  1.00  0.00    -0.294 C  
HETATM   19  O   UNL     1      -8.089  18.860  68.395  1.00  0.00    -0.315 OA 
HETATM   20  O   UNL     1      -7.435  20.524  67.021  1.00  0.00    -0.298 OA 
ENDBRANCH  16  17
ENDBRANCH  15  16
ENDBRANCH  14  15
ENDBRANCH  13  14
ENDBRANCH  12  13
ENDBRANCH  11  12
ENDBRANCH  10  11
ENDBRANCH   8   9
ENDBRANCH   7   8
ENDBRANCH   5   6
ENDBRANCH   4   5
ENDBRANCH   2   3
TORSDOF 12
ENDMDL
MODEL      244
REMARK 921   NORMALIZED FREE ENERGY PREDICTED BY IDOCK:   -3.61 KCAL/MOL
REMARK 922        TOTAL FREE ENERGY PREDICTED BY IDOCK:   -7.98 KCAL/MOL
REMARK 923 INTER-LIGAND FREE ENERGY PREDICTED BY IDOCK:   -5.89 KCAL/MOL
REMARK 924 INTRA-LIGAND FREE ENERGY PREDICTED BY IDOCK:   -2.09 KCAL/MOL
REMARK 927      BINDING AFFINITY PREDICTED BY RF-SCORE:    0.00 PKD
ROOT
HETATM    1  C   UNL     1     -11.773  14.592  64.748  1.00  0.00    -0.429 C  
HETATM    2  C   UNL     1     -12.611  13.386  65.142  1.00  0.00    -0.495 C  
ENDROOT
BRANCH   2   3
HETATM    3  C   UNL     1     -11.756  12.239  65.600  1.00  0.00    -0.440 C  
HETATM    4  C   UNL     1     -11.411  11.978  66.872  1.00  0.00    -0.402 C  
BRANCH   4   5
HETATM    5  C   UNL     1     -11.802  12.825  68.050  1.00  0.00    -0.386 C  
BRANCH   5   6
HETATM    6  C   UNL     1     -11.673  12.091  69.354  1.00  0.00    -0.402 C  
HETATM    7  C   UNL     1     -12.110  12.543  70.543  1.00  0.00    -0.361 C  
BRANCH   7   8
HETATM    8  C   UNL     1     -12.758  13.883  70.741  1.00  0.00    -0.383 C  
BRANCH   8   9
HETATM    9  C   UNL     1     -11.775  14.937  71.159  1.00  0.00    -0.377 C  
HETATM   10  C   UNL     1     -11.324  15.926  70.367  1.00  0.00    -0.399 C  
BRANCH  10  11
HETATM   11  C   UNL     1     -11.809  16.145  68.962  1.00  0.00    -0.181 C  
BRANCH  11  12
HETATM   12  C   UNL     1     -10.669  16.360  67.973  1.00  0.00    -0.334 C  
BRANCH  12  13
HETATM   13  C   UNL     1      -9.383  16.722  68.717  1.00  0.00    -0.254 C  
BRANCH  13  14
HETATM   14  C   UNL     1      -8.155  16.350  67.891  1.00  0.00    -0.164 C  
BRANCH  14  15
HETATM   15  C   UNL     1      -7.091  15.664  68.747  1.00  0.00    -0.127 C  
BRANCH  15  16
HETATM   16  C   UNL     1      -7.408  14.178  68.903  1.00  0.00    -0.122 C  
BRANCH  16  17
HETATM   17  C   UNL     1      -7.472  13.470  67.554  1.00  0.00    -0.177 C  
HETATM   18  C   UNL     1      -7.930  12.035  67.699  1.00  0.00    -0.150 C  
HETATM   19  O   UNL     1      -8.226  11.487  68.749  1.00  0.00    -0.145 OA 
HETATM   20  O   UNL     1      -7.983  11.392  66.510  1.00  0.00    -0.164 OA 
ENDBRANCH  16  17
ENDBRANCH  15  16
ENDBRANCH  14  15
ENDBRANCH  13  14
ENDBRANCH  12  13
ENDBRANCH  11  12
ENDBRANCH  10  11
ENDBRANCH   8   9
ENDBRANCH   7   8
ENDBRANCH   5   6
ENDBRANCH   4   5
ENDBRANCH   2   3
TORSDOF 12
ENDMDL
MODEL      245
REMARK 921   NORMALIZED FREE ENERGY PREDICTED BY IDOCK:   -3.60 KCAL/MOL
REMARK 922        TOTAL FREE ENERGY PREDICTED BY IDOCK:   -7.97 KCAL/MOL
REMARK 923 INTER-LIGAND FREE ENERGY PREDICTED BY IDOCK:   -5.88 KCAL/MOL
REMARK 924 INTRA-LIGAND FREE ENERGY PREDICTED BY IDOCK:   -2.09 KCAL/MOL
REMARK 927      BINDING AFFINITY PREDICTED BY RF-SCORE:    0.00 PKD
ROOT
HETATM    1  C   UNL     1     -10.640  19.404  67.971  1.00  0.00    -0.453 C  
HETATM    2  C   UNL     1     -10.485  18.815  66.578  1.00  0.00    -0.484 C  
ENDROOT
BRANCH   2   3
HETATM    3  C   UNL     1      -9.194  18.061  66.432  1.00  0.00    -0.256 C  
HETATM    4  C   UNL     1      -9.068  16.724  66.401  1.00  0.00    -0.321 C  
BRANCH   4   5
HETATM    5  C   UNL     1     -10.210  15.759  66.546  1.00  0.00    -0.294 C  
BRANCH   5   6
HETATM    6  C   UNL     1     -10.947  15.543  65.255  1.00  0.00    -0.391 C  
HETATM    7  C   UNL     1     -11.152  14.350  64.670  1.00  0.00    -0.363 C  
BRANCH   7   8
HETATM    8  C   UNL     1     -10.625  13.052  65.213  1.00  0.00    -0.320 C  
BRANCH   8   9
HETATM    9  C   UNL     1     -11.657  12.303  66.002  1.00  0.00    -0.451 C  
HETATM   10  C   UNL     1     -11.634  12.137  67.337  1.00  0.00    -0.410 C  
BRANCH  10  11
HETATM   11  C   UNL     1     -10.592  12.752  68.228  1.00  0.00    -0.251 C  
BRANCH  11  12
HETATM   12  C   UNL     1      -9.457  11.789  68.558  1.00  0.00    -0.165 C  
BRANCH  12  13
HETATM   13  C   UNL     1      -8.214  12.132  67.736  1.00  0.00    -0.154 C  
BRANCH  13  14
HETATM   14  C   UNL     1      -7.908  11.027  66.730  1.00  0.00    -0.149 C  
BRANCH  14  15
HETATM   15  C   UNL     1      -8.469   9.681  67.187  1.00  0.00    -0.131 C  
BRANCH  15  16
HETATM   16  C   UNL     1      -9.475   9.149  66.169  1.00  0.00    -0.309 C  
BRANCH  16  17
HETATM   17  C   UNL     1     -10.583   8.342  66.839  1.00  0.00    -0.302 C  
HETATM   18  C   UNL     1     -10.202   6.885  66.983  1.00  0.00    -0.248 C  
HETATM   19  O   UNL     1      -9.145   6.389  66.625  1.00  0.00    -0.136 OA 
HETATM   20  O   UNL     1     -11.180   6.155  67.569  1.00  0.00    -0.292 OA 
ENDBRANCH  16  17
ENDBRANCH  15  16
ENDBRANCH  14  15
ENDBRANCH  13  14
ENDBRANCH  12  13
ENDBRANCH  11  12
ENDBRANCH  10  11
ENDBRANCH   8   9
ENDBRANCH   7   8
ENDBRANCH   5   6
ENDBRANCH   4   5
ENDBRANCH   2   3
TORSDOF 12
ENDMDL
MODEL      246
REMARK 921   NORMALIZED FREE ENERGY PREDICTED BY IDOCK:   -3.60 KCAL/MOL
REMARK 922        TOTAL FREE ENERGY PREDICTED BY IDOCK:   -7.96 KCAL/MOL
REMARK 923 INTER-LIGAND FREE ENERGY PREDICTED BY IDOCK:   -6.48 KCAL/MOL
REMARK 924 INTRA-LIGAND FREE ENERGY PREDICTED BY IDOCK:   -1.49 KCAL/MOL
REMARK 927      BINDING AFFINITY PREDICTED BY RF-SCORE:    0.00 PKD
ROOT
HETATM    1  C   UNL     1      -9.361  11.185  62.922  1.00  0.00    -0.385 C  
HETATM    2  C   UNL     1     -10.737  11.288  63.561  1.00  0.00    -0.408 C  
ENDROOT
BRANCH   2   3
HETATM    3  C   UNL     1     -11.022  12.680  64.050  1.00  0.00    -0.448 C  
HETATM    4  C   UNL     1     -10.800  13.134  65.295  1.00  0.00    -0.314 C  
BRANCH   4   5
HETATM    5  C   UNL     1     -10.258  12.298  66.420  1.00  0.00    -0.247 C  
BRANCH   5   6
HETATM    6  C   UNL     1     -11.345  11.727  67.285  1.00  0.00    -0.379 C  
HETATM    7  C   UNL     1     -11.708  12.205  68.488  1.00  0.00    -0.382 C  
BRANCH   7   8
HETATM    8  C   UNL     1     -11.039  13.368  69.162  1.00  0.00    -0.261 C  
BRANCH   8   9
HETATM    9  C   UNL     1     -12.022  14.399  69.633  1.00  0.00    -0.385 C  
HETATM   10  C   UNL     1     -11.886  15.726  69.462  1.00  0.00    -0.359 C  
BRANCH  10  11
HETATM   11  C   UNL     1     -10.749  16.349  68.703  1.00  0.00    -0.317 C  
BRANCH  11  12
HETATM   12  C   UNL     1     -11.008  16.412  67.202  1.00  0.00    -0.082 C  
BRANCH  12  13
HETATM   13  C   UNL     1      -9.889  17.184  66.502  1.00  0.00    -0.305 C  
BRANCH  13  14
HETATM   14  C   UNL     1      -9.707  18.563  67.129  1.00  0.00    -0.315 C  
BRANCH  14  15
HETATM   15  C   UNL     1      -8.677  19.394  66.364  1.00  0.00    -0.376 C  
BRANCH  15  16
HETATM   16  C   UNL     1      -7.262  19.037  66.816  1.00  0.00    -0.220 C  
BRANCH  16  17
HETATM   17  C   UNL     1      -7.176  18.879  68.331  1.00  0.00    -0.309 C  
HETATM   18  C   UNL     1      -6.539  20.086  68.982  1.00  0.00    -0.311 C  
HETATM   19  O   UNL     1      -6.141  21.081  68.397  1.00  0.00    -0.339 OA 
HETATM   20  O   UNL     1      -6.448  19.955  70.326  1.00  0.00    -0.335 OA 
ENDBRANCH  16  17
ENDBRANCH  15  16
ENDBRANCH  14  15
ENDBRANCH  13  14
ENDBRANCH  12  13
ENDBRANCH  11  12
ENDBRANCH  10  11
ENDBRANCH   8   9
ENDBRANCH   7   8
ENDBRANCH   5   6
ENDBRANCH   4   5
ENDBRANCH   2   3
TORSDOF 12
ENDMDL
MODEL      247
REMARK 921   NORMALIZED FREE ENERGY PREDICTED BY IDOCK:   -3.60 KCAL/MOL
REMARK 922        TOTAL FREE ENERGY PREDICTED BY IDOCK:   -7.96 KCAL/MOL
REMARK 923 INTER-LIGAND FREE ENERGY PREDICTED BY IDOCK:   -6.72 KCAL/MOL
REMARK 924 INTRA-LIGAND FREE ENERGY PREDICTED BY IDOCK:   -1.25 KCAL/MOL
REMARK 927      BINDING AFFINITY PREDICTED BY RF-SCORE:    0.00 PKD
ROOT
HETATM    1  C   UNL     1      -9.965  18.246  68.616  1.00  0.00    -0.410 C  
HETATM    2  C   UNL     1     -10.766  17.075  68.070  1.00  0.00    -0.365 C  
ENDROOT
BRANCH   2   3
HETATM    3  C   UNL     1     -10.247  15.759  68.576  1.00  0.00    -0.216 C  
HETATM    4  C   UNL     1     -10.545  15.204  69.763  1.00  0.00    -0.267 C  
BRANCH   4   5
HETATM    5  C   UNL     1     -11.429  15.838  70.800  1.00  0.00    -0.423 C  
BRANCH   5   6
HETATM    6  C   UNL     1     -12.880  15.509  70.596  1.00  0.00    -0.466 C  
HETATM    7  C   UNL     1     -13.555  14.547  71.249  1.00  0.00    -0.423 C  
BRANCH   7   8
HETATM    8  C   UNL     1     -12.930  13.625  72.256  1.00  0.00    -0.419 C  
BRANCH   8   9
HETATM    9  C   UNL     1     -13.567  12.267  72.261  1.00  0.00    -0.299 C  
HETATM   10  C   UNL     1     -13.150  11.219  71.528  1.00  0.00    -0.459 C  
BRANCH  10  11
HETATM   11  C   UNL     1     -11.930  11.257  70.651  1.00  0.00    -0.435 C  
BRANCH  11  12
HETATM   12  C   UNL     1     -11.192   9.924  70.612  1.00  0.00    -0.416 C  
BRANCH  12  13
HETATM   13  C   UNL     1     -11.450   9.137  71.898  1.00  0.00    -0.423 C  
BRANCH  13  14
HETATM   14  C   UNL     1     -10.408   8.038  72.080  1.00  0.00    -0.298 C  
BRANCH  14  15
HETATM   15  C   UNL     1     -11.062   6.691  72.388  1.00  0.00    -0.294 C  
BRANCH  15  16
HETATM   16  C   UNL     1     -10.931   5.749  71.193  1.00  0.00    -0.295 C  
BRANCH  16  17
HETATM   17  C   UNL     1      -9.738   6.111  70.316  1.00  0.00    -0.195 C  
HETATM   18  C   UNL     1     -10.164   6.435  68.901  1.00  0.00    -0.184 C  
HETATM   19  O   UNL     1     -11.312   6.423  68.485  1.00  0.00    -0.303 OA 
HETATM   20  O   UNL     1      -9.113   6.750  68.109  1.00  0.00    -0.126 OA 
ENDBRANCH  16  17
ENDBRANCH  15  16
ENDBRANCH  14  15
ENDBRANCH  13  14
ENDBRANCH  12  13
ENDBRANCH  11  12
ENDBRANCH  10  11
ENDBRANCH   8   9
ENDBRANCH   7   8
ENDBRANCH   5   6
ENDBRANCH   4   5
ENDBRANCH   2   3
TORSDOF 12
ENDMDL
MODEL      248
REMARK 921   NORMALIZED FREE ENERGY PREDICTED BY IDOCK:   -3.59 KCAL/MOL
REMARK 922        TOTAL FREE ENERGY PREDICTED BY IDOCK:   -7.95 KCAL/MOL
REMARK 923 INTER-LIGAND FREE ENERGY PREDICTED BY IDOCK:   -5.91 KCAL/MOL
REMARK 924 INTRA-LIGAND FREE ENERGY PREDICTED BY IDOCK:   -2.04 KCAL/MOL
REMARK 927      BINDING AFFINITY PREDICTED BY RF-SCORE:    0.00 PKD
ROOT
HETATM    1  C   UNL     1     -10.432  14.970  67.755  1.00  0.00    -0.249 C  
HETATM    2  C   UNL     1     -11.764  14.365  68.168  1.00  0.00    -0.377 C  
ENDROOT
BRANCH   2   3
HETATM    3  C   UNL     1     -12.034  13.071  67.455  1.00  0.00    -0.360 C  
HETATM    4  C   UNL     1     -11.766  11.844  67.931  1.00  0.00    -0.368 C  
BRANCH   4   5
HETATM    5  C   UNL     1     -11.111  11.570  69.255  1.00  0.00    -0.305 C  
BRANCH   5   6
HETATM    6  C   UNL     1     -12.109  11.363  70.358  1.00  0.00    -0.473 C  
HETATM    7  C   UNL     1     -12.207  10.257  71.116  1.00  0.00    -0.500 C  
BRANCH   7   8
HETATM    8  C   UNL     1     -11.346   9.040  70.934  1.00  0.00    -0.351 C  
BRANCH   8   9
HETATM    9  C   UNL     1     -12.031   7.783  71.381  1.00  0.00    -0.331 C  
HETATM   10  C   UNL     1     -11.424   6.595  71.552  1.00  0.00    -0.343 C  
BRANCH  10  11
HETATM   11  C   UNL     1      -9.945   6.391  71.380  1.00  0.00    -0.206 C  
BRANCH  11  12
HETATM   12  C   UNL     1      -9.616   5.293  70.374  1.00  0.00    -0.241 C  
BRANCH  12  13
HETATM   13  C   UNL     1      -9.201   5.908  69.036  1.00  0.00    -0.132 C  
BRANCH  13  14
HETATM   14  C   UNL     1     -10.207   5.561  67.944  1.00  0.00    -0.231 C  
BRANCH  14  15
HETATM   15  C   UNL     1     -11.025   6.783  67.528  1.00  0.00    -0.375 C  
BRANCH  15  16
HETATM   16  C   UNL     1     -10.250   8.067  67.814  1.00  0.00    -0.282 C  
BRANCH  16  17
HETATM   17  C   UNL     1     -10.075   8.913  66.556  1.00  0.00    -0.356 C  
HETATM   18  C   UNL     1      -8.922   9.882  66.693  1.00  0.00    -0.139 C  
HETATM   19  O   UNL     1      -8.199   9.992  67.670  1.00  0.00    -0.113 OA 
HETATM   20  O   UNL     1      -8.761  10.646  65.587  1.00  0.00    -0.176 OA 
ENDBRANCH  16  17
ENDBRANCH  15  16
ENDBRANCH  14  15
ENDBRANCH  13  14
ENDBRANCH  12  13
ENDBRANCH  11  12
ENDBRANCH  10  11
ENDBRANCH   8   9
ENDBRANCH   7   8
ENDBRANCH   5   6
ENDBRANCH   4   5
ENDBRANCH   2   3
TORSDOF 12
ENDMDL
MODEL      249
REMARK 921   NORMALIZED FREE ENERGY PREDICTED BY IDOCK:   -3.59 KCAL/MOL
REMARK 922        TOTAL FREE ENERGY PREDICTED BY IDOCK:   -7.95 KCAL/MOL
REMARK 923 INTER-LIGAND FREE ENERGY PREDICTED BY IDOCK:   -6.95 KCAL/MOL
REMARK 924 INTRA-LIGAND FREE ENERGY PREDICTED BY IDOCK:   -0.99 KCAL/MOL
REMARK 927      BINDING AFFINITY PREDICTED BY RF-SCORE:    0.00 PKD
ROOT
HETATM    1  C   UNL     1      -9.080   1.675  69.794  1.00  0.00    -0.151 C  
HETATM    2  C   UNL     1      -9.549   2.669  70.844  1.00  0.00    -0.197 C  
ENDROOT
BRANCH   2   3
HETATM    3  C   UNL     1      -8.903   4.014  70.667  1.00  0.00    -0.132 C  
HETATM    4  C   UNL     1      -9.379   5.179  71.137  1.00  0.00    -0.194 C  
BRANCH   4   5
HETATM    5  C   UNL     1     -10.668   5.328  71.892  1.00  0.00    -0.252 C  
BRANCH   5   6
HETATM    6  C   UNL     1     -10.625   6.454  72.885  1.00  0.00    -0.260 C  
HETATM    7  C   UNL     1     -11.273   7.625  72.756  1.00  0.00    -0.431 C  
BRANCH   7   8
HETATM    8  C   UNL     1     -12.107   7.991  71.562  1.00  0.00    -0.330 C  
BRANCH   8   9
HETATM    9  C   UNL     1     -12.934   9.221  71.798  1.00  0.00    -0.471 C  
HETATM   10  C   UNL     1     -12.647  10.444  71.318  1.00  0.00    -0.525 C  
BRANCH  10  11
HETATM   11  C   UNL     1     -11.481  10.724  70.413  1.00  0.00    -0.397 C  
BRANCH  11  12
HETATM   12  C   UNL     1     -11.905  11.334  69.081  1.00  0.00    -0.423 C  
BRANCH  12  13
HETATM   13  C   UNL     1     -10.687  11.887  68.339  1.00  0.00    -0.248 C  
BRANCH  13  14
HETATM   14  C   UNL     1     -10.649  13.410  68.417  1.00  0.00    -0.259 C  
BRANCH  14  15
HETATM   15  C   UNL     1     -11.975  13.978  68.922  1.00  0.00    -0.387 C  
BRANCH  15  16
HETATM   16  C   UNL     1     -11.763  14.761  70.215  1.00  0.00    -0.351 C  
BRANCH  16  17
HETATM   17  C   UNL     1     -13.085  15.084  70.904  1.00  0.00    -0.462 C  
HETATM   18  C   UNL     1     -12.869  15.603  72.308  1.00  0.00    -0.441 C  
HETATM   19  O   UNL     1     -11.786  15.762  72.848  1.00  0.00    -0.449 OA 
HETATM   20  O   UNL     1     -14.035  15.885  72.935  1.00  0.00    -0.592 OA 
ENDBRANCH  16  17
ENDBRANCH  15  16
ENDBRANCH  14  15
ENDBRANCH  13  14
ENDBRANCH  12  13
ENDBRANCH  11  12
ENDBRANCH  10  11
ENDBRANCH   8   9
ENDBRANCH   7   8
ENDBRANCH   5   6
ENDBRANCH   4   5
ENDBRANCH   2   3
TORSDOF 12
ENDMDL
MODEL      250
REMARK 921   NORMALIZED FREE ENERGY PREDICTED BY IDOCK:   -3.59 KCAL/MOL
REMARK 922        TOTAL FREE ENERGY PREDICTED BY IDOCK:   -7.94 KCAL/MOL
REMARK 923 INTER-LIGAND FREE ENERGY PREDICTED BY IDOCK:   -5.32 KCAL/MOL
REMARK 924 INTRA-LIGAND FREE ENERGY PREDICTED BY IDOCK:   -2.62 KCAL/MOL
REMARK 927      BINDING AFFINITY PREDICTED BY RF-SCORE:    0.00 PKD
ROOT
HETATM    1  C   UNL     1     -11.223  13.695  66.419  1.00  0.00    -0.317 C  
HETATM    2  C   UNL     1     -11.460  12.426  67.223  1.00  0.00    -0.421 C  
ENDROOT
BRANCH   2   3
HETATM    3  C   UNL     1     -11.897  12.730  68.628  1.00  0.00    -0.341 C  
HETATM    4  C   UNL     1     -11.703  11.940  69.697  1.00  0.00    -0.413 C  
BRANCH   4   5
HETATM    5  C   UNL     1     -11.040  10.592  69.648  1.00  0.00    -0.342 C  
BRANCH   5   6
HETATM    6  C   UNL     1     -11.660   9.612  70.603  1.00  0.00    -0.371 C  
HETATM    7  C   UNL     1     -10.989   8.897  71.523  1.00  0.00    -0.398 C  
BRANCH   7   8
HETATM    8  C   UNL     1      -9.498   8.948  71.696  1.00  0.00    -0.351 C  
BRANCH   8   9
HETATM    9  C   UNL     1      -8.773   8.168  70.640  1.00  0.00    -0.136 C  
HETATM   10  C   UNL     1      -7.856   8.680  69.799  1.00  0.00    -0.093 C  
BRANCH  10  11
HETATM   11  C   UNL     1      -7.383  10.104  69.860  1.00  0.00    -0.169 C  
BRANCH  11  12
HETATM   12  C   UNL     1      -7.522  10.828  68.525  1.00  0.00    -0.100 C  
BRANCH  12  13
HETATM   13  C   UNL     1      -7.699   9.818  67.391  1.00  0.00    -0.095 C  
BRANCH  13  14
HETATM   14  C   UNL     1      -8.543  10.409  66.265  1.00  0.00    -0.147 C  
BRANCH  14  15
HETATM   15  C   UNL     1      -9.671   9.462  65.855  1.00  0.00    -0.355 C  
BRANCH  15  16
HETATM   16  C   UNL     1      -9.486   8.096  66.512  1.00  0.00    -0.286 C  
BRANCH  16  17
HETATM   17  C   UNL     1     -10.616   7.781  67.487  1.00  0.00    -0.319 C  
HETATM   18  C   UNL     1     -10.425   6.432  68.144  1.00  0.00    -0.218 C  
HETATM   19  O   UNL     1      -9.491   5.671  67.945  1.00  0.00    -0.110 OA 
HETATM   20  O   UNL     1     -11.426   6.136  69.006  1.00  0.00    -0.340 OA 
ENDBRANCH  16  17
ENDBRANCH  15  16
ENDBRANCH  14  15
ENDBRANCH  13  14
ENDBRANCH  12  13
ENDBRANCH  11  12
ENDBRANCH  10  11
ENDBRANCH   8   9
ENDBRANCH   7   8
ENDBRANCH   5   6
ENDBRANCH   4   5
ENDBRANCH   2   3
TORSDOF 12
ENDMDL
MODEL      251
REMARK 921   NORMALIZED FREE ENERGY PREDICTED BY IDOCK:   -3.58 KCAL/MOL
REMARK 922        TOTAL FREE ENERGY PREDICTED BY IDOCK:   -7.94 KCAL/MOL
REMARK 923 INTER-LIGAND FREE ENERGY PREDICTED BY IDOCK:   -6.64 KCAL/MOL
REMARK 924 INTRA-LIGAND FREE ENERGY PREDICTED BY IDOCK:   -1.29 KCAL/MOL
REMARK 927      BINDING AFFINITY PREDICTED BY RF-SCORE:    0.00 PKD
ROOT
HETATM    1  C   UNL     1     -11.713   6.621  72.217  1.00  0.00    -0.305 C  
HETATM    2  C   UNL     1     -11.707   8.122  72.460  1.00  0.00    -0.457 C  
ENDROOT
BRANCH   2   3
HETATM    3  C   UNL     1     -12.937   8.782  71.902  1.00  0.00    -0.421 C  
HETATM    4  C   UNL     1     -12.955   9.890  71.143  1.00  0.00    -0.456 C  
BRANCH   4   5
HETATM    5  C   UNL     1     -11.734  10.676  70.757  1.00  0.00    -0.435 C  
BRANCH   5   6
HETATM    6  C   UNL     1     -11.169  10.247  69.434  1.00  0.00    -0.292 C  
HETATM    7  C   UNL     1     -11.103  11.017  68.334  1.00  0.00    -0.308 C  
BRANCH   7   8
HETATM    8  C   UNL     1     -11.632  12.420  68.263  1.00  0.00    -0.384 C  
BRANCH   8   9
HETATM    9  C   UNL     1     -11.868  12.872  66.852  1.00  0.00    -0.444 C  
HETATM   10  C   UNL     1     -10.923  13.377  66.038  1.00  0.00    -0.281 C  
BRANCH  10  11
HETATM   11  C   UNL     1      -9.475  13.488  66.423  1.00  0.00    -0.236 C  
BRANCH  11  12
HETATM   12  C   UNL     1      -9.110  14.871  66.950  1.00  0.00    -0.271 C  
BRANCH  12  13
HETATM   13  C   UNL     1      -8.928  14.830  68.467  1.00  0.00    -0.182 C  
BRANCH  13  14
HETATM   14  C   UNL     1      -7.934  15.894  68.923  1.00  0.00    -0.204 C  
BRANCH  14  15
HETATM   15  C   UNL     1      -7.243  16.561  67.735  1.00  0.00    -0.156 C  
BRANCH  15  16
HETATM   16  C   UNL     1      -7.560  18.054  67.702  1.00  0.00    -0.219 C  
BRANCH  16  17
HETATM   17  C   UNL     1      -8.371  18.433  66.466  1.00  0.00    -0.290 C  
HETATM   18  C   UNL     1      -9.852  18.491  66.767  1.00  0.00    -0.342 C  
HETATM   19  O   UNL     1     -10.364  18.275  67.854  1.00  0.00    -0.366 OA 
HETATM   20  O   UNL     1     -10.584  18.817  65.677  1.00  0.00    -0.596 OA 
ENDBRANCH  16  17
ENDBRANCH  15  16
ENDBRANCH  14  15
ENDBRANCH  13  14
ENDBRANCH  12  13
ENDBRANCH  11  12
ENDBRANCH  10  11
ENDBRANCH   8   9
ENDBRANCH   7   8
ENDBRANCH   5   6
ENDBRANCH   4   5
ENDBRANCH   2   3
TORSDOF 12
ENDMDL
MODEL      252
REMARK 921   NORMALIZED FREE ENERGY PREDICTED BY IDOCK:   -3.56 KCAL/MOL
REMARK 922        TOTAL FREE ENERGY PREDICTED BY IDOCK:   -7.90 KCAL/MOL
REMARK 923 INTER-LIGAND FREE ENERGY PREDICTED BY IDOCK:   -6.51 KCAL/MOL
REMARK 924 INTRA-LIGAND FREE ENERGY PREDICTED BY IDOCK:   -1.38 KCAL/MOL
REMARK 927      BINDING AFFINITY PREDICTED BY RF-SCORE:    0.00 PKD
ROOT
HETATM    1  C   UNL     1     -10.561   5.218  66.457  1.00  0.00    -0.348 C  
HETATM    2  C   UNL     1      -9.733   6.455  66.766  1.00  0.00    -0.199 C  
ENDROOT
BRANCH   2   3
HETATM    3  C   UNL     1     -10.576   7.568  67.321  1.00  0.00    -0.394 C  
HETATM    4  C   UNL     1     -10.113   8.690  67.896  1.00  0.00    -0.254 C  
BRANCH   4   5
HETATM    5  C   UNL     1      -8.658   8.998  68.109  1.00  0.00    -0.130 C  
BRANCH   5   6
HETATM    6  C   UNL     1      -8.446  10.286  68.852  1.00  0.00    -0.138 C  
HETATM    7  C   UNL     1      -7.979  11.424  68.310  1.00  0.00    -0.136 C  
BRANCH   7   8
HETATM    8  C   UNL     1      -7.558  11.555  66.874  1.00  0.00    -0.151 C  
BRANCH   8   9
HETATM    9  C   UNL     1      -6.662  10.433  66.437  1.00  0.00    -0.107 C  
HETATM   10  C   UNL     1      -6.734   9.810  65.247  1.00  0.00    -0.099 C  
BRANCH  10  11
HETATM   11  C   UNL     1      -7.689  10.214  64.160  1.00  0.00    -0.133 C  
BRANCH  11  12
HETATM   12  C   UNL     1      -9.052   9.543  64.296  1.00  0.00    -0.220 C  
BRANCH  12  13
HETATM   13  C   UNL     1     -10.125  10.583  64.621  1.00  0.00    -0.408 C  
BRANCH  13  14
HETATM   14  C   UNL     1     -10.311  11.553  63.458  1.00  0.00    -0.484 C  
BRANCH  14  15
HETATM   15  C   UNL     1     -11.702  12.185  63.473  1.00  0.00    -0.579 C  
BRANCH  15  16
HETATM   16  C   UNL     1     -11.857  13.105  64.682  1.00  0.00    -0.417 C  
BRANCH  16  17
HETATM   17  C   UNL     1     -12.195  14.533  64.265  1.00  0.00    -0.441 C  
HETATM   18  C   UNL     1     -11.090  15.498  64.636  1.00  0.00    -0.359 C  
HETATM   19  O   UNL     1     -10.045  15.200  65.193  1.00  0.00    -0.347 OA 
HETATM   20  O   UNL     1     -11.381  16.771  64.280  1.00  0.00    -1.170 OA 
ENDBRANCH  16  17
ENDBRANCH  15  16
ENDBRANCH  14  15
ENDBRANCH  13  14
ENDBRANCH  12  13
ENDBRANCH  11  12
ENDBRANCH  10  11
ENDBRANCH   8   9
ENDBRANCH   7   8
ENDBRANCH   5   6
ENDBRANCH   4   5
ENDBRANCH   2   3
TORSDOF 12
ENDMDL
MODEL      253
REMARK 921   NORMALIZED FREE ENERGY PREDICTED BY IDOCK:   -3.56 KCAL/MOL
REMARK 922        TOTAL FREE ENERGY PREDICTED BY IDOCK:   -7.89 KCAL/MOL
REMARK 923 INTER-LIGAND FREE ENERGY PREDICTED BY IDOCK:   -5.87 KCAL/MOL
REMARK 924 INTRA-LIGAND FREE ENERGY PREDICTED BY IDOCK:   -2.02 KCAL/MOL
REMARK 927      BINDING AFFINITY PREDICTED BY RF-SCORE:    0.00 PKD
ROOT
HETATM    1  C   UNL     1     -12.071   6.772  70.889  1.00  0.00    -0.421 C  
HETATM    2  C   UNL     1     -12.124   7.711  72.084  1.00  0.00    -0.325 C  
ENDROOT
BRANCH   2   3
HETATM    3  C   UNL     1     -13.303   8.639  72.012  1.00  0.00    -0.428 C  
HETATM    4  C   UNL     1     -13.270   9.915  71.593  1.00  0.00    -0.519 C  
BRANCH   4   5
HETATM    5  C   UNL     1     -12.026  10.635  71.158  1.00  0.00    -0.401 C  
BRANCH   5   6
HETATM    6  C   UNL     1     -12.082  11.061  69.719  1.00  0.00    -0.424 C  
HETATM    7  C   UNL     1     -11.417  10.471  68.710  1.00  0.00    -0.291 C  
BRANCH   7   8
HETATM    8  C   UNL     1     -10.479   9.313  68.893  1.00  0.00    -0.235 C  
BRANCH   8   9
HETATM    9  C   UNL     1     -10.451   8.405  67.698  1.00  0.00    -0.307 C  
HETATM   10  C   UNL     1      -9.435   8.319  66.821  1.00  0.00    -0.256 C  
BRANCH  10  11
HETATM   11  C   UNL     1      -8.149   9.082  66.970  1.00  0.00    -0.106 C  
BRANCH  11  12
HETATM   12  C   UNL     1      -8.142  10.384  66.176  1.00  0.00    -0.139 C  
BRANCH  12  13
HETATM   13  C   UNL     1      -7.618  11.530  67.041  1.00  0.00    -0.154 C  
BRANCH  13  14
HETATM   14  C   UNL     1      -8.767  12.392  67.555  1.00  0.00    -0.179 C  
BRANCH  14  15
HETATM   15  C   UNL     1      -9.315  13.306  66.459  1.00  0.00    -0.221 C  
BRANCH  15  16
HETATM   16  C   UNL     1     -10.730  13.764  66.804  1.00  0.00    -0.276 C  
BRANCH  16  17
HETATM   17  C   UNL     1     -10.866  15.282  66.731  1.00  0.00    -0.312 C  
HETATM   18  C   UNL     1     -10.570  15.933  68.063  1.00  0.00    -0.287 C  
HETATM   19  O   UNL     1     -10.251  15.346  69.085  1.00  0.00    -0.214 OA 
HETATM   20  O   UNL     1     -10.695  17.280  68.015  1.00  0.00    -0.380 OA 
ENDBRANCH  16  17
ENDBRANCH  15  16
ENDBRANCH  14  15
ENDBRANCH  13  14
ENDBRANCH  12  13
ENDBRANCH  11  12
ENDBRANCH  10  11
ENDBRANCH   8   9
ENDBRANCH   7   8
ENDBRANCH   5   6
ENDBRANCH   4   5
ENDBRANCH   2   3
TORSDOF 12
ENDMDL
MODEL      254
REMARK 921   NORMALIZED FREE ENERGY PREDICTED BY IDOCK:   -3.55 KCAL/MOL
REMARK 922        TOTAL FREE ENERGY PREDICTED BY IDOCK:   -7.88 KCAL/MOL
REMARK 923 INTER-LIGAND FREE ENERGY PREDICTED BY IDOCK:   -5.71 KCAL/MOL
REMARK 924 INTRA-LIGAND FREE ENERGY PREDICTED BY IDOCK:   -2.17 KCAL/MOL
REMARK 927      BINDING AFFINITY PREDICTED BY RF-SCORE:    0.00 PKD
ROOT
HETATM    1  C   UNL     1     -10.018  13.202  67.665  1.00  0.00    -0.219 C  
HETATM    2  C   UNL     1      -8.623  13.612  67.222  1.00  0.00    -0.220 C  
ENDROOT
BRANCH   2   3
HETATM    3  C   UNL     1      -8.102  14.771  68.023  1.00  0.00    -0.140 C  
HETATM    4  C   UNL     1      -8.054  16.049  67.612  1.00  0.00    -0.164 C  
BRANCH   4   5
HETATM    5  C   UNL     1      -8.487  16.521  66.253  1.00  0.00    -0.363 C  
BRANCH   5   6
HETATM    6  C   UNL     1      -9.927  16.945  66.224  1.00  0.00    -0.324 C  
HETATM    7  C   UNL     1     -10.907  16.315  65.552  1.00  0.00    -0.254 C  
BRANCH   7   8
HETATM    8  C   UNL     1     -10.683  15.106  64.690  1.00  0.00    -0.234 C  
BRANCH   8   9
HETATM    9  C   UNL     1     -11.966  14.416  64.330  1.00  0.00    -0.471 C  
HETATM   10  C   UNL     1     -12.053  13.201  63.758  1.00  0.00    -0.563 C  
BRANCH  10  11
HETATM   11  C   UNL     1     -10.858  12.338  63.468  1.00  0.00    -0.508 C  
BRANCH  11  12
HETATM   12  C   UNL     1     -10.694  11.204  64.474  1.00  0.00    -0.368 C  
BRANCH  12  13
HETATM   13  C   UNL     1      -9.328  10.537  64.304  1.00  0.00    -0.310 C  
BRANCH  13  14
HETATM   14  C   UNL     1      -8.799  10.034  65.643  1.00  0.00    -0.184 C  
BRANCH  14  15
HETATM   15  C   UNL     1      -9.909   9.399  66.480  1.00  0.00    -0.325 C  
BRANCH  15  16
HETATM   16  C   UNL     1      -9.538   9.422  67.962  1.00  0.00    -0.156 C  
BRANCH  16  17
HETATM   17  C   UNL     1     -10.776   9.473  68.853  1.00  0.00    -0.220 C  
HETATM   18  C   UNL     1     -10.636   8.564  70.053  1.00  0.00    -0.227 C  
HETATM   19  O   UNL     1      -9.665   7.870  70.309  1.00  0.00    -0.181 OA 
HETATM   20  O   UNL     1     -11.731   8.593  70.849  1.00  0.00    -0.282 OA 
ENDBRANCH  16  17
ENDBRANCH  15  16
ENDBRANCH  14  15
ENDBRANCH  13  14
ENDBRANCH  12  13
ENDBRANCH  11  12
ENDBRANCH  10  11
ENDBRANCH   8   9
ENDBRANCH   7   8
ENDBRANCH   5   6
ENDBRANCH   4   5
ENDBRANCH   2   3
TORSDOF 12
ENDMDL
MODEL      255
REMARK 921   NORMALIZED FREE ENERGY PREDICTED BY IDOCK:   -3.55 KCAL/MOL
REMARK 922        TOTAL FREE ENERGY PREDICTED BY IDOCK:   -7.88 KCAL/MOL
REMARK 923 INTER-LIGAND FREE ENERGY PREDICTED BY IDOCK:   -5.84 KCAL/MOL
REMARK 924 INTRA-LIGAND FREE ENERGY PREDICTED BY IDOCK:   -2.04 KCAL/MOL
REMARK 927      BINDING AFFINITY PREDICTED BY RF-SCORE:    0.00 PKD
ROOT
HETATM    1  C   UNL     1      -6.361   9.801  70.386  1.00  0.00    -0.093 C  
HETATM    2  C   UNL     1      -7.413   9.300  69.409  1.00  0.00    -0.078 C  
ENDROOT
BRANCH   2   3
HETATM    3  C   UNL     1      -8.575  10.247  69.306  1.00  0.00    -0.175 C  
HETATM    4  C   UNL     1      -8.652  11.307  68.484  1.00  0.00    -0.156 C  
BRANCH   4   5
HETATM    5  C   UNL     1      -7.557  11.738  67.549  1.00  0.00    -0.135 C  
BRANCH   5   6
HETATM    6  C   UNL     1      -6.600  12.701  68.192  1.00  0.00    -0.081 C  
HETATM    7  C   UNL     1      -6.651  14.039  68.073  1.00  0.00    -0.150 C  
BRANCH   7   8
HETATM    8  C   UNL     1      -7.662  14.765  67.232  1.00  0.00    -0.214 C  
BRANCH   8   9
HETATM    9  C   UNL     1      -7.336  16.222  67.078  1.00  0.00    -0.264 C  
HETATM   10  C   UNL     1      -8.223  17.177  66.745  1.00  0.00    -0.274 C  
BRANCH  10  11
HETATM   11  C   UNL     1      -9.689  16.912  66.552  1.00  0.00    -0.295 C  
BRANCH  11  12
HETATM   12  C   UNL     1     -10.516  17.253  67.787  1.00  0.00    -0.371 C  
BRANCH  12  13
HETATM   13  C   UNL     1     -11.008  15.974  68.466  1.00  0.00    -0.326 C  
BRANCH  13  14
HETATM   14  C   UNL     1     -11.785  15.103  67.485  1.00  0.00    -0.214 C  
BRANCH  14  15
HETATM   15  C   UNL     1     -11.477  13.619  67.688  1.00  0.00    -0.357 C  
BRANCH  15  16
HETATM   16  C   UNL     1     -10.842  13.029  66.431  1.00  0.00    -0.294 C  
BRANCH  16  17
HETATM   17  C   UNL     1     -11.112  13.893  65.203  1.00  0.00    -0.334 C  
HETATM   18  C   UNL     1     -12.345  13.433  64.458  1.00  0.00    -0.360 C  
HETATM   19  O   UNL     1     -13.060  12.496  64.778  1.00  0.00    -0.853 OA 
HETATM   20  O   UNL     1     -12.592  14.186  63.361  1.00  0.00    -0.818 OA 
ENDBRANCH  16  17
ENDBRANCH  15  16
ENDBRANCH  14  15
ENDBRANCH  13  14
ENDBRANCH  12  13
ENDBRANCH  11  12
ENDBRANCH  10  11
ENDBRANCH   8   9
ENDBRANCH   7   8
ENDBRANCH   5   6
ENDBRANCH   4   5
ENDBRANCH   2   3
TORSDOF 12
ENDMDL
MODEL      256
REMARK 921   NORMALIZED FREE ENERGY PREDICTED BY IDOCK:   -3.54 KCAL/MOL
REMARK 922        TOTAL FREE ENERGY PREDICTED BY IDOCK:   -7.87 KCAL/MOL
REMARK 923 INTER-LIGAND FREE ENERGY PREDICTED BY IDOCK:   -5.86 KCAL/MOL
REMARK 924 INTRA-LIGAND FREE ENERGY PREDICTED BY IDOCK:   -2.02 KCAL/MOL
REMARK 927      BINDING AFFINITY PREDICTED BY RF-SCORE:    0.00 PKD
ROOT
HETATM    1  C   UNL     1     -10.498   9.439  67.403  1.00  0.00    -0.343 C  
HETATM    2  C   UNL     1     -10.476   7.934  67.621  1.00  0.00    -0.303 C  
ENDROOT
BRANCH   2   3
HETATM    3  C   UNL     1      -9.119   7.452  68.048  1.00  0.00    -0.130 C  
HETATM    4  C   UNL     1      -8.874   6.364  68.797  1.00  0.00    -0.124 C  
BRANCH   4   5
HETATM    5  C   UNL     1      -9.936   5.466  69.364  1.00  0.00    -0.280 C  
BRANCH   5   6
HETATM    6  C   UNL     1      -9.601   4.010  69.208  1.00  0.00    -0.247 C  
HETATM    7  C   UNL     1      -9.390   3.152  70.222  1.00  0.00    -0.236 C  
BRANCH   7   8
HETATM    8  C   UNL     1      -9.419   3.546  71.670  1.00  0.00    -0.217 C  
BRANCH   8   9
HETATM    9  C   UNL     1      -8.049   3.829  72.213  1.00  0.00    -0.077 C  
HETATM   10  C   UNL     1      -7.690   4.962  72.842  1.00  0.00    -0.093 C  
BRANCH  10  11
HETATM   11  C   UNL     1      -8.649   6.077  73.149  1.00  0.00    -0.118 C  
BRANCH  11  12
HETATM   12  C   UNL     1      -8.417   7.308  72.279  1.00  0.00    -0.129 C  
BRANCH  12  13
HETATM   13  C   UNL     1      -9.381   8.427  72.676  1.00  0.00    -0.334 C  
BRANCH  13  14
HETATM   14  C   UNL     1     -10.070   9.010  71.446  1.00  0.00    -0.399 C  
BRANCH  14  15
HETATM   15  C   UNL     1     -11.585   9.078  71.633  1.00  0.00    -0.426 C  
BRANCH  15  16
HETATM   16  C   UNL     1     -12.143  10.355  71.007  1.00  0.00    -0.488 C  
BRANCH  16  17
HETATM   17  C   UNL     1     -13.191  11.011  71.900  1.00  0.00    -0.503 C  
HETATM   18  C   UNL     1     -13.111  12.520  71.837  1.00  0.00    -0.368 C  
HETATM   19  O   UNL     1     -12.323  13.162  71.160  1.00  0.00    -0.333 OA 
HETATM   20  O   UNL     1     -14.031  13.115  72.632  1.00  0.00    -0.708 OA 
ENDBRANCH  16  17
ENDBRANCH  15  16
ENDBRANCH  14  15
ENDBRANCH  13  14
ENDBRANCH  12  13
ENDBRANCH  11  12
ENDBRANCH  10  11
ENDBRANCH   8   9
ENDBRANCH   7   8
ENDBRANCH   5   6
ENDBRANCH   4   5
ENDBRANCH   2   3
TORSDOF 12
ENDMDL
MODEL      257
REMARK 921   NORMALIZED FREE ENERGY PREDICTED BY IDOCK:   -3.54 KCAL/MOL
REMARK 922        TOTAL FREE ENERGY PREDICTED BY IDOCK:   -7.87 KCAL/MOL
REMARK 923 INTER-LIGAND FREE ENERGY PREDICTED BY IDOCK:   -6.79 KCAL/MOL
REMARK 924 INTRA-LIGAND FREE ENERGY PREDICTED BY IDOCK:   -1.08 KCAL/MOL
REMARK 927      BINDING AFFINITY PREDICTED BY RF-SCORE:    0.00 PKD
ROOT
HETATM    1  C   UNL     1      -7.539   5.419  69.886  1.00  0.00    -0.073 C  
HETATM    2  C   UNL     1      -8.887   5.226  70.563  1.00  0.00    -0.150 C  
ENDROOT
BRANCH   2   3
HETATM    3  C   UNL     1      -9.569   6.538  70.832  1.00  0.00    -0.186 C  
HETATM    4  C   UNL     1     -10.627   7.022  70.162  1.00  0.00    -0.249 C  
BRANCH   4   5
HETATM    5  C   UNL     1     -11.283   6.335  68.998  1.00  0.00    -0.415 C  
BRANCH   5   6
HETATM    6  C   UNL     1     -10.363   6.202  67.818  1.00  0.00    -0.247 C  
HETATM    7  C   UNL     1     -10.057   7.190  66.959  1.00  0.00    -0.308 C  
BRANCH   7   8
HETATM    8  C   UNL     1     -10.634   8.574  67.038  1.00  0.00    -0.305 C  
BRANCH   8   9
HETATM    9  C   UNL     1      -9.733   9.528  67.765  1.00  0.00    -0.176 C  
HETATM   10  C   UNL     1     -10.145  10.634  68.411  1.00  0.00    -0.181 C  
BRANCH  10  11
HETATM   11  C   UNL     1     -11.591  11.021  68.547  1.00  0.00    -0.380 C  
BRANCH  11  12
HETATM   12  C   UNL     1     -11.812  12.108  69.593  1.00  0.00    -0.391 C  
BRANCH  12  13
HETATM   13  C   UNL     1     -12.060  13.456  68.914  1.00  0.00    -0.289 C  
BRANCH  13  14
HETATM   14  C   UNL     1     -10.913  14.423  69.191  1.00  0.00    -0.288 C  
BRANCH  14  15
HETATM   15  C   UNL     1     -11.425  15.760  69.724  1.00  0.00    -0.350 C  
BRANCH  15  16
HETATM   16  C   UNL     1     -12.565  15.538  70.717  1.00  0.00    -0.505 C  
BRANCH  16  17
HETATM   17  C   UNL     1     -12.118  15.784  72.154  1.00  0.00    -0.570 C  
HETATM   18  C   UNL     1     -12.789  14.830  73.118  1.00  0.00    -0.508 C  
HETATM   19  O   UNL     1     -13.587  13.958  72.813  1.00  0.00    -0.654 OA 
HETATM   20  O   UNL     1     -12.408  15.043  74.399  1.00  0.00    -0.570 OA 
ENDBRANCH  16  17
ENDBRANCH  15  16
ENDBRANCH  14  15
ENDBRANCH  13  14
ENDBRANCH  12  13
ENDBRANCH  11  12
ENDBRANCH  10  11
ENDBRANCH   8   9
ENDBRANCH   7   8
ENDBRANCH   5   6
ENDBRANCH   4   5
ENDBRANCH   2   3
TORSDOF 12
ENDMDL
MODEL      258
REMARK 921   NORMALIZED FREE ENERGY PREDICTED BY IDOCK:   -3.54 KCAL/MOL
REMARK 922        TOTAL FREE ENERGY PREDICTED BY IDOCK:   -7.87 KCAL/MOL
REMARK 923 INTER-LIGAND FREE ENERGY PREDICTED BY IDOCK:   -5.74 KCAL/MOL
REMARK 924 INTRA-LIGAND FREE ENERGY PREDICTED BY IDOCK:   -2.13 KCAL/MOL
REMARK 927      BINDING AFFINITY PREDICTED BY RF-SCORE:    0.00 PKD
ROOT
HETATM    1  C   UNL     1     -11.285   6.292  69.557  1.00  0.00    -0.500 C  
HETATM    2  C   UNL     1     -10.571   6.892  68.356  1.00  0.00    -0.249 C  
ENDROOT
BRANCH   2   3
HETATM    3  C   UNL     1     -10.765   6.061  67.119  1.00  0.00    -0.409 C  
HETATM    4  C   UNL     1     -10.077   4.950  66.806  1.00  0.00    -0.269 C  
BRANCH   4   5
HETATM    5  C   UNL     1      -8.964   4.377  67.638  1.00  0.00    -0.134 C  
BRANCH   5   6
HETATM    6  C   UNL     1      -9.290   3.011  68.170  1.00  0.00    -0.254 C  
HETATM    7  C   UNL     1      -9.272   2.661  69.468  1.00  0.00    -0.197 C  
BRANCH   7   8
HETATM    8  C   UNL     1      -8.875   3.591  70.578  1.00  0.00    -0.142 C  
BRANCH   8   9
HETATM    9  C   UNL     1      -9.938   3.712  71.630  1.00  0.00    -0.196 C  
HETATM   10  C   UNL     1      -9.884   4.544  72.686  1.00  0.00    -0.201 C  
BRANCH  10  11
HETATM   11  C   UNL     1      -8.767   5.523  72.910  1.00  0.00    -0.118 C  
BRANCH  11  12
HETATM   12  C   UNL     1      -9.117   6.931  72.441  1.00  0.00    -0.144 C  
BRANCH  12  13
HETATM   13  C   UNL     1     -10.355   7.444  73.178  1.00  0.00    -0.384 C  
BRANCH  13  14
HETATM   14  C   UNL     1     -11.103   8.471  72.334  1.00  0.00    -0.397 C  
BRANCH  14  15
HETATM   15  C   UNL     1     -10.163   9.195  71.370  1.00  0.00    -0.402 C  
BRANCH  15  16
HETATM   16  C   UNL     1     -10.960  10.067  70.403  1.00  0.00    -0.384 C  
BRANCH  16  17
HETATM   17  C   UNL     1     -10.156  10.404  69.151  1.00  0.00    -0.236 C  
HETATM   18  C   UNL     1     -11.040  10.939  68.047  1.00  0.00    -0.293 C  
HETATM   19  O   UNL     1     -12.248  11.100  68.120  1.00  0.00    -0.612 OA 
HETATM   20  O   UNL     1     -10.340  11.234  66.927  1.00  0.00    -0.217 OA 
ENDBRANCH  16  17
ENDBRANCH  15  16
ENDBRANCH  14  15
ENDBRANCH  13  14
ENDBRANCH  12  13
ENDBRANCH  11  12
ENDBRANCH  10  11
ENDBRANCH   8   9
ENDBRANCH   7   8
ENDBRANCH   5   6
ENDBRANCH   4   5
ENDBRANCH   2   3
TORSDOF 12
ENDMDL
MODEL      259
REMARK 921   NORMALIZED FREE ENERGY PREDICTED BY IDOCK:   -3.54 KCAL/MOL
REMARK 922        TOTAL FREE ENERGY PREDICTED BY IDOCK:   -7.87 KCAL/MOL
REMARK 923 INTER-LIGAND FREE ENERGY PREDICTED BY IDOCK:   -5.74 KCAL/MOL
REMARK 924 INTRA-LIGAND FREE ENERGY PREDICTED BY IDOCK:   -2.12 KCAL/MOL
REMARK 927      BINDING AFFINITY PREDICTED BY RF-SCORE:    0.00 PKD
ROOT
HETATM    1  C   UNL     1      -9.620   4.333  67.557  1.00  0.00    -0.217 C  
HETATM    2  C   UNL     1      -9.924   4.923  66.189  1.00  0.00    -0.252 C  
ENDROOT
BRANCH   2   3
HETATM    3  C   UNL     1      -9.137   6.177  65.935  1.00  0.00    -0.101 C  
HETATM    4  C   UNL     1      -9.492   7.415  66.317  1.00  0.00    -0.144 C  
BRANCH   4   5
HETATM    5  C   UNL     1     -10.767   7.749  67.037  1.00  0.00    -0.316 C  
BRANCH   5   6
HETATM    6  C   UNL     1     -10.525   8.507  68.312  1.00  0.00    -0.222 C  
HETATM    7  C   UNL     1     -10.696   9.831  68.470  1.00  0.00    -0.252 C  
BRANCH   7   8
HETATM    8  C   UNL     1     -11.119  10.756  67.365  1.00  0.00    -0.363 C  
BRANCH   8   9
HETATM    9  C   UNL     1      -9.949  11.396  66.678  1.00  0.00    -0.239 C  
HETATM   10  C   UNL     1      -9.796  11.487  65.344  1.00  0.00    -0.271 C  
BRANCH  10  11
HETATM   11  C   UNL     1     -10.828  11.014  64.360  1.00  0.00    -0.263 C  
BRANCH  11  12
HETATM   12  C   UNL     1     -11.870  12.081  64.043  1.00  0.00    -0.500 C  
BRANCH  12  13
HETATM   13  C   UNL     1     -11.204  13.451  63.915  1.00  0.00    -0.239 C  
BRANCH  13  14
HETATM   14  C   UNL     1     -11.996  14.512  64.672  1.00  0.00    -0.478 C  
BRANCH  14  15
HETATM   15  C   UNL     1     -12.834  13.894  65.791  1.00  0.00    -0.437 C  
BRANCH  15  16
HETATM   16  C   UNL     1     -12.267  14.278  67.156  1.00  0.00    -0.312 C  
BRANCH  16  17
HETATM   17  C   UNL     1     -10.866  14.871  67.039  1.00  0.00    -0.315 C  
HETATM   18  C   UNL     1     -10.649  15.988  68.036  1.00  0.00    -0.295 C  
HETATM   19  O   UNL     1     -11.470  16.383  68.849  1.00  0.00    -0.311 OA 
HETATM   20  O   UNL     1      -9.413  16.529  67.938  1.00  0.00    -0.217 OA 
ENDBRANCH  16  17
ENDBRANCH  15  16
ENDBRANCH  14  15
ENDBRANCH  13  14
ENDBRANCH  12  13
ENDBRANCH  11  12
ENDBRANCH  10  11
ENDBRANCH   8   9
ENDBRANCH   7   8
ENDBRANCH   5   6
ENDBRANCH   4   5
ENDBRANCH   2   3
TORSDOF 12
ENDMDL
MODEL      260
REMARK 921   NORMALIZED FREE ENERGY PREDICTED BY IDOCK:   -3.54 KCAL/MOL
REMARK 922        TOTAL FREE ENERGY PREDICTED BY IDOCK:   -7.87 KCAL/MOL
REMARK 923 INTER-LIGAND FREE ENERGY PREDICTED BY IDOCK:   -6.45 KCAL/MOL
REMARK 924 INTRA-LIGAND FREE ENERGY PREDICTED BY IDOCK:   -1.41 KCAL/MOL
REMARK 927      BINDING AFFINITY PREDICTED BY RF-SCORE:    0.00 PKD
ROOT
HETATM    1  C   UNL     1      -7.288   4.346  68.710  1.00  0.00    -0.056 C  
HETATM    2  C   UNL     1      -8.797   4.211  68.572  1.00  0.00    -0.139 C  
ENDROOT
BRANCH   2   3
HETATM    3  C   UNL     1      -9.526   5.229  69.402  1.00  0.00    -0.190 C  
HETATM    4  C   UNL     1     -10.445   6.097  68.948  1.00  0.00    -0.293 C  
BRANCH   4   5
HETATM    5  C   UNL     1     -10.870   6.211  67.512  1.00  0.00    -0.422 C  
BRANCH   5   6
HETATM    6  C   UNL     1      -9.839   6.897  66.662  1.00  0.00    -0.217 C  
HETATM    7  C   UNL     1      -9.607   8.221  66.643  1.00  0.00    -0.299 C  
BRANCH   7   8
HETATM    8  C   UNL     1     -10.389   9.218  67.450  1.00  0.00    -0.327 C  
BRANCH   8   9
HETATM    9  C   UNL     1      -9.639   9.683  68.664  1.00  0.00    -0.154 C  
HETATM   10  C   UNL     1     -10.127  10.525  69.593  1.00  0.00    -0.177 C  
BRANCH  10  11
HETATM   11  C   UNL     1     -11.532  11.058  69.569  1.00  0.00    -0.370 C  
BRANCH  11  12
HETATM   12  C   UNL     1     -11.592  12.567  69.777  1.00  0.00    -0.291 C  
BRANCH  12  13
HETATM   13  C   UNL     1     -11.076  13.294  68.534  1.00  0.00    -0.294 C  
BRANCH  13  14
HETATM   14  C   UNL     1     -12.149  13.347  67.452  1.00  0.00    -0.338 C  
BRANCH  14  15
HETATM   15  C   UNL     1     -11.850  12.366  66.319  1.00  0.00    -0.431 C  
BRANCH  15  16
HETATM   16  C   UNL     1     -11.128  13.076  65.175  1.00  0.00    -0.317 C  
BRANCH  16  17
HETATM   17  C   UNL     1     -11.985  14.181  64.566  1.00  0.00    -0.476 C  
HETATM   18  C   UNL     1     -11.238  15.495  64.506  1.00  0.00    -0.315 C  
HETATM   19  O   UNL     1     -10.092  15.678  64.883  1.00  0.00    -0.384 OA 
HETATM   20  O   UNL     1     -11.990  16.488  63.976  1.00  0.00    -0.964 OA 
ENDBRANCH  16  17
ENDBRANCH  15  16
ENDBRANCH  14  15
ENDBRANCH  13  14
ENDBRANCH  12  13
ENDBRANCH  11  12
ENDBRANCH  10  11
ENDBRANCH   8   9
ENDBRANCH   7   8
ENDBRANCH   5   6
ENDBRANCH   4   5
ENDBRANCH   2   3
TORSDOF 12
ENDMDL
MODEL      261
REMARK 921   NORMALIZED FREE ENERGY PREDICTED BY IDOCK:   -3.54 KCAL/MOL
REMARK 922        TOTAL FREE ENERGY PREDICTED BY IDOCK:   -7.86 KCAL/MOL
REMARK 923 INTER-LIGAND FREE ENERGY PREDICTED BY IDOCK:   -5.91 KCAL/MOL
REMARK 924 INTRA-LIGAND FREE ENERGY PREDICTED BY IDOCK:   -1.95 KCAL/MOL
REMARK 927      BINDING AFFINITY PREDICTED BY RF-SCORE:    0.00 PKD
ROOT
HETATM    1  C   UNL     1     -11.959  12.193  68.286  1.00  0.00    -0.248 C  
HETATM    2  C   UNL     1     -11.675  12.428  69.761  1.00  0.00    -0.361 C  
ENDROOT
BRANCH   2   3
HETATM    3  C   UNL     1     -12.416  11.455  70.634  1.00  0.00    -0.419 C  
HETATM    4  C   UNL     1     -11.919  10.308  71.125  1.00  0.00    -0.472 C  
BRANCH   4   5
HETATM    5  C   UNL     1     -10.536   9.792  70.845  1.00  0.00    -0.344 C  
BRANCH   5   6
HETATM    6  C   UNL     1     -10.490   8.899  69.639  1.00  0.00    -0.218 C  
HETATM    7  C   UNL     1      -9.726   9.106  68.551  1.00  0.00    -0.166 C  
BRANCH   7   8
HETATM    8  C   UNL     1      -8.833  10.300  68.373  1.00  0.00    -0.129 C  
BRANCH   8   9
HETATM    9  C   UNL     1      -8.753  10.745  66.942  1.00  0.00    -0.141 C  
HETATM   10  C   UNL     1      -8.746  12.027  66.535  1.00  0.00    -0.138 C  
BRANCH  10  11
HETATM   11  C   UNL     1      -8.745  13.194  67.481  1.00  0.00    -0.201 C  
BRANCH  11  12
HETATM   12  C   UNL     1      -8.856  14.534  66.761  1.00  0.00    -0.248 C  
BRANCH  12  13
HETATM   13  C   UNL     1     -10.297  15.044  66.807  1.00  0.00    -0.270 C  
BRANCH  13  14
HETATM   14  C   UNL     1     -10.589  15.725  68.140  1.00  0.00    -0.275 C  
BRANCH  14  15
HETATM   15  C   UNL     1      -9.398  16.556  68.617  1.00  0.00    -0.241 C  
BRANCH  15  16
HETATM   16  C   UNL     1      -9.765  18.038  68.662  1.00  0.00    -0.356 C  
BRANCH  16  17
HETATM   17  C   UNL     1     -10.759  18.407  67.566  1.00  0.00    -0.399 C  
HETATM   18  C   UNL     1     -10.059  18.919  66.327  1.00  0.00    -0.414 C  
HETATM   19  O   UNL     1      -8.851  19.028  66.188  1.00  0.00    -0.417 OA 
HETATM   20  O   UNL     1     -10.930  19.258  65.348  1.00  0.00    -0.452 OA 
ENDBRANCH  16  17
ENDBRANCH  15  16
ENDBRANCH  14  15
ENDBRANCH  13  14
ENDBRANCH  12  13
ENDBRANCH  11  12
ENDBRANCH  10  11
ENDBRANCH   8   9
ENDBRANCH   7   8
ENDBRANCH   5   6
ENDBRANCH   4   5
ENDBRANCH   2   3
TORSDOF 12
ENDMDL
MODEL      262
REMARK 921   NORMALIZED FREE ENERGY PREDICTED BY IDOCK:   -3.54 KCAL/MOL
REMARK 922        TOTAL FREE ENERGY PREDICTED BY IDOCK:   -7.86 KCAL/MOL
REMARK 923 INTER-LIGAND FREE ENERGY PREDICTED BY IDOCK:   -6.53 KCAL/MOL
REMARK 924 INTRA-LIGAND FREE ENERGY PREDICTED BY IDOCK:   -1.34 KCAL/MOL
REMARK 927      BINDING AFFINITY PREDICTED BY RF-SCORE:    0.00 PKD
ROOT
HETATM    1  C   UNL     1     -11.026   5.865  68.294  1.00  0.00    -0.262 C  
HETATM    2  C   UNL     1     -11.378   6.368  69.685  1.00  0.00    -0.479 C  
ENDROOT
BRANCH   2   3
HETATM    3  C   UNL     1     -10.568   5.681  70.748  1.00  0.00    -0.335 C  
HETATM    4  C   UNL     1      -9.395   6.114  71.241  1.00  0.00    -0.170 C  
BRANCH   4   5
HETATM    5  C   UNL     1      -8.682   7.352  70.774  1.00  0.00    -0.145 C  
BRANCH   5   6
HETATM    6  C   UNL     1      -9.326   8.611  71.280  1.00  0.00    -0.288 C  
HETATM    7  C   UNL     1      -9.546   9.717  70.547  1.00  0.00    -0.261 C  
BRANCH   7   8
HETATM    8  C   UNL     1      -9.132   9.863  69.111  1.00  0.00    -0.175 C  
BRANCH   8   9
HETATM    9  C   UNL     1     -10.232   9.494  68.159  1.00  0.00    -0.231 C  
HETATM   10  C   UNL     1     -11.060  10.372  67.565  1.00  0.00    -0.336 C  
BRANCH  10  11
HETATM   11  C   UNL     1     -10.941  11.861  67.726  1.00  0.00    -0.278 C  
BRANCH  11  12
HETATM   12  C   UNL     1     -11.695  12.631  66.648  1.00  0.00    -0.464 C  
BRANCH  12  13
HETATM   13  C   UNL     1     -10.936  12.568  65.322  1.00  0.00    -0.329 C  
BRANCH  13  14
HETATM   14  C   UNL     1     -10.766  13.962  64.727  1.00  0.00    -0.437 C  
BRANCH  14  15
HETATM   15  C   UNL     1     -11.060  15.051  65.758  1.00  0.00    -0.346 C  
BRANCH  15  16
HETATM   16  C   UNL     1     -10.045  16.186  65.640  1.00  0.00    -0.366 C  
BRANCH  16  17
HETATM   17  C   UNL     1     -10.142  17.155  66.814  1.00  0.00    -0.303 C  
HETATM   18  C   UNL     1     -10.553  18.539  66.362  1.00  0.00    -0.325 C  
HETATM   19  O   UNL     1     -10.792  18.868  65.211  1.00  0.00    -0.559 OA 
HETATM   20  O   UNL     1     -10.635  19.412  67.394  1.00  0.00    -0.437 OA 
ENDBRANCH  16  17
ENDBRANCH  15  16
ENDBRANCH  14  15
ENDBRANCH  13  14
ENDBRANCH  12  13
ENDBRANCH  11  12
ENDBRANCH  10  11
ENDBRANCH   8   9
ENDBRANCH   7   8
ENDBRANCH   5   6
ENDBRANCH   4   5
ENDBRANCH   2   3
TORSDOF 12
ENDMDL
MODEL      263
REMARK 921   NORMALIZED FREE ENERGY PREDICTED BY IDOCK:   -3.53 KCAL/MOL
REMARK 922        TOTAL FREE ENERGY PREDICTED BY IDOCK:   -7.85 KCAL/MOL
REMARK 923 INTER-LIGAND FREE ENERGY PREDICTED BY IDOCK:   -6.21 KCAL/MOL
REMARK 924 INTRA-LIGAND FREE ENERGY PREDICTED BY IDOCK:   -1.64 KCAL/MOL
REMARK 927      BINDING AFFINITY PREDICTED BY RF-SCORE:    0.00 PKD
ROOT
HETATM    1  C   UNL     1     -10.555  12.904  64.295  1.00  0.00    -0.430 C  
HETATM    2  C   UNL     1     -10.955  11.484  64.664  1.00  0.00    -0.353 C  
ENDROOT
BRANCH   2   3
HETATM    3  C   UNL     1      -9.823  10.517  64.468  1.00  0.00    -0.401 C  
HETATM    4  C   UNL     1      -9.441   9.571  65.342  1.00  0.00    -0.336 C  
BRANCH   4   5
HETATM    5  C   UNL     1     -10.072   9.352  66.687  1.00  0.00    -0.332 C  
BRANCH   5   6
HETATM    6  C   UNL     1      -9.500  10.254  67.743  1.00  0.00    -0.163 C  
HETATM    7  C   UNL     1     -10.215  10.892  68.686  1.00  0.00    -0.201 C  
BRANCH   7   8
HETATM    8  C   UNL     1     -11.712  10.824  68.788  1.00  0.00    -0.315 C  
BRANCH   8   9
HETATM    9  C   UNL     1     -12.236  11.551  69.992  1.00  0.00    -0.354 C  
HETATM   10  C   UNL     1     -12.420  10.999  71.204  1.00  0.00    -0.502 C  
BRANCH  10  11
HETATM   11  C   UNL     1     -12.051   9.580  71.530  1.00  0.00    -0.468 C  
BRANCH  11  12
HETATM   12  C   UNL     1     -13.257   8.733  71.920  1.00  0.00    -0.424 C  
BRANCH  12  13
HETATM   13  C   UNL     1     -13.115   7.317  71.360  1.00  0.00    -0.412 C  
BRANCH  13  14
HETATM   14  C   UNL     1     -11.687   7.061  70.889  1.00  0.00    -0.387 C  
BRANCH  14  15
HETATM   15  C   UNL     1     -11.658   6.482  69.475  1.00  0.00    -0.298 C  
BRANCH  15  16
HETATM   16  C   UNL     1     -10.274   5.921  69.156  1.00  0.00    -0.275 C  
BRANCH  16  17
HETATM   17  C   UNL     1      -9.904   4.768  70.084  1.00  0.00    -0.308 C  
HETATM   18  C   UNL     1      -8.477   4.882  70.573  1.00  0.00    -0.097 C  
HETATM   19  O   UNL     1      -7.697   5.777  70.285  1.00  0.00    -0.090 OA 
HETATM   20  O   UNL     1      -8.133   3.861  71.391  1.00  0.00    -0.066 OA 
ENDBRANCH  16  17
ENDBRANCH  15  16
ENDBRANCH  14  15
ENDBRANCH  13  14
ENDBRANCH  12  13
ENDBRANCH  11  12
ENDBRANCH  10  11
ENDBRANCH   8   9
ENDBRANCH   7   8
ENDBRANCH   5   6
ENDBRANCH   4   5
ENDBRANCH   2   3
TORSDOF 12
ENDMDL
MODEL      264
REMARK 921   NORMALIZED FREE ENERGY PREDICTED BY IDOCK:   -3.52 KCAL/MOL
REMARK 922        TOTAL FREE ENERGY PREDICTED BY IDOCK:   -7.84 KCAL/MOL
REMARK 923 INTER-LIGAND FREE ENERGY PREDICTED BY IDOCK:   -6.89 KCAL/MOL
REMARK 924 INTRA-LIGAND FREE ENERGY PREDICTED BY IDOCK:   -0.94 KCAL/MOL
REMARK 927      BINDING AFFINITY PREDICTED BY RF-SCORE:    0.00 PKD
ROOT
HETATM    1  C   UNL     1     -12.475   6.662  71.821  1.00  0.00    -0.360 C  
HETATM    2  C   UNL     1     -10.993   6.628  71.484  1.00  0.00    -0.287 C  
ENDROOT
BRANCH   2   3
HETATM    3  C   UNL     1     -10.678   5.577  70.458  1.00  0.00    -0.310 C  
HETATM    4  C   UNL     1     -10.638   5.767  69.129  1.00  0.00    -0.365 C  
BRANCH   4   5
HETATM    5  C   UNL     1     -10.943   7.070  68.447  1.00  0.00    -0.137 C  
BRANCH   5   6
HETATM    6  C   UNL     1     -10.082   7.301  67.238  1.00  0.00    -0.291 C  
HETATM    7  C   UNL     1      -9.884   8.491  66.644  1.00  0.00    -0.342 C  
BRANCH   7   8
HETATM    8  C   UNL     1     -10.541   9.766  67.088  1.00  0.00    -0.298 C  
BRANCH   8   9
HETATM    9  C   UNL     1      -9.729  10.978  66.740  1.00  0.00    -0.222 C  
HETATM   10  C   UNL     1      -9.687  11.553  65.525  1.00  0.00    -0.259 C  
BRANCH  10  11
HETATM   11  C   UNL     1     -10.517  11.088  64.362  1.00  0.00    -0.422 C  
BRANCH  11  12
HETATM   12  C   UNL     1     -11.439  12.177  63.825  1.00  0.00    -0.548 C  
BRANCH  12  13
HETATM   13  C   UNL     1     -12.181  12.859  64.975  1.00  0.00    -0.515 C  
BRANCH  13  14
HETATM   14  C   UNL     1     -12.123  14.377  64.834  1.00  0.00    -0.442 C  
BRANCH  14  15
HETATM   15  C   UNL     1     -10.692  14.897  64.969  1.00  0.00    -0.451 C  
BRANCH  15  16
HETATM   16  C   UNL     1     -10.599  15.910  66.108  1.00  0.00    -0.310 C  
BRANCH  16  17
HETATM   17  C   UNL     1     -10.539  17.343  65.587  1.00  0.00    -0.158 C  
HETATM   18  C   UNL     1     -10.414  18.342  66.715  1.00  0.00    -0.385 C  
HETATM   19  O   UNL     1     -10.357  18.068  67.904  1.00  0.00    -0.356 OA 
HETATM   20  O   UNL     1     -10.368  19.618  66.267  1.00  0.00    -0.438 OA 
ENDBRANCH  16  17
ENDBRANCH  15  16
ENDBRANCH  14  15
ENDBRANCH  13  14
ENDBRANCH  12  13
ENDBRANCH  11  12
ENDBRANCH  10  11
ENDBRANCH   8   9
ENDBRANCH   7   8
ENDBRANCH   5   6
ENDBRANCH   4   5
ENDBRANCH   2   3
TORSDOF 12
ENDMDL
MODEL      265
REMARK 921   NORMALIZED FREE ENERGY PREDICTED BY IDOCK:   -3.51 KCAL/MOL
REMARK 922        TOTAL FREE ENERGY PREDICTED BY IDOCK:   -7.82 KCAL/MOL
REMARK 923 INTER-LIGAND FREE ENERGY PREDICTED BY IDOCK:   -6.48 KCAL/MOL
REMARK 924 INTRA-LIGAND FREE ENERGY PREDICTED BY IDOCK:   -1.34 KCAL/MOL
REMARK 927      BINDING AFFINITY PREDICTED BY RF-SCORE:    0.00 PKD
ROOT
HETATM    1  C   UNL     1      -9.781  20.547  67.287  1.00  0.00    -0.600 C  
HETATM    2  C   UNL     1      -8.526  19.705  67.115  1.00  0.00    -0.345 C  
ENDROOT
BRANCH   2   3
HETATM    3  C   UNL     1      -8.448  18.605  68.134  1.00  0.00    -0.336 C  
HETATM    4  C   UNL     1      -9.101  17.433  68.073  1.00  0.00    -0.259 C  
BRANCH   4   5
HETATM    5  C   UNL     1     -10.055  17.047  66.978  1.00  0.00    -0.295 C  
BRANCH   5   6
HETATM    6  C   UNL     1      -9.467  16.039  66.033  1.00  0.00    -0.384 C  
HETATM    7  C   UNL     1     -10.171  15.138  65.326  1.00  0.00    -0.400 C  
BRANCH   7   8
HETATM    8  C   UNL     1     -11.662  14.985  65.416  1.00  0.00    -0.170 C  
BRANCH   8   9
HETATM    9  C   UNL     1     -12.067  13.659  65.990  1.00  0.00    -0.480 C  
HETATM   10  C   UNL     1     -12.246  12.534  65.275  1.00  0.00    -0.493 C  
BRANCH  10  11
HETATM   11  C   UNL     1     -11.990  12.445  63.798  1.00  0.00    -0.600 C  
BRANCH  11  12
HETATM   12  C   UNL     1     -10.737  11.642  63.465  1.00  0.00    -0.495 C  
BRANCH  12  13
HETATM   13  C   UNL     1     -10.363  10.733  64.637  1.00  0.00    -0.394 C  
BRANCH  13  14
HETATM   14  C   UNL     1      -8.894  10.904  65.009  1.00  0.00    -0.151 C  
BRANCH  14  15
HETATM   15  C   UNL     1      -8.572  10.233  66.344  1.00  0.00    -0.138 C  
BRANCH  15  16
HETATM   16  C   UNL     1      -9.851   9.732  67.011  1.00  0.00    -0.245 C  
BRANCH  16  17
HETATM   17  C   UNL     1      -9.623   8.420  67.756  1.00  0.00    -0.185 C  
HETATM   18  C   UNL     1      -9.440   8.647  69.240  1.00  0.00    -0.158 C  
HETATM   19  O   UNL     1      -9.474   9.730  69.803  1.00  0.00    -0.201 OA 
HETATM   20  O   UNL     1      -9.228   7.492  69.913  1.00  0.00    -0.148 OA 
ENDBRANCH  16  17
ENDBRANCH  15  16
ENDBRANCH  14  15
ENDBRANCH  13  14
ENDBRANCH  12  13
ENDBRANCH  11  12
ENDBRANCH  10  11
ENDBRANCH   8   9
ENDBRANCH   7   8
ENDBRANCH   5   6
ENDBRANCH   4   5
ENDBRANCH   2   3
TORSDOF 12
ENDMDL
MODEL      266
REMARK 921   NORMALIZED FREE ENERGY PREDICTED BY IDOCK:   -3.51 KCAL/MOL
REMARK 922        TOTAL FREE ENERGY PREDICTED BY IDOCK:   -7.82 KCAL/MOL
REMARK 923 INTER-LIGAND FREE ENERGY PREDICTED BY IDOCK:   -5.17 KCAL/MOL
REMARK 924 INTRA-LIGAND FREE ENERGY PREDICTED BY IDOCK:   -2.65 KCAL/MOL
REMARK 927      BINDING AFFINITY PREDICTED BY RF-SCORE:    0.00 PKD
ROOT
HETATM    1  C   UNL     1     -12.499  13.948  65.513  1.00  0.00    -0.541 C  
HETATM    2  C   UNL     1     -11.412  13.923  66.576  1.00  0.00    -0.361 C  
ENDROOT
BRANCH   2   3
HETATM    3  C   UNL     1     -11.703  12.911  67.648  1.00  0.00    -0.422 C  
HETATM    4  C   UNL     1     -12.021  13.191  68.923  1.00  0.00    -0.317 C  
BRANCH   4   5
HETATM    5  C   UNL     1     -12.101  14.578  69.494  1.00  0.00    -0.348 C  
BRANCH   5   6
HETATM    6  C   UNL     1     -10.788  15.045  70.053  1.00  0.00    -0.243 C  
HETATM    7  C   UNL     1      -9.973  15.942  69.470  1.00  0.00    -0.274 C  
BRANCH   7   8
HETATM    8  C   UNL     1     -10.247  16.577  68.137  1.00  0.00    -0.271 C  
BRANCH   8   9
HETATM    9  C   UNL     1      -9.013  17.168  67.521  1.00  0.00    -0.221 C  
HETATM   10  C   UNL     1      -7.953  16.460  67.091  1.00  0.00    -0.215 C  
BRANCH  10  11
HETATM   11  C   UNL     1      -7.900  14.958  67.110  1.00  0.00    -0.203 C  
BRANCH  11  12
HETATM   12  C   UNL     1      -6.591  14.423  67.680  1.00  0.00    -0.172 C  
BRANCH  12  13
HETATM   13  C   UNL     1      -6.856  13.198  68.556  1.00  0.00    -0.099 C  
BRANCH  13  14
HETATM   14  C   UNL     1      -8.295  12.719  68.398  1.00  0.00    -0.119 C  
BRANCH  14  15
HETATM   15  C   UNL     1      -8.377  11.193  68.369  1.00  0.00    -0.149 C  
BRANCH  15  16
HETATM   16  C   UNL     1      -7.988  10.664  66.990  1.00  0.00    -0.121 C  
BRANCH  16  17
HETATM   17  C   UNL     1      -8.804  11.321  65.881  1.00  0.00    -0.174 C  
HETATM   18  C   UNL     1      -9.915  10.417  65.396  1.00  0.00    -0.295 C  
HETATM   19  O   UNL     1     -10.158   9.299  65.823  1.00  0.00    -0.268 OA 
HETATM   20  O   UNL     1     -10.642  10.985  64.406  1.00  0.00    -0.352 OA 
ENDBRANCH  16  17
ENDBRANCH  15  16
ENDBRANCH  14  15
ENDBRANCH  13  14
ENDBRANCH  12  13
ENDBRANCH  11  12
ENDBRANCH  10  11
ENDBRANCH   8   9
ENDBRANCH   7   8
ENDBRANCH   5   6
ENDBRANCH   4   5
ENDBRANCH   2   3
TORSDOF 12
ENDMDL
MODEL      267
REMARK 921   NORMALIZED FREE ENERGY PREDICTED BY IDOCK:   -3.51 KCAL/MOL
REMARK 922        TOTAL FREE ENERGY PREDICTED BY IDOCK:   -7.81 KCAL/MOL
REMARK 923 INTER-LIGAND FREE ENERGY PREDICTED BY IDOCK:   -6.56 KCAL/MOL
REMARK 924 INTRA-LIGAND FREE ENERGY PREDICTED BY IDOCK:   -1.25 KCAL/MOL
REMARK 927      BINDING AFFINITY PREDICTED BY RF-SCORE:    0.00 PKD
ROOT
HETATM    1  C   UNL     1      -6.769   5.328  69.392  1.00  0.00    -0.052 C  
HETATM    2  C   UNL     1      -7.123   4.441  70.574  1.00  0.00    -0.041 C  
ENDROOT
BRANCH   2   3
HETATM    3  C   UNL     1      -7.807   5.213  71.667  1.00  0.00    -0.109 C  
HETATM    4  C   UNL     1      -9.134   5.299  71.853  1.00  0.00    -0.153 C  
BRANCH   4   5
HETATM    5  C   UNL     1     -10.160   4.656  70.963  1.00  0.00    -0.246 C  
BRANCH   5   6
HETATM    6  C   UNL     1     -10.594   5.557  69.842  1.00  0.00    -0.387 C  
HETATM    7  C   UNL     1     -11.510   6.536  69.945  1.00  0.00    -0.467 C  
BRANCH   7   8
HETATM    8  C   UNL     1     -12.268   6.840  71.205  1.00  0.00    -0.415 C  
BRANCH   8   9
HETATM    9  C   UNL     1     -11.557   7.836  72.074  1.00  0.00    -0.347 C  
HETATM   10  C   UNL     1     -11.814   9.156  72.099  1.00  0.00    -0.333 C  
BRANCH  10  11
HETATM   11  C   UNL     1     -12.911   9.800  71.299  1.00  0.00    -0.470 C  
BRANCH  11  12
HETATM   12  C   UNL     1     -12.434  11.025  70.526  1.00  0.00    -0.432 C  
BRANCH  12  13
HETATM   13  C   UNL     1     -11.337  10.633  69.536  1.00  0.00    -0.342 C  
BRANCH  13  14
HETATM   14  C   UNL     1     -11.343  11.560  68.324  1.00  0.00    -0.352 C  
BRANCH  14  15
HETATM   15  C   UNL     1     -10.025  11.485  67.555  1.00  0.00    -0.207 C  
BRANCH  15  16
HETATM   16  C   UNL     1     -10.120  12.281  66.255  1.00  0.00    -0.253 C  
BRANCH  16  17
HETATM   17  C   UNL     1     -11.567  12.456  65.804  1.00  0.00    -0.449 C  
HETATM   18  C   UNL     1     -11.941  13.916  65.686  1.00  0.00    -0.392 C  
HETATM   19  O   UNL     1     -11.199  14.860  65.908  1.00  0.00    -0.335 OA 
HETATM   20  O   UNL     1     -13.226  14.086  65.295  1.00  0.00    -0.782 OA 
ENDBRANCH  16  17
ENDBRANCH  15  16
ENDBRANCH  14  15
ENDBRANCH  13  14
ENDBRANCH  12  13
ENDBRANCH  11  12
ENDBRANCH  10  11
ENDBRANCH   8   9
ENDBRANCH   7   8
ENDBRANCH   5   6
ENDBRANCH   4   5
ENDBRANCH   2   3
TORSDOF 12
ENDMDL
MODEL      268
REMARK 921   NORMALIZED FREE ENERGY PREDICTED BY IDOCK:   -3.48 KCAL/MOL
REMARK 922        TOTAL FREE ENERGY PREDICTED BY IDOCK:   -7.77 KCAL/MOL
REMARK 923 INTER-LIGAND FREE ENERGY PREDICTED BY IDOCK:   -5.15 KCAL/MOL
REMARK 924 INTRA-LIGAND FREE ENERGY PREDICTED BY IDOCK:   -2.62 KCAL/MOL
REMARK 927      BINDING AFFINITY PREDICTED BY RF-SCORE:    0.00 PKD
ROOT
HETATM    1  C   UNL     1     -10.281  12.066  68.092  1.00  0.00    -0.203 C  
HETATM    2  C   UNL     1     -11.012  11.387  66.946  1.00  0.00    -0.355 C  
ENDROOT
BRANCH   2   3
HETATM    3  C   UNL     1     -10.108  10.467  66.174  1.00  0.00    -0.306 C  
HETATM    4  C   UNL     1      -9.960   9.150  66.392  1.00  0.00    -0.358 C  
BRANCH   4   5
HETATM    5  C   UNL     1     -10.659   8.385  67.481  1.00  0.00    -0.285 C  
BRANCH   5   6
HETATM    6  C   UNL     1     -10.880   6.944  67.119  1.00  0.00    -0.447 C  
HETATM    7  C   UNL     1     -10.321   5.894  67.746  1.00  0.00    -0.262 C  
BRANCH   7   8
HETATM    8  C   UNL     1      -9.350   6.021  68.884  1.00  0.00    -0.131 C  
BRANCH   8   9
HETATM    9  C   UNL     1      -9.458   4.883  69.856  1.00  0.00    -0.229 C  
HETATM   10  C   UNL     1     -10.285   4.853  70.916  1.00  0.00    -0.272 C  
BRANCH  10  11
HETATM   11  C   UNL     1     -11.273   5.943  71.225  1.00  0.00    -0.280 C  
BRANCH  11  12
HETATM   12  C   UNL     1     -11.148   6.462  72.653  1.00  0.00    -0.294 C  
BRANCH  12  13
HETATM   13  C   UNL     1     -11.156   7.991  72.664  1.00  0.00    -0.453 C  
BRANCH  13  14
HETATM   14  C   UNL     1     -11.444   8.542  71.272  1.00  0.00    -0.329 C  
BRANCH  14  15
HETATM   15  C   UNL     1     -10.413   9.593  70.861  1.00  0.00    -0.359 C  
BRANCH  15  16
HETATM   16  C   UNL     1      -8.998   9.039  71.012  1.00  0.00    -0.304 C  
BRANCH  16  17
HETATM   17  C   UNL     1      -8.065   9.570  69.928  1.00  0.00    -0.163 C  
HETATM   18  C   UNL     1      -6.829   8.710  69.786  1.00  0.00    -0.042 C  
HETATM   19  O   UNL     1      -6.583   7.707  70.437  1.00  0.00    -0.038 OA 
HETATM   20  O   UNL     1      -5.987   9.175  68.834  1.00  0.00    -0.043 OA 
ENDBRANCH  16  17
ENDBRANCH  15  16
ENDBRANCH  14  15
ENDBRANCH  13  14
ENDBRANCH  12  13
ENDBRANCH  11  12
ENDBRANCH  10  11
ENDBRANCH   8   9
ENDBRANCH   7   8
ENDBRANCH   5   6
ENDBRANCH   4   5
ENDBRANCH   2   3
TORSDOF 12
ENDMDL
MODEL      269
REMARK 921   NORMALIZED FREE ENERGY PREDICTED BY IDOCK:   -3.48 KCAL/MOL
REMARK 922        TOTAL FREE ENERGY PREDICTED BY IDOCK:   -7.76 KCAL/MOL
REMARK 923 INTER-LIGAND FREE ENERGY PREDICTED BY IDOCK:   -5.61 KCAL/MOL
REMARK 924 INTRA-LIGAND FREE ENERGY PREDICTED BY IDOCK:   -2.15 KCAL/MOL
REMARK 927      BINDING AFFINITY PREDICTED BY RF-SCORE:    0.00 PKD
ROOT
HETATM    1  C   UNL     1      -8.559   9.228  68.987  1.00  0.00    -0.134 C  
HETATM    2  C   UNL     1      -9.101   9.845  67.708  1.00  0.00    -0.138 C  
ENDROOT
BRANCH   2   3
HETATM    3  C   UNL     1      -8.005  10.427  66.862  1.00  0.00    -0.114 C  
HETATM    4  C   UNL     1      -7.574  11.699  66.905  1.00  0.00    -0.138 C  
BRANCH   4   5
HETATM    5  C   UNL     1      -8.153  12.763  67.794  1.00  0.00    -0.168 C  
BRANCH   5   6
HETATM    6  C   UNL     1      -7.988  14.142  67.221  1.00  0.00    -0.171 C  
HETATM    7  C   UNL     1      -8.895  14.776  66.458  1.00  0.00    -0.223 C  
BRANCH   7   8
HETATM    8  C   UNL     1     -10.200  14.167  66.030  1.00  0.00    -0.318 C  
BRANCH   8   9
HETATM    9  C   UNL     1     -11.359  14.676  66.835  1.00  0.00    -0.361 C  
HETATM   10  C   UNL     1     -12.135  13.918  67.630  1.00  0.00    -0.342 C  
BRANCH  10  11
HETATM   11  C   UNL     1     -11.891  12.455  67.871  1.00  0.00    -0.370 C  
BRANCH  11  12
HETATM   12  C   UNL     1     -11.470  12.158  69.306  1.00  0.00    -0.363 C  
BRANCH  12  13
HETATM   13  C   UNL     1     -12.380  12.895  70.289  1.00  0.00    -0.294 C  
BRANCH  13  14
HETATM   14  C   UNL     1     -12.904  11.945  71.361  1.00  0.00    -0.411 C  
BRANCH  14  15
HETATM   15  C   UNL     1     -12.900  10.496  70.876  1.00  0.00    -0.485 C  
BRANCH  15  16
HETATM   16  C   UNL     1     -12.372   9.568  71.969  1.00  0.00    -0.404 C  
BRANCH  16  17
HETATM   17  C   UNL     1     -10.875   9.316  71.822  1.00  0.00    -0.358 C  
HETATM   18  C   UNL     1     -10.425   8.135  72.652  1.00  0.00    -0.330 C  
HETATM   19  O   UNL     1     -11.146   7.446  73.356  1.00  0.00    -0.340 OA 
HETATM   20  O   UNL     1      -9.096   7.905  72.538  1.00  0.00    -0.151 OA 
ENDBRANCH  16  17
ENDBRANCH  15  16
ENDBRANCH  14  15
ENDBRANCH  13  14
ENDBRANCH  12  13
ENDBRANCH  11  12
ENDBRANCH  10  11
ENDBRANCH   8   9
ENDBRANCH   7   8
ENDBRANCH   5   6
ENDBRANCH   4   5
ENDBRANCH   2   3
TORSDOF 12
ENDMDL
MODEL      270
REMARK 921   NORMALIZED FREE ENERGY PREDICTED BY IDOCK:   -3.48 KCAL/MOL
REMARK 922        TOTAL FREE ENERGY PREDICTED BY IDOCK:   -7.76 KCAL/MOL
REMARK 923 INTER-LIGAND FREE ENERGY PREDICTED BY IDOCK:   -6.45 KCAL/MOL
REMARK 924 INTRA-LIGAND FREE ENERGY PREDICTED BY IDOCK:   -1.31 KCAL/MOL
REMARK 927      BINDING AFFINITY PREDICTED BY RF-SCORE:    0.00 PKD
ROOT
HETATM    1  C   UNL     1     -12.690   9.641  71.867  1.00  0.00    -0.499 C  
HETATM    2  C   UNL     1     -11.877   8.440  71.413  1.00  0.00    -0.339 C  
ENDROOT
BRANCH   2   3
HETATM    3  C   UNL     1     -12.317   7.177  72.099  1.00  0.00    -0.228 C  
HETATM    4  C   UNL     1     -11.552   6.093  72.310  1.00  0.00    -0.362 C  
BRANCH   4   5
HETATM    5  C   UNL     1     -10.126   5.958  71.857  1.00  0.00    -0.222 C  
BRANCH   5   6
HETATM    6  C   UNL     1      -9.923   4.781  70.945  1.00  0.00    -0.283 C  
HETATM    7  C   UNL     1      -9.563   4.857  69.652  1.00  0.00    -0.243 C  
BRANCH   7   8
HETATM    8  C   UNL     1      -9.353   6.150  68.918  1.00  0.00    -0.126 C  
BRANCH   8   9
HETATM    9  C   UNL     1     -10.639   6.737  68.416  1.00  0.00    -0.270 C  
HETATM   10  C   UNL     1     -10.748   7.914  67.774  1.00  0.00    -0.189 C  
BRANCH  10  11
HETATM   11  C   UNL     1      -9.568   8.769  67.410  1.00  0.00    -0.206 C  
BRANCH  11  12
HETATM   12  C   UNL     1      -9.959   9.993  66.588  1.00  0.00    -0.274 C  
BRANCH  12  13
HETATM   13  C   UNL     1      -8.985  10.184  65.425  1.00  0.00    -0.208 C  
BRANCH  13  14
HETATM   14  C   UNL     1      -9.738  10.424  64.120  1.00  0.00    -0.387 C  
BRANCH  14  15
HETATM   15  C   UNL     1      -9.631  11.881  63.672  1.00  0.00    -0.174 C  
BRANCH  15  16
HETATM   16  C   UNL     1     -11.001  12.414  63.260  1.00  0.00    -0.325 C  
BRANCH  16  17
HETATM   17  C   UNL     1     -11.948  12.521  64.451  1.00  0.00    -0.476 C  
HETATM   18  C   UNL     1     -12.531  13.911  64.577  1.00  0.00    -0.297 C  
HETATM   19  O   UNL     1     -12.299  14.848  63.830  1.00  0.00    -0.711 OA 
HETATM   20  O   UNL     1     -13.366  14.022  65.636  1.00  0.00    -0.636 OA 
ENDBRANCH  16  17
ENDBRANCH  15  16
ENDBRANCH  14  15
ENDBRANCH  13  14
ENDBRANCH  12  13
ENDBRANCH  11  12
ENDBRANCH  10  11
ENDBRANCH   8   9
ENDBRANCH   7   8
ENDBRANCH   5   6
ENDBRANCH   4   5
ENDBRANCH   2   3
TORSDOF 12
ENDMDL
MODEL      271
REMARK 921   NORMALIZED FREE ENERGY PREDICTED BY IDOCK:   -3.47 KCAL/MOL
REMARK 922        TOTAL FREE ENERGY PREDICTED BY IDOCK:   -7.75 KCAL/MOL
REMARK 923 INTER-LIGAND FREE ENERGY PREDICTED BY IDOCK:   -6.13 KCAL/MOL
REMARK 924 INTRA-LIGAND FREE ENERGY PREDICTED BY IDOCK:   -1.62 KCAL/MOL
REMARK 927      BINDING AFFINITY PREDICTED BY RF-SCORE:    0.00 PKD
ROOT
HETATM    1  C   UNL     1     -11.385   8.521  72.130  1.00  0.00    -0.442 C  
HETATM    2  C   UNL     1     -12.267   7.606  71.295  1.00  0.00    -0.339 C  
ENDROOT
BRANCH   2   3
HETATM    3  C   UNL     1     -11.543   6.354  70.887  1.00  0.00    -0.393 C  
HETATM    4  C   UNL     1     -10.890   6.169  69.728  1.00  0.00    -0.421 C  
BRANCH   4   5
HETATM    5  C   UNL     1     -10.810   7.187  68.626  1.00  0.00    -0.149 C  
BRANCH   5   6
HETATM    6  C   UNL     1      -9.652   8.129  68.797  1.00  0.00    -0.149 C  
HETATM    7  C   UNL     1      -9.721   9.468  68.693  1.00  0.00    -0.163 C  
BRANCH   7   8
HETATM    8  C   UNL     1     -10.976  10.215  68.343  1.00  0.00    -0.293 C  
BRANCH   8   9
HETATM    9  C   UNL     1     -11.481  11.049  69.484  1.00  0.00    -0.370 C  
HETATM   10  C   UNL     1     -11.696  12.376  69.430  1.00  0.00    -0.384 C  
BRANCH  10  11
HETATM   11  C   UNL     1     -11.522  13.191  68.179  1.00  0.00    -0.349 C  
BRANCH  11  12
HETATM   12  C   UNL     1     -10.072  13.594  67.937  1.00  0.00    -0.244 C  
BRANCH  12  13
HETATM   13  C   UNL     1      -9.896  14.108  66.508  1.00  0.00    -0.298 C  
BRANCH  13  14
HETATM   14  C   UNL     1     -10.931  15.181  66.187  1.00  0.00    -0.331 C  
BRANCH  14  15
HETATM   15  C   UNL     1     -10.283  16.557  66.032  1.00  0.00    -0.372 C  
BRANCH  15  16
HETATM   16  C   UNL     1     -10.475  17.383  67.301  1.00  0.00    -0.321 C  
BRANCH  16  17
HETATM   17  C   UNL     1      -9.284  17.254  68.245  1.00  0.00    -0.265 C  
HETATM   18  C   UNL     1      -8.326  18.414  68.095  1.00  0.00    -0.284 C  
HETATM   19  O   UNL     1      -8.464  19.355  67.329  1.00  0.00    -0.283 OA 
HETATM   20  O   UNL     1      -7.259  18.308  68.921  1.00  0.00    -0.283 OA 
ENDBRANCH  16  17
ENDBRANCH  15  16
ENDBRANCH  14  15
ENDBRANCH  13  14
ENDBRANCH  12  13
ENDBRANCH  11  12
ENDBRANCH  10  11
ENDBRANCH   8   9
ENDBRANCH   7   8
ENDBRANCH   5   6
ENDBRANCH   4   5
ENDBRANCH   2   3
TORSDOF 12
ENDMDL
MODEL      272
REMARK 921   NORMALIZED FREE ENERGY PREDICTED BY IDOCK:   -3.47 KCAL/MOL
REMARK 922        TOTAL FREE ENERGY PREDICTED BY IDOCK:   -7.75 KCAL/MOL
REMARK 923 INTER-LIGAND FREE ENERGY PREDICTED BY IDOCK:   -6.22 KCAL/MOL
REMARK 924 INTRA-LIGAND FREE ENERGY PREDICTED BY IDOCK:   -1.53 KCAL/MOL
REMARK 927      BINDING AFFINITY PREDICTED BY RF-SCORE:    0.00 PKD
ROOT
HETATM    1  C   UNL     1      -7.794   8.110  67.105  1.00  0.00    -0.101 C  
HETATM    2  C   UNL     1      -7.314   9.107  66.061  1.00  0.00    -0.094 C  
ENDROOT
BRANCH   2   3
HETATM    3  C   UNL     1      -7.674  10.518  66.431  1.00  0.00    -0.135 C  
HETATM    4  C   UNL     1      -8.821  11.142  66.116  1.00  0.00    -0.195 C  
BRANCH   4   5
HETATM    5  C   UNL     1      -9.925  10.530  65.302  1.00  0.00    -0.364 C  
BRANCH   5   6
HETATM    6  C   UNL     1      -9.820  10.872  63.843  1.00  0.00    -0.385 C  
HETATM    7  C   UNL     1     -10.780  11.472  63.117  1.00  0.00    -0.281 C  
BRANCH   7   8
HETATM    8  C   UNL     1     -12.127  11.850  63.664  1.00  0.00    -0.580 C  
BRANCH   8   9
HETATM    9  C   UNL     1     -12.337  13.335  63.688  1.00  0.00    -0.456 C  
HETATM   10  C   UNL     1     -12.009  14.142  64.712  1.00  0.00    -0.441 C  
BRANCH  10  11
HETATM   11  C   UNL     1     -11.313  13.660  65.954  1.00  0.00    -0.317 C  
BRANCH  11  12
HETATM   12  C   UNL     1     -12.254  13.548  67.148  1.00  0.00    -0.328 C  
BRANCH  12  13
HETATM   13  C   UNL     1     -11.453  13.419  68.444  1.00  0.00    -0.351 C  
BRANCH  13  14
HETATM   14  C   UNL     1     -11.897  14.463  69.463  1.00  0.00    -0.376 C  
BRANCH  14  15
HETATM   15  C   UNL     1     -11.847  15.874  68.877  1.00  0.00    -0.314 C  
BRANCH  15  16
HETATM   16  C   UNL     1     -10.412  16.251  68.516  1.00  0.00    -0.278 C  
BRANCH  16  17
HETATM   17  C   UNL     1     -10.138  17.732  68.760  1.00  0.00    -0.381 C  
HETATM   18  C   UNL     1      -8.714  18.101  68.407  1.00  0.00    -0.291 C  
HETATM   19  O   UNL     1      -7.869  17.334  67.972  1.00  0.00    -0.194 OA 
HETATM   20  O   UNL     1      -8.455  19.411  68.627  1.00  0.00    -0.356 OA 
ENDBRANCH  16  17
ENDBRANCH  15  16
ENDBRANCH  14  15
ENDBRANCH  13  14
ENDBRANCH  12  13
ENDBRANCH  11  12
ENDBRANCH  10  11
ENDBRANCH   8   9
ENDBRANCH   7   8
ENDBRANCH   5   6
ENDBRANCH   4   5
ENDBRANCH   2   3
TORSDOF 12
ENDMDL
MODEL      273
REMARK 921   NORMALIZED FREE ENERGY PREDICTED BY IDOCK:   -3.46 KCAL/MOL
REMARK 922        TOTAL FREE ENERGY PREDICTED BY IDOCK:   -7.73 KCAL/MOL
REMARK 923 INTER-LIGAND FREE ENERGY PREDICTED BY IDOCK:   -5.83 KCAL/MOL
REMARK 924 INTRA-LIGAND FREE ENERGY PREDICTED BY IDOCK:   -1.91 KCAL/MOL
REMARK 927      BINDING AFFINITY PREDICTED BY RF-SCORE:    0.00 PKD
ROOT
HETATM    1  C   UNL     1      -9.901  11.007  68.774  1.00  0.00    -0.206 C  
HETATM    2  C   UNL     1     -10.793  10.401  67.703  1.00  0.00    -0.361 C  
ENDROOT
BRANCH   2   3
HETATM    3  C   UNL     1     -10.471   8.953  67.462  1.00  0.00    -0.337 C  
HETATM    4  C   UNL     1      -9.455   8.491  66.716  1.00  0.00    -0.253 C  
BRANCH   4   5
HETATM    5  C   UNL     1      -8.488   9.361  65.964  1.00  0.00    -0.132 C  
BRANCH   5   6
HETATM    6  C   UNL     1      -8.636   9.232  64.475  1.00  0.00    -0.217 C  
HETATM    7  C   UNL     1      -9.505   9.928  63.721  1.00  0.00    -0.181 C  
BRANCH   7   8
HETATM    8  C   UNL     1     -10.492  10.914  64.277  1.00  0.00    -0.405 C  
BRANCH   8   9
HETATM    9  C   UNL     1     -11.127  11.752  63.207  1.00  0.00    -0.370 C  
HETATM   10  C   UNL     1     -12.227  12.509  63.374  1.00  0.00    -0.613 C  
BRANCH  10  11
HETATM   11  C   UNL     1     -12.927  12.667  64.693  1.00  0.00    -0.225 C  
BRANCH  11  12
HETATM   12  C   UNL     1     -12.581  13.980  65.389  1.00  0.00    -0.529 C  
BRANCH  12  13
HETATM   13  C   UNL     1     -11.570  13.735  66.509  1.00  0.00    -0.386 C  
BRANCH  13  14
HETATM   14  C   UNL     1     -10.142  13.883  65.993  1.00  0.00    -0.324 C  
BRANCH  14  15
HETATM   15  C   UNL     1      -9.713  15.350  65.946  1.00  0.00    -0.392 C  
BRANCH  15  16
HETATM   16  C   UNL     1      -8.492  15.577  66.836  1.00  0.00    -0.289 C  
BRANCH  16  17
HETATM   17  C   UNL     1      -7.847  14.260  67.257  1.00  0.00    -0.170 C  
HETATM   18  C   UNL     1      -7.559  14.231  68.742  1.00  0.00    -0.130 C  
HETATM   19  O   UNL     1      -7.806  15.130  69.531  1.00  0.00    -0.210 OA 
HETATM   20  O   UNL     1      -6.978  13.072  69.129  1.00  0.00    -0.094 OA 
ENDBRANCH  16  17
ENDBRANCH  15  16
ENDBRANCH  14  15
ENDBRANCH  13  14
ENDBRANCH  12  13
ENDBRANCH  11  12
ENDBRANCH  10  11
ENDBRANCH   8   9
ENDBRANCH   7   8
ENDBRANCH   5   6
ENDBRANCH   4   5
ENDBRANCH   2   3
TORSDOF 12
ENDMDL
MODEL      274
REMARK 921   NORMALIZED FREE ENERGY PREDICTED BY IDOCK:   -3.45 KCAL/MOL
REMARK 922        TOTAL FREE ENERGY PREDICTED BY IDOCK:   -7.72 KCAL/MOL
REMARK 923 INTER-LIGAND FREE ENERGY PREDICTED BY IDOCK:   -5.83 KCAL/MOL
REMARK 924 INTRA-LIGAND FREE ENERGY PREDICTED BY IDOCK:   -1.89 KCAL/MOL
REMARK 927      BINDING AFFINITY PREDICTED BY RF-SCORE:    0.00 PKD
ROOT
HETATM    1  C   UNL     1     -13.013  10.650  71.437  1.00  0.00    -0.545 C  
HETATM    2  C   UNL     1     -11.928   9.599  71.262  1.00  0.00    -0.462 C  
ENDROOT
BRANCH   2   3
HETATM    3  C   UNL     1     -11.994   8.546  72.331  1.00  0.00    -0.434 C  
HETATM    4  C   UNL     1     -11.093   7.569  72.524  1.00  0.00    -0.371 C  
BRANCH   4   5
HETATM    5  C   UNL     1      -9.879   7.350  71.667  1.00  0.00    -0.181 C  
BRANCH   5   6
HETATM    6  C   UNL     1      -9.822   5.963  71.094  1.00  0.00    -0.222 C  
HETATM    7  C   UNL     1     -10.487   5.550  70.000  1.00  0.00    -0.373 C  
BRANCH   7   8
HETATM    8  C   UNL     1     -11.426   6.420  69.215  1.00  0.00    -0.318 C  
BRANCH   8   9
HETATM    9  C   UNL     1     -11.096   6.440  67.751  1.00  0.00    -0.376 C  
HETATM   10  C   UNL     1     -10.530   7.474  67.104  1.00  0.00    -0.407 C  
BRANCH  10  11
HETATM   11  C   UNL     1     -10.084   8.734  67.791  1.00  0.00    -0.261 C  
BRANCH  11  12
HETATM   12  C   UNL     1      -8.659   8.639  68.327  1.00  0.00    -0.138 C  
BRANCH  12  13
HETATM   13  C   UNL     1      -8.047  10.034  68.455  1.00  0.00    -0.103 C  
BRANCH  13  14
HETATM   14  C   UNL     1      -9.085  11.040  68.944  1.00  0.00    -0.132 C  
BRANCH  14  15
HETATM   15  C   UNL     1      -8.869  12.417  68.317  1.00  0.00    -0.174 C  
BRANCH  15  16
HETATM   16  C   UNL     1     -10.198  13.002  67.846  1.00  0.00    -0.234 C  
BRANCH  16  17
HETATM   17  C   UNL     1     -10.187  14.527  67.879  1.00  0.00    -0.231 C  
HETATM   18  C   UNL     1     -11.137  15.069  68.924  1.00  0.00    -0.266 C  
HETATM   19  O   UNL     1     -11.833  14.396  69.667  1.00  0.00    -0.282 OA 
HETATM   20  O   UNL     1     -11.144  16.422  68.959  1.00  0.00    -0.318 OA 
ENDBRANCH  16  17
ENDBRANCH  15  16
ENDBRANCH  14  15
ENDBRANCH  13  14
ENDBRANCH  12  13
ENDBRANCH  11  12
ENDBRANCH  10  11
ENDBRANCH   8   9
ENDBRANCH   7   8
ENDBRANCH   5   6
ENDBRANCH   4   5
ENDBRANCH   2   3
TORSDOF 12
ENDMDL
MODEL      275
REMARK 921   NORMALIZED FREE ENERGY PREDICTED BY IDOCK:   -3.45 KCAL/MOL
REMARK 922        TOTAL FREE ENERGY PREDICTED BY IDOCK:   -7.71 KCAL/MOL
REMARK 923 INTER-LIGAND FREE ENERGY PREDICTED BY IDOCK:   -5.67 KCAL/MOL
REMARK 924 INTRA-LIGAND FREE ENERGY PREDICTED BY IDOCK:   -2.04 KCAL/MOL
REMARK 927      BINDING AFFINITY PREDICTED BY RF-SCORE:    0.00 PKD
ROOT
HETATM    1  C   UNL     1     -10.568  10.482  67.501  1.00  0.00    -0.306 C  
HETATM    2  C   UNL     1     -10.396  11.554  66.436  1.00  0.00    -0.277 C  
ENDROOT
BRANCH   2   3
HETATM    3  C   UNL     1     -11.718  12.005  65.881  1.00  0.00    -0.312 C  
HETATM    4  C   UNL     1     -11.959  13.192  65.300  1.00  0.00    -0.437 C  
BRANCH   4   5
HETATM    5  C   UNL     1     -10.940  14.285  65.144  1.00  0.00    -0.369 C  
BRANCH   5   6
HETATM    6  C   UNL     1     -11.528  15.542  64.569  1.00  0.00    -0.311 C  
HETATM    7  C   UNL     1     -11.154  16.791  64.896  1.00  0.00    -0.061 C  
BRANCH   7   8
HETATM    8  C   UNL     1     -10.110  17.108  65.927  1.00  0.00    -0.257 C  
BRANCH   8   9
HETATM    9  C   UNL     1     -10.511  18.250  66.814  1.00  0.00    -0.387 C  
HETATM   10  C   UNL     1      -9.759  19.341  67.050  1.00  0.00    -0.406 C  
BRANCH  10  11
HETATM   11  C   UNL     1      -8.433  19.590  66.389  1.00  0.00    -0.373 C  
BRANCH  11  12
HETATM   12  C   UNL     1      -7.309  18.757  66.995  1.00  0.00    -0.224 C  
BRANCH  12  13
HETATM   13  C   UNL     1      -7.223  19.000  68.503  1.00  0.00    -0.334 C  
BRANCH  13  14
HETATM   14  C   UNL     1      -7.163  17.679  69.262  1.00  0.00    -0.079 C  
BRANCH  14  15
HETATM   15  C   UNL     1      -7.539  16.499  68.365  1.00  0.00    -0.189 C  
BRANCH  15  16
HETATM   16  C   UNL     1      -8.170  15.381  69.192  1.00  0.00    -0.243 C  
BRANCH  16  17
HETATM   17  C   UNL     1      -9.413  14.812  68.516  1.00  0.00    -0.214 C  
HETATM   18  C   UNL     1     -10.682  15.361  69.130  1.00  0.00    -0.246 C  
HETATM   19  O   UNL     1     -10.736  16.166  70.046  1.00  0.00    -0.320 OA 
HETATM   20  O   UNL     1     -11.794  14.858  68.545  1.00  0.00    -0.326 OA 
ENDBRANCH  16  17
ENDBRANCH  15  16
ENDBRANCH  14  15
ENDBRANCH  13  14
ENDBRANCH  12  13
ENDBRANCH  11  12
ENDBRANCH  10  11
ENDBRANCH   8   9
ENDBRANCH   7   8
ENDBRANCH   5   6
ENDBRANCH   4   5
ENDBRANCH   2   3
TORSDOF 12
ENDMDL
MODEL      276
REMARK 921   NORMALIZED FREE ENERGY PREDICTED BY IDOCK:   -3.44 KCAL/MOL
REMARK 922        TOTAL FREE ENERGY PREDICTED BY IDOCK:   -7.70 KCAL/MOL
REMARK 923 INTER-LIGAND FREE ENERGY PREDICTED BY IDOCK:   -5.71 KCAL/MOL
REMARK 924 INTRA-LIGAND FREE ENERGY PREDICTED BY IDOCK:   -1.99 KCAL/MOL
REMARK 927      BINDING AFFINITY PREDICTED BY RF-SCORE:    0.00 PKD
ROOT
HETATM    1  C   UNL     1      -5.406  10.706  65.230  1.00  0.00    -0.145 C  
HETATM    2  C   UNL     1      -5.339  11.397  66.582  1.00  0.00    -0.132 C  
ENDROOT
BRANCH   2   3
HETATM    3  C   UNL     1      -6.473  10.983  67.477  1.00  0.00    -0.063 C  
HETATM    4  C   UNL     1      -7.177  11.799  68.278  1.00  0.00    -0.084 C  
BRANCH   4   5
HETATM    5  C   UNL     1      -6.914  13.270  68.435  1.00  0.00    -0.105 C  
BRANCH   5   6
HETATM    6  C   UNL     1      -7.627  14.094  67.402  1.00  0.00    -0.179 C  
HETATM    7  C   UNL     1      -8.883  14.562  67.516  1.00  0.00    -0.193 C  
BRANCH   7   8
HETATM    8  C   UNL     1      -9.774  14.284  68.692  1.00  0.00    -0.213 C  
BRANCH   8   9
HETATM    9  C   UNL     1     -11.216  14.152  68.298  1.00  0.00    -0.295 C  
HETATM   10  C   UNL     1     -11.953  13.036  68.439  1.00  0.00    -0.309 C  
BRANCH  10  11
HETATM   11  C   UNL     1     -11.437  11.781  69.084  1.00  0.00    -0.358 C  
BRANCH  11  12
HETATM   12  C   UNL     1     -11.215  10.653  68.082  1.00  0.00    -0.366 C  
BRANCH  12  13
HETATM   13  C   UNL     1     -10.220  11.088  67.006  1.00  0.00    -0.250 C  
BRANCH  13  14
HETATM   14  C   UNL     1     -10.512  10.387  65.683  1.00  0.00    -0.185 C  
BRANCH  14  15
HETATM   15  C   UNL     1      -9.830  11.094  64.512  1.00  0.00    -0.330 C  
BRANCH  15  16
HETATM   16  C   UNL     1     -10.864  11.528  63.475  1.00  0.00    -0.473 C  
BRANCH  16  17
HETATM   17  C   UNL     1     -12.117  12.099  64.132  1.00  0.00    -0.501 C  
HETATM   18  C   UNL     1     -11.904  13.523  64.595  1.00  0.00    -0.394 C  
HETATM   19  O   UNL     1     -10.874  14.164  64.468  1.00  0.00    -0.394 OA 
HETATM   20  O   UNL     1     -13.006  14.039  65.188  1.00  0.00    -0.744 OA 
ENDBRANCH  16  17
ENDBRANCH  15  16
ENDBRANCH  14  15
ENDBRANCH  13  14
ENDBRANCH  12  13
ENDBRANCH  11  12
ENDBRANCH  10  11
ENDBRANCH   8   9
ENDBRANCH   7   8
ENDBRANCH   5   6
ENDBRANCH   4   5
ENDBRANCH   2   3
TORSDOF 12
ENDMDL
MODEL      277
REMARK 921   NORMALIZED FREE ENERGY PREDICTED BY IDOCK:   -3.43 KCAL/MOL
REMARK 922        TOTAL FREE ENERGY PREDICTED BY IDOCK:   -7.68 KCAL/MOL
REMARK 923 INTER-LIGAND FREE ENERGY PREDICTED BY IDOCK:   -5.48 KCAL/MOL
REMARK 924 INTRA-LIGAND FREE ENERGY PREDICTED BY IDOCK:   -2.20 KCAL/MOL
REMARK 927      BINDING AFFINITY PREDICTED BY RF-SCORE:    0.00 PKD
ROOT
HETATM    1  C   UNL     1      -6.189  10.484  66.280  1.00  0.00    -0.105 C  
HETATM    2  C   UNL     1      -6.445  11.785  67.024  1.00  0.00    -0.147 C  
ENDROOT
BRANCH   2   3
HETATM    3  C   UNL     1      -7.911  12.099  67.112  1.00  0.00    -0.170 C  
HETATM    4  C   UNL     1      -8.461  13.072  67.857  1.00  0.00    -0.185 C  
BRANCH   4   5
HETATM    5  C   UNL     1      -7.687  13.991  68.759  1.00  0.00    -0.112 C  
BRANCH   5   6
HETATM    6  C   UNL     1      -8.125  15.422  68.634  1.00  0.00    -0.156 C  
HETATM    7  C   UNL     1      -9.246  15.939  69.168  1.00  0.00    -0.253 C  
BRANCH   7   8
HETATM    8  C   UNL     1     -10.251  15.133  69.940  1.00  0.00    -0.178 C  
BRANCH   8   9
HETATM    9  C   UNL     1     -11.648  15.316  69.424  1.00  0.00    -0.347 C  
HETATM   10  C   UNL     1     -12.272  14.477  68.578  1.00  0.00    -0.164 C  
BRANCH  10  11
HETATM   11  C   UNL     1     -11.665  13.191  68.093  1.00  0.00    -0.391 C  
BRANCH  11  12
HETATM   12  C   UNL     1     -11.971  12.914  66.625  1.00  0.00    -0.436 C  
BRANCH  12  13
HETATM   13  C   UNL     1     -11.067  13.758  65.726  1.00  0.00    -0.290 C  
BRANCH  13  14
HETATM   14  C   UNL     1     -11.894  14.694  64.849  1.00  0.00    -0.403 C  
BRANCH  14  15
HETATM   15  C   UNL     1     -11.199  16.042  64.658  1.00  0.00    -0.340 C  
BRANCH  15  16
HETATM   16  C   UNL     1     -10.316  16.362  65.862  1.00  0.00    -0.378 C  
BRANCH  16  17
HETATM   17  C   UNL     1     -10.378  17.841  66.231  1.00  0.00    -0.358 C  
HETATM   18  C   UNL     1      -9.008  18.480  66.208  1.00  0.00    -0.207 C  
HETATM   19  O   UNL     1      -7.964  17.912  65.925  1.00  0.00    -0.523 OA 
HETATM   20  O   UNL     1      -9.047  19.791  66.542  1.00  0.00    -0.341 OA 
ENDBRANCH  16  17
ENDBRANCH  15  16
ENDBRANCH  14  15
ENDBRANCH  13  14
ENDBRANCH  12  13
ENDBRANCH  11  12
ENDBRANCH  10  11
ENDBRANCH   8   9
ENDBRANCH   7   8
ENDBRANCH   5   6
ENDBRANCH   4   5
ENDBRANCH   2   3
TORSDOF 12
ENDMDL
MODEL      278
REMARK 921   NORMALIZED FREE ENERGY PREDICTED BY IDOCK:   -3.43 KCAL/MOL
REMARK 922        TOTAL FREE ENERGY PREDICTED BY IDOCK:   -7.68 KCAL/MOL
REMARK 923 INTER-LIGAND FREE ENERGY PREDICTED BY IDOCK:   -6.11 KCAL/MOL
REMARK 924 INTRA-LIGAND FREE ENERGY PREDICTED BY IDOCK:   -1.57 KCAL/MOL
REMARK 927      BINDING AFFINITY PREDICTED BY RF-SCORE:    0.00 PKD
ROOT
HETATM    1  C   UNL     1     -12.451  10.101  70.851  1.00  0.00    -0.455 C  
HETATM    2  C   UNL     1     -12.341  11.614  70.953  1.00  0.00    -0.436 C  
ENDROOT
BRANCH   2   3
HETATM    3  C   UNL     1     -13.093  12.149  72.138  1.00  0.00    -0.380 C  
HETATM    4  C   UNL     1     -13.490  13.422  72.304  1.00  0.00    -0.683 C  
BRANCH   4   5
HETATM    5  C   UNL     1     -13.208  14.533  71.333  1.00  0.00    -0.424 C  
BRANCH   5   6
HETATM    6  C   UNL     1     -11.896  15.213  71.603  1.00  0.00    -0.449 C  
HETATM    7  C   UNL     1     -11.067  15.696  70.661  1.00  0.00    -0.382 C  
BRANCH   7   8
HETATM    8  C   UNL     1     -11.322  15.583  69.185  1.00  0.00    -0.333 C  
BRANCH   8   9
HETATM    9  C   UNL     1     -10.252  14.803  68.479  1.00  0.00    -0.232 C  
HETATM   10  C   UNL     1     -10.447  13.635  67.841  1.00  0.00    -0.249 C  
BRANCH  10  11
HETATM   11  C   UNL     1     -11.796  12.990  67.692  1.00  0.00    -0.401 C  
BRANCH  11  12
HETATM   12  C   UNL     1     -11.720  11.609  67.048  1.00  0.00    -0.176 C  
BRANCH  12  13
HETATM   13  C   UNL     1     -10.292  11.068  67.122  1.00  0.00    -0.259 C  
BRANCH  13  14
HETATM   14  C   UNL     1     -10.276   9.553  66.946  1.00  0.00    -0.317 C  
BRANCH  14  15
HETATM   15  C   UNL     1      -9.483   9.140  65.707  1.00  0.00    -0.322 C  
BRANCH  15  16
HETATM   16  C   UNL     1      -9.766  10.096  64.550  1.00  0.00    -0.361 C  
BRANCH  16  17
HETATM   17  C   UNL     1      -8.519  10.873  64.141  1.00  0.00     0.112 C  
HETATM   18  C   UNL     1      -7.849  10.257  62.933  1.00  0.00    -0.149 C  
HETATM   19  O   UNL     1      -8.238   9.266  62.334  1.00  0.00    -0.134 OA 
HETATM   20  O   UNL     1      -6.736  10.931  62.564  1.00  0.00    -0.077 OA 
ENDBRANCH  16  17
ENDBRANCH  15  16
ENDBRANCH  14  15
ENDBRANCH  13  14
ENDBRANCH  12  13
ENDBRANCH  11  12
ENDBRANCH  10  11
ENDBRANCH   8   9
ENDBRANCH   7   8
ENDBRANCH   5   6
ENDBRANCH   4   5
ENDBRANCH   2   3
TORSDOF 12
ENDMDL
MODEL      279
REMARK 921   NORMALIZED FREE ENERGY PREDICTED BY IDOCK:   -3.42 KCAL/MOL
REMARK 922        TOTAL FREE ENERGY PREDICTED BY IDOCK:   -7.67 KCAL/MOL
REMARK 923 INTER-LIGAND FREE ENERGY PREDICTED BY IDOCK:   -6.47 KCAL/MOL
REMARK 924 INTRA-LIGAND FREE ENERGY PREDICTED BY IDOCK:   -1.20 KCAL/MOL
REMARK 927      BINDING AFFINITY PREDICTED BY RF-SCORE:    0.00 PKD
ROOT
HETATM    1  C   UNL     1      -9.604   4.010  65.540  1.00  0.00    -0.189 C  
HETATM    2  C   UNL     1     -10.427   4.999  66.352  1.00  0.00    -0.349 C  
ENDROOT
BRANCH   2   3
HETATM    3  C   UNL     1      -9.556   5.913  67.165  1.00  0.00    -0.136 C  
HETATM    4  C   UNL     1      -9.858   6.410  68.376  1.00  0.00    -0.141 C  
BRANCH   4   5
HETATM    5  C   UNL     1     -11.148   6.154  69.102  1.00  0.00    -0.448 C  
BRANCH   5   6
HETATM    6  C   UNL     1     -10.939   5.867  70.562  1.00  0.00    -0.362 C  
HETATM    7  C   UNL     1     -11.639   6.421  71.567  1.00  0.00    -0.364 C  
BRANCH   7   8
HETATM    8  C   UNL     1     -12.714   7.451  71.369  1.00  0.00    -0.408 C  
BRANCH   8   9
HETATM    9  C   UNL     1     -12.398   8.746  72.058  1.00  0.00    -0.444 C  
HETATM   10  C   UNL     1     -11.808   9.804  71.474  1.00  0.00    -0.476 C  
BRANCH  10  11
HETATM   11  C   UNL     1     -11.450   9.849  70.015  1.00  0.00    -0.274 C  
BRANCH  11  12
HETATM   12  C   UNL     1     -11.992  11.090  69.314  1.00  0.00    -0.410 C  
BRANCH  12  13
HETATM   13  C   UNL     1     -10.942  11.662  68.361  1.00  0.00    -0.265 C  
BRANCH  13  14
HETATM   14  C   UNL     1     -11.605  12.302  67.145  1.00  0.00    -0.423 C  
BRANCH  14  15
HETATM   15  C   UNL     1     -10.570  12.908  66.198  1.00  0.00    -0.287 C  
BRANCH  15  16
HETATM   16  C   UNL     1      -9.590  13.789  66.971  1.00  0.00    -0.251 C  
BRANCH  16  17
HETATM   17  C   UNL     1      -9.653  15.242  66.511  1.00  0.00    -0.294 C  
HETATM   18  C   UNL     1     -10.560  16.068  67.396  1.00  0.00    -0.316 C  
HETATM   19  O   UNL     1     -11.173  15.654  68.367  1.00  0.00    -0.315 OA 
HETATM   20  O   UNL     1     -10.631  17.358  66.994  1.00  0.00    -0.316 OA 
ENDBRANCH  16  17
ENDBRANCH  15  16
ENDBRANCH  14  15
ENDBRANCH  13  14
ENDBRANCH  12  13
ENDBRANCH  11  12
ENDBRANCH  10  11
ENDBRANCH   8   9
ENDBRANCH   7   8
ENDBRANCH   5   6
ENDBRANCH   4   5
ENDBRANCH   2   3
TORSDOF 12
ENDMDL
MODEL      280
REMARK 921   NORMALIZED FREE ENERGY PREDICTED BY IDOCK:   -3.42 KCAL/MOL
REMARK 922        TOTAL FREE ENERGY PREDICTED BY IDOCK:   -7.67 KCAL/MOL
REMARK 923 INTER-LIGAND FREE ENERGY PREDICTED BY IDOCK:   -6.24 KCAL/MOL
REMARK 924 INTRA-LIGAND FREE ENERGY PREDICTED BY IDOCK:   -1.43 KCAL/MOL
REMARK 927      BINDING AFFINITY PREDICTED BY RF-SCORE:    0.00 PKD
ROOT
HETATM    1  C   UNL     1     -13.475  13.866  72.552  1.00  0.00    -0.676 C  
HETATM    2  C   UNL     1     -13.326  14.988  71.537  1.00  0.00    -0.500 C  
ENDROOT
BRANCH   2   3
HETATM    3  C   UNL     1     -11.913  15.495  71.470  1.00  0.00    -0.463 C  
HETATM    4  C   UNL     1     -11.038  15.244  70.482  1.00  0.00    -0.335 C  
BRANCH   4   5
HETATM    5  C   UNL     1     -11.326  14.375  69.291  1.00  0.00    -0.319 C  
BRANCH   5   6
HETATM    6  C   UNL     1     -11.843  15.160  68.120  1.00  0.00    -0.252 C  
HETATM    7  C   UNL     1     -11.908  14.709  66.854  1.00  0.00    -0.345 C  
BRANCH   7   8
HETATM    8  C   UNL     1     -11.425  13.354  66.424  1.00  0.00    -0.359 C  
BRANCH   8   9
HETATM    9  C   UNL     1     -12.050  12.908  65.135  1.00  0.00    -0.489 C  
HETATM   10  C   UNL     1     -11.567  11.934  64.343  1.00  0.00    -0.369 C  
BRANCH  10  11
HETATM   11  C   UNL     1     -10.360  11.109  64.690  1.00  0.00    -0.393 C  
BRANCH  11  12
HETATM   12  C   UNL     1      -9.629  10.587  63.458  1.00  0.00    -0.374 C  
BRANCH  12  13
HETATM   13  C   UNL     1      -8.758   9.386  63.827  1.00  0.00    -0.223 C  
BRANCH  13  14
HETATM   14  C   UNL     1      -9.075   8.898  65.236  1.00  0.00    -0.196 C  
BRANCH  14  15
HETATM   15  C   UNL     1      -7.805   8.732  66.070  1.00  0.00    -0.105 C  
BRANCH  15  16
HETATM   16  C   UNL     1      -7.943   9.462  67.405  1.00  0.00    -0.106 C  
BRANCH  16  17
HETATM   17  C   UNL     1      -9.385   9.460  67.903  1.00  0.00    -0.142 C  
HETATM   18  C   UNL     1      -9.776  10.802  68.482  1.00  0.00    -0.182 C  
HETATM   19  O   UNL     1      -9.053  11.783  68.551  1.00  0.00    -0.190 OA 
HETATM   20  O   UNL     1     -11.051  10.812  68.936  1.00  0.00    -0.216 OA 
ENDBRANCH  16  17
ENDBRANCH  15  16
ENDBRANCH  14  15
ENDBRANCH  13  14
ENDBRANCH  12  13
ENDBRANCH  11  12
ENDBRANCH  10  11
ENDBRANCH   8   9
ENDBRANCH   7   8
ENDBRANCH   5   6
ENDBRANCH   4   5
ENDBRANCH   2   3
TORSDOF 12
ENDMDL
MODEL      281
REMARK 921   NORMALIZED FREE ENERGY PREDICTED BY IDOCK:   -3.41 KCAL/MOL
REMARK 922        TOTAL FREE ENERGY PREDICTED BY IDOCK:   -7.65 KCAL/MOL
REMARK 923 INTER-LIGAND FREE ENERGY PREDICTED BY IDOCK:   -5.65 KCAL/MOL
REMARK 924 INTRA-LIGAND FREE ENERGY PREDICTED BY IDOCK:   -2.00 KCAL/MOL
REMARK 927      BINDING AFFINITY PREDICTED BY RF-SCORE:    0.00 PKD
ROOT
HETATM    1  C   UNL     1      -9.011   2.768  67.880  1.00  0.00    -0.200 C  
HETATM    2  C   UNL     1      -9.400   3.265  69.264  1.00  0.00    -0.233 C  
ENDROOT
BRANCH   2   3
HETATM    3  C   UNL     1      -8.752   4.581  69.587  1.00  0.00    -0.115 C  
HETATM    4  C   UNL     1      -9.175   5.456  70.515  1.00  0.00    -0.183 C  
BRANCH   4   5
HETATM    5  C   UNL     1     -10.401   5.269  71.362  1.00  0.00    -0.290 C  
BRANCH   5   6
HETATM    6  C   UNL     1     -10.524   6.314  72.434  1.00  0.00    -0.223 C  
HETATM    7  C   UNL     1     -11.436   7.301  72.452  1.00  0.00    -0.327 C  
BRANCH   7   8
HETATM    8  C   UNL     1     -12.447   7.525  71.364  1.00  0.00    -0.382 C  
BRANCH   8   9
HETATM    9  C   UNL     1     -13.586   8.393  71.812  1.00  0.00    -0.405 C  
HETATM   10  C   UNL     1     -13.550   9.736  71.876  1.00  0.00    -0.421 C  
BRANCH  10  11
HETATM   11  C   UNL     1     -12.370  10.553  71.433  1.00  0.00    -0.477 C  
BRANCH  11  12
HETATM   12  C   UNL     1     -12.649  11.349  70.162  1.00  0.00    -0.174 C  
BRANCH  12  13
HETATM   13  C   UNL     1     -11.622  11.004  69.083  1.00  0.00    -0.389 C  
BRANCH  13  14
HETATM   14  C   UNL     1     -10.393  10.341  69.696  1.00  0.00    -0.281 C  
BRANCH  14  15
HETATM   15  C   UNL     1     -10.095   8.995  69.037  1.00  0.00    -0.204 C  
BRANCH  15  16
HETATM   16  C   UNL     1     -10.638   8.968  67.610  1.00  0.00    -0.298 C  
BRANCH  16  17
HETATM   17  C   UNL     1      -9.871   7.983  66.732  1.00  0.00    -0.327 C  
HETATM   18  C   UNL     1     -10.362   6.566  66.925  1.00  0.00    -0.243 C  
HETATM   19  O   UNL     1     -11.262   6.222  67.675  1.00  0.00    -0.327 OA 
HETATM   20  O   UNL     1      -9.684   5.680  66.158  1.00  0.00    -0.154 OA 
ENDBRANCH  16  17
ENDBRANCH  15  16
ENDBRANCH  14  15
ENDBRANCH  13  14
ENDBRANCH  12  13
ENDBRANCH  11  12
ENDBRANCH  10  11
ENDBRANCH   8   9
ENDBRANCH   7   8
ENDBRANCH   5   6
ENDBRANCH   4   5
ENDBRANCH   2   3
TORSDOF 12
ENDMDL
MODEL      282
REMARK 921   NORMALIZED FREE ENERGY PREDICTED BY IDOCK:   -3.41 KCAL/MOL
REMARK 922        TOTAL FREE ENERGY PREDICTED BY IDOCK:   -7.64 KCAL/MOL
REMARK 923 INTER-LIGAND FREE ENERGY PREDICTED BY IDOCK:   -5.55 KCAL/MOL
REMARK 924 INTRA-LIGAND FREE ENERGY PREDICTED BY IDOCK:   -2.10 KCAL/MOL
REMARK 927      BINDING AFFINITY PREDICTED BY RF-SCORE:    0.00 PKD
ROOT
HETATM    1  C   UNL     1     -11.302  13.537  66.684  1.00  0.00    -0.344 C  
HETATM    2  C   UNL     1     -11.636  12.380  67.612  1.00  0.00    -0.421 C  
ENDROOT
BRANCH   2   3
HETATM    3  C   UNL     1     -11.910  12.850  69.012  1.00  0.00    -0.352 C  
HETATM    4  C   UNL     1     -11.945  12.072  70.107  1.00  0.00    -0.401 C  
BRANCH   4   5
HETATM    5  C   UNL     1     -11.747  10.583  70.097  1.00  0.00    -0.410 C  
BRANCH   5   6
HETATM    6  C   UNL     1     -12.746   9.865  70.959  1.00  0.00    -0.425 C  
HETATM    7  C   UNL     1     -12.441   9.049  71.983  1.00  0.00    -0.460 C  
BRANCH   7   8
HETATM    8  C   UNL     1     -11.036   8.703  72.385  1.00  0.00    -0.328 C  
BRANCH   8   9
HETATM    9  C   UNL     1     -10.454   7.607  71.541  1.00  0.00    -0.231 C  
HETATM   10  C   UNL     1      -9.317   7.706  70.830  1.00  0.00    -0.162 C  
BRANCH  10  11
HETATM   11  C   UNL     1      -8.435   8.922  70.846  1.00  0.00    -0.226 C  
BRANCH  11  12
HETATM   12  C   UNL     1      -8.388   9.632  69.497  1.00  0.00    -0.154 C  
BRANCH  12  13
HETATM   13  C   UNL     1      -8.638   8.636  68.365  1.00  0.00    -0.135 C  
BRANCH  13  14
HETATM   14  C   UNL     1      -9.779   9.108  67.470  1.00  0.00    -0.204 C  
BRANCH  14  15
HETATM   15  C   UNL     1     -10.751   7.971  67.155  1.00  0.00    -0.285 C  
BRANCH  15  16
HETATM   16  C   UNL     1     -10.105   6.619  67.454  1.00  0.00    -0.211 C  
BRANCH  16  17
HETATM   17  C   UNL     1     -10.714   5.503  66.610  1.00  0.00    -0.332 C  
HETATM   18  C   UNL     1      -9.662   4.783  65.796  1.00  0.00    -0.188 C  
HETATM   19  O   UNL     1      -8.468   5.035  65.798  1.00  0.00    -0.117 OA 
HETATM   20  O   UNL     1     -10.190   3.795  65.036  1.00  0.00    -0.160 OA 
ENDBRANCH  16  17
ENDBRANCH  15  16
ENDBRANCH  14  15
ENDBRANCH  13  14
ENDBRANCH  12  13
ENDBRANCH  11  12
ENDBRANCH  10  11
ENDBRANCH   8   9
ENDBRANCH   7   8
ENDBRANCH   5   6
ENDBRANCH   4   5
ENDBRANCH   2   3
TORSDOF 12
ENDMDL
MODEL      283
REMARK 921   NORMALIZED FREE ENERGY PREDICTED BY IDOCK:   -3.41 KCAL/MOL
REMARK 922        TOTAL FREE ENERGY PREDICTED BY IDOCK:   -7.64 KCAL/MOL
REMARK 923 INTER-LIGAND FREE ENERGY PREDICTED BY IDOCK:   -5.94 KCAL/MOL
REMARK 924 INTRA-LIGAND FREE ENERGY PREDICTED BY IDOCK:   -1.70 KCAL/MOL
REMARK 927      BINDING AFFINITY PREDICTED BY RF-SCORE:    0.00 PKD
ROOT
HETATM    1  C   UNL     1     -12.177  11.781  68.775  1.00  0.00    -0.024 C  
HETATM    2  C   UNL     1     -11.847  11.836  70.258  1.00  0.00    -0.382 C  
ENDROOT
BRANCH   2   3
HETATM    3  C   UNL     1     -12.730  10.924  71.061  1.00  0.00    -0.505 C  
HETATM    4  C   UNL     1     -12.345   9.779  71.649  1.00  0.00    -0.495 C  
BRANCH   4   5
HETATM    5  C   UNL     1     -10.959   9.205  71.566  1.00  0.00    -0.434 C  
BRANCH   5   6
HETATM    6  C   UNL     1     -10.939   7.838  70.944  1.00  0.00    -0.260 C  
HETATM    7  C   UNL     1     -10.258   7.502  69.835  1.00  0.00    -0.210 C  
BRANCH   7   8
HETATM    8  C   UNL     1      -9.444   8.472  69.028  1.00  0.00    -0.150 C  
BRANCH   8   9
HETATM    9  C   UNL     1      -9.421   8.124  67.569  1.00  0.00    -0.184 C  
HETATM   10  C   UNL     1      -9.541   9.011  66.564  1.00  0.00    -0.286 C  
BRANCH  10  11
HETATM   11  C   UNL     1      -9.643  10.494  66.780  1.00  0.00    -0.205 C  
BRANCH  11  12
HETATM   12  C   UNL     1      -9.481  11.289  65.489  1.00  0.00    -0.255 C  
BRANCH  12  13
HETATM   13  C   UNL     1     -10.850  11.625  64.896  1.00  0.00    -0.359 C  
BRANCH  13  14
HETATM   14  C   UNL     1     -11.384  12.933  65.471  1.00  0.00    -0.340 C  
BRANCH  14  15
HETATM   15  C   UNL     1     -10.250  13.903  65.804  1.00  0.00    -0.331 C  
BRANCH  15  16
HETATM   16  C   UNL     1     -10.810  15.196  66.393  1.00  0.00    -0.326 C  
BRANCH  16  17
HETATM   17  C   UNL     1     -11.846  14.920  67.478  1.00  0.00    -0.256 C  
HETATM   18  C   UNL     1     -11.497  15.622  68.772  1.00  0.00    -0.376 C  
HETATM   19  O   UNL     1     -10.522  16.333  68.954  1.00  0.00    -0.238 OA 
HETATM   20  O   UNL     1     -12.404  15.379  69.747  1.00  0.00    -0.324 OA 
ENDBRANCH  16  17
ENDBRANCH  15  16
ENDBRANCH  14  15
ENDBRANCH  13  14
ENDBRANCH  12  13
ENDBRANCH  11  12
ENDBRANCH  10  11
ENDBRANCH   8   9
ENDBRANCH   7   8
ENDBRANCH   5   6
ENDBRANCH   4   5
ENDBRANCH   2   3
TORSDOF 12
ENDMDL
MODEL      284
REMARK 921   NORMALIZED FREE ENERGY PREDICTED BY IDOCK:   -3.40 KCAL/MOL
REMARK 922        TOTAL FREE ENERGY PREDICTED BY IDOCK:   -7.63 KCAL/MOL
REMARK 923 INTER-LIGAND FREE ENERGY PREDICTED BY IDOCK:   -5.86 KCAL/MOL
REMARK 924 INTRA-LIGAND FREE ENERGY PREDICTED BY IDOCK:   -1.77 KCAL/MOL
REMARK 927      BINDING AFFINITY PREDICTED BY RF-SCORE:    0.00 PKD
ROOT
HETATM    1  C   UNL     1      -6.637  11.126  69.899  1.00  0.00    -0.129 C  
HETATM    2  C   UNL     1      -7.219  10.486  68.649  1.00  0.00    -0.087 C  
ENDROOT
BRANCH   2   3
HETATM    3  C   UNL     1      -7.437   9.010  68.827  1.00  0.00    -0.076 C  
HETATM    4  C   UNL     1      -8.620   8.378  68.756  1.00  0.00    -0.135 C  
BRANCH   4   5
HETATM    5  C   UNL     1      -9.936   9.063  68.518  1.00  0.00    -0.193 C  
BRANCH   5   6
HETATM    6  C   UNL     1     -10.431   8.885  67.112  1.00  0.00    -0.344 C  
HETATM    7  C   UNL     1     -10.582   9.873  66.212  1.00  0.00    -0.089 C  
BRANCH   7   8
HETATM    8  C   UNL     1     -10.313  11.320  66.509  1.00  0.00    -0.284 C  
BRANCH   8   9
HETATM    9  C   UNL     1     -11.571  12.093  66.776  1.00  0.00    -0.412 C  
HETATM   10  C   UNL     1     -11.619  13.398  67.097  1.00  0.00    -0.399 C  
BRANCH  10  11
HETATM   11  C   UNL     1     -10.403  14.278  67.162  1.00  0.00    -0.262 C  
BRANCH  11  12
HETATM   12  C   UNL     1      -9.550  14.013  68.398  1.00  0.00    -0.222 C  
BRANCH  12  13
HETATM   13  C   UNL     1      -9.200  15.330  69.092  1.00  0.00    -0.234 C  
BRANCH  13  14
HETATM   14  C   UNL     1     -10.405  16.264  69.124  1.00  0.00    -0.272 C  
BRANCH  14  15
HETATM   15  C   UNL     1     -11.220  16.086  70.405  1.00  0.00    -0.401 C  
BRANCH  15  16
HETATM   16  C   UNL     1     -12.570  15.445  70.093  1.00  0.00    -0.329 C  
BRANCH  16  17
HETATM   17  C   UNL     1     -12.747  14.116  70.821  1.00  0.00    -0.414 C  
HETATM   18  C   UNL     1     -13.545  14.280  72.095  1.00  0.00    -0.455 C  
HETATM   19  O   UNL     1     -14.010  15.330  72.512  1.00  0.00    -0.498 OA 
HETATM   20  O   UNL     1     -13.702  13.110  72.756  1.00  0.00    -0.630 OA 
ENDBRANCH  16  17
ENDBRANCH  15  16
ENDBRANCH  14  15
ENDBRANCH  13  14
ENDBRANCH  12  13
ENDBRANCH  11  12
ENDBRANCH  10  11
ENDBRANCH   8   9
ENDBRANCH   7   8
ENDBRANCH   5   6
ENDBRANCH   4   5
ENDBRANCH   2   3
TORSDOF 12
ENDMDL
MODEL      285
REMARK 921   NORMALIZED FREE ENERGY PREDICTED BY IDOCK:   -3.40 KCAL/MOL
REMARK 922        TOTAL FREE ENERGY PREDICTED BY IDOCK:   -7.63 KCAL/MOL
REMARK 923 INTER-LIGAND FREE ENERGY PREDICTED BY IDOCK:   -6.30 KCAL/MOL
REMARK 924 INTRA-LIGAND FREE ENERGY PREDICTED BY IDOCK:   -1.33 KCAL/MOL
REMARK 927      BINDING AFFINITY PREDICTED BY RF-SCORE:    0.00 PKD
ROOT
HETATM    1  C   UNL     1      -8.385   3.846  67.252  1.00  0.00    -0.099 C  
HETATM    2  C   UNL     1      -9.386   3.720  68.389  1.00  0.00    -0.226 C  
ENDROOT
BRANCH   2   3
HETATM    3  C   UNL     1      -9.082   4.675  69.508  1.00  0.00    -0.163 C  
HETATM    4  C   UNL     1      -9.843   5.719  69.876  1.00  0.00    -0.234 C  
BRANCH   4   5
HETATM    5  C   UNL     1     -11.119   6.123  69.193  1.00  0.00    -0.448 C  
BRANCH   5   6
HETATM    6  C   UNL     1     -10.899   6.545  67.768  1.00  0.00    -0.395 C  
HETATM    7  C   UNL     1     -10.530   7.777  67.374  1.00  0.00    -0.362 C  
BRANCH   7   8
HETATM    8  C   UNL     1     -10.326   8.929  68.315  1.00  0.00    -0.250 C  
BRANCH   8   9
HETATM    9  C   UNL     1     -11.044  10.168  67.866  1.00  0.00    -0.303 C  
HETATM   10  C   UNL     1     -10.474  11.190  67.204  1.00  0.00    -0.270 C  
BRANCH  10  11
HETATM   11  C   UNL     1      -9.038  11.189  66.761  1.00  0.00    -0.174 C  
BRANCH  11  12
HETATM   12  C   UNL     1      -8.888  11.016  65.253  1.00  0.00    -0.139 C  
BRANCH  12  13
HETATM   13  C   UNL     1     -10.158  10.405  64.660  1.00  0.00    -0.378 C  
BRANCH  13  14
HETATM   14  C   UNL     1     -10.564  11.131  63.381  1.00  0.00    -0.340 C  
BRANCH  14  15
HETATM   15  C   UNL     1     -11.890  11.871  63.553  1.00  0.00    -0.560 C  
BRANCH  15  16
HETATM   16  C   UNL     1     -11.652  13.267  64.123  1.00  0.00    -0.451 C  
BRANCH  16  17
HETATM   17  C   UNL     1     -12.276  13.428  65.505  1.00  0.00    -0.499 C  
HETATM   18  C   UNL     1     -11.608  14.531  66.295  1.00  0.00    -0.360 C  
HETATM   19  O   UNL     1     -10.687  15.229  65.900  1.00  0.00    -0.311 OA 
HETATM   20  O   UNL     1     -12.147  14.679  67.527  1.00  0.00    -0.340 OA 
ENDBRANCH  16  17
ENDBRANCH  15  16
ENDBRANCH  14  15
ENDBRANCH  13  14
ENDBRANCH  12  13
ENDBRANCH  11  12
ENDBRANCH  10  11
ENDBRANCH   8   9
ENDBRANCH   7   8
ENDBRANCH   5   6
ENDBRANCH   4   5
ENDBRANCH   2   3
TORSDOF 12
ENDMDL
MODEL      286
REMARK 921   NORMALIZED FREE ENERGY PREDICTED BY IDOCK:   -3.40 KCAL/MOL
REMARK 922        TOTAL FREE ENERGY PREDICTED BY IDOCK:   -7.62 KCAL/MOL
REMARK 923 INTER-LIGAND FREE ENERGY PREDICTED BY IDOCK:   -5.94 KCAL/MOL
REMARK 924 INTRA-LIGAND FREE ENERGY PREDICTED BY IDOCK:   -1.68 KCAL/MOL
REMARK 927      BINDING AFFINITY PREDICTED BY RF-SCORE:    0.00 PKD
ROOT
HETATM    1  C   UNL     1     -10.958  10.077  70.382  1.00  0.00    -0.384 C  
HETATM    2  C   UNL     1     -12.220  10.842  70.016  1.00  0.00    -0.422 C  
ENDROOT
BRANCH   2   3
HETATM    3  C   UNL     1     -12.546  11.899  71.033  1.00  0.00    -0.381 C  
HETATM    4  C   UNL     1     -12.455  13.225  70.841  1.00  0.00    -0.424 C  
BRANCH   4   5
HETATM    5  C   UNL     1     -11.972  13.869  69.573  1.00  0.00    -0.396 C  
BRANCH   5   6
HETATM    6  C   UNL     1     -12.108  15.365  69.600  1.00  0.00    -0.354 C  
HETATM    7  C   UNL     1     -11.115  16.237  69.354  1.00  0.00    -0.328 C  
BRANCH   7   8
HETATM    8  C   UNL     1      -9.701  15.830  69.055  1.00  0.00    -0.242 C  
BRANCH   8   9
HETATM    9  C   UNL     1      -9.250  16.283  67.698  1.00  0.00    -0.206 C  
HETATM   10  C   UNL     1      -9.260  15.520  66.590  1.00  0.00    -0.299 C  
BRANCH  10  11
HETATM   11  C   UNL     1      -9.800  14.118  66.557  1.00  0.00    -0.298 C  
BRANCH  11  12
HETATM   12  C   UNL     1      -8.862  13.112  67.216  1.00  0.00    -0.208 C  
BRANCH  12  13
HETATM   13  C   UNL     1      -9.458  11.706  67.144  1.00  0.00    -0.183 C  
BRANCH  13  14
HETATM   14  C   UNL     1      -9.340  11.138  65.734  1.00  0.00    -0.238 C  
BRANCH  14  15
HETATM   15  C   UNL     1      -9.944   9.737  65.642  1.00  0.00    -0.352 C  
BRANCH  15  16
HETATM   16  C   UNL     1      -9.807   9.008  66.977  1.00  0.00    -0.270 C  
BRANCH  16  17
HETATM   17  C   UNL     1     -10.636   7.728  67.009  1.00  0.00    -0.396 C  
HETATM   18  C   UNL     1      -9.818   6.524  66.601  1.00  0.00    -0.148 C  
HETATM   19  O   UNL     1      -8.638   6.540  66.287  1.00  0.00    -0.129 OA 
HETATM   20  O   UNL     1     -10.544   5.381  66.616  1.00  0.00    -0.280 OA 
ENDBRANCH  16  17
ENDBRANCH  15  16
ENDBRANCH  14  15
ENDBRANCH  13  14
ENDBRANCH  12  13
ENDBRANCH  11  12
ENDBRANCH  10  11
ENDBRANCH   8   9
ENDBRANCH   7   8
ENDBRANCH   5   6
ENDBRANCH   4   5
ENDBRANCH   2   3
TORSDOF 12
ENDMDL
MODEL      287
REMARK 921   NORMALIZED FREE ENERGY PREDICTED BY IDOCK:   -3.39 KCAL/MOL
REMARK 922        TOTAL FREE ENERGY PREDICTED BY IDOCK:   -7.62 KCAL/MOL
REMARK 923 INTER-LIGAND FREE ENERGY PREDICTED BY IDOCK:   -6.55 KCAL/MOL
REMARK 924 INTRA-LIGAND FREE ENERGY PREDICTED BY IDOCK:   -1.06 KCAL/MOL
REMARK 927      BINDING AFFINITY PREDICTED BY RF-SCORE:    0.00 PKD
ROOT
HETATM    1  C   UNL     1     -11.783  15.669  64.159  1.00  0.00    -0.081 C  
HETATM    2  C   UNL     1     -11.458  14.485  65.057  1.00  0.00    -0.382 C  
ENDROOT
BRANCH   2   3
HETATM    3  C   UNL     1     -12.057  13.209  64.536  1.00  0.00    -0.462 C  
HETATM    4  C   UNL     1     -11.849  11.983  65.043  1.00  0.00    -0.291 C  
BRANCH   4   5
HETATM    5  C   UNL     1     -10.944  11.685  66.204  1.00  0.00    -0.339 C  
BRANCH   5   6
HETATM    6  C   UNL     1     -11.099  12.677  67.322  1.00  0.00    -0.320 C  
HETATM    7  C   UNL     1     -11.508  12.382  68.568  1.00  0.00    -0.350 C  
BRANCH   7   8
HETATM    8  C   UNL     1     -11.914  11.005  69.009  1.00  0.00    -0.364 C  
BRANCH   8   9
HETATM    9  C   UNL     1     -11.138  10.536  70.205  1.00  0.00    -0.359 C  
HETATM   10  C   UNL     1     -11.663  10.314  71.424  1.00  0.00    -0.312 C  
BRANCH  10  11
HETATM   11  C   UNL     1     -13.129  10.441  71.728  1.00  0.00    -0.567 C  
BRANCH  11  12
HETATM   12  C   UNL     1     -13.711   9.178  72.353  1.00  0.00    -0.543 C  
BRANCH  12  13
HETATM   13  C   UNL     1     -12.620   8.122  72.530  1.00  0.00    -0.200 C  
BRANCH  13  14
HETATM   14  C   UNL     1     -12.819   6.968  71.552  1.00  0.00    -0.420 C  
BRANCH  14  15
HETATM   15  C   UNL     1     -11.542   6.675  70.764  1.00  0.00    -0.432 C  
BRANCH  15  16
HETATM   16  C   UNL     1     -10.330   6.678  71.693  1.00  0.00    -0.227 C  
BRANCH  16  17
HETATM   17  C   UNL     1      -9.141   7.402  71.068  1.00  0.00    -0.152 C  
HETATM   18  C   UNL     1      -8.628   8.508  71.962  1.00  0.00    -0.183 C  
HETATM   19  O   UNL     1      -9.082   8.804  73.056  1.00  0.00    -0.279 OA 
HETATM   20  O   UNL     1      -7.578   9.164  71.416  1.00  0.00    -0.293 OA 
ENDBRANCH  16  17
ENDBRANCH  15  16
ENDBRANCH  14  15
ENDBRANCH  13  14
ENDBRANCH  12  13
ENDBRANCH  11  12
ENDBRANCH  10  11
ENDBRANCH   8   9
ENDBRANCH   7   8
ENDBRANCH   5   6
ENDBRANCH   4   5
ENDBRANCH   2   3
TORSDOF 12
ENDMDL
MODEL      288
REMARK 921   NORMALIZED FREE ENERGY PREDICTED BY IDOCK:   -3.38 KCAL/MOL
REMARK 922        TOTAL FREE ENERGY PREDICTED BY IDOCK:   -7.60 KCAL/MOL
REMARK 923 INTER-LIGAND FREE ENERGY PREDICTED BY IDOCK:   -4.65 KCAL/MOL
REMARK 924 INTRA-LIGAND FREE ENERGY PREDICTED BY IDOCK:   -2.95 KCAL/MOL
REMARK 927      BINDING AFFINITY PREDICTED BY RF-SCORE:    0.00 PKD
ROOT
HETATM    1  C   UNL     1     -10.730  10.290  69.179  1.00  0.00    -0.259 C  
HETATM    2  C   UNL     1     -11.011   9.915  67.732  1.00  0.00    -0.278 C  
ENDROOT
BRANCH   2   3
HETATM    3  C   UNL     1      -9.883   9.124  67.132  1.00  0.00    -0.253 C  
HETATM    4  C   UNL     1      -9.900   7.805  66.880  1.00  0.00    -0.305 C  
BRANCH   4   5
HETATM    5  C   UNL     1     -11.053   6.894  67.196  1.00  0.00    -0.362 C  
BRANCH   5   6
HETATM    6  C   UNL     1     -10.670   5.791  68.142  1.00  0.00    -0.288 C  
HETATM    7  C   UNL     1     -10.999   5.740  69.445  1.00  0.00    -0.352 C  
BRANCH   7   8
HETATM    8  C   UNL     1     -11.768   6.816  70.155  1.00  0.00    -0.370 C  
BRANCH   8   9
HETATM    9  C   UNL     1     -11.926   6.534  71.620  1.00  0.00    -0.387 C  
HETATM   10  C   UNL     1     -11.279   7.184  72.603  1.00  0.00    -0.331 C  
BRANCH  10  11
HETATM   11  C   UNL     1     -10.354   8.343  72.358  1.00  0.00    -0.399 C  
BRANCH  11  12
HETATM   12  C   UNL     1      -9.004   8.173  73.046  1.00  0.00    -0.335 C  
BRANCH  12  13
HETATM   13  C   UNL     1      -7.868   8.341  72.035  1.00  0.00    -0.168 C  
BRANCH  13  14
HETATM   14  C   UNL     1      -8.371   8.116  70.613  1.00  0.00    -0.123 C  
BRANCH  14  15
HETATM   15  C   UNL     1      -7.636   6.959  69.936  1.00  0.00    -0.099 C  
BRANCH  15  16
HETATM   16  C   UNL     1      -7.218   5.915  70.969  1.00  0.00    -0.074 C  
BRANCH  16  17
HETATM   17  C   UNL     1      -8.285   4.838  71.147  1.00  0.00    -0.104 C  
HETATM   18  C   UNL     1      -8.014   3.635  70.273  1.00  0.00    -0.046 C  
HETATM   19  O   UNL     1      -7.065   3.507  69.515  1.00  0.00    -0.041 OA 
HETATM   20  O   UNL     1      -8.957   2.675  70.415  1.00  0.00    -0.076 OA 
ENDBRANCH  16  17
ENDBRANCH  15  16
ENDBRANCH  14  15
ENDBRANCH  13  14
ENDBRANCH  12  13
ENDBRANCH  11  12
ENDBRANCH  10  11
ENDBRANCH   8   9
ENDBRANCH   7   8
ENDBRANCH   5   6
ENDBRANCH   4   5
ENDBRANCH   2   3
TORSDOF 12
ENDMDL
MODEL      289
REMARK 921   NORMALIZED FREE ENERGY PREDICTED BY IDOCK:   -3.38 KCAL/MOL
REMARK 922        TOTAL FREE ENERGY PREDICTED BY IDOCK:   -7.60 KCAL/MOL
REMARK 923 INTER-LIGAND FREE ENERGY PREDICTED BY IDOCK:   -5.24 KCAL/MOL
REMARK 924 INTRA-LIGAND FREE ENERGY PREDICTED BY IDOCK:   -2.36 KCAL/MOL
REMARK 927      BINDING AFFINITY PREDICTED BY RF-SCORE:    0.00 PKD
ROOT
HETATM    1  C   UNL     1     -10.643  13.434  64.765  1.00  0.00    -0.420 C  
HETATM    2  C   UNL     1     -11.978  13.011  65.356  1.00  0.00    -0.457 C  
ENDROOT
BRANCH   2   3
HETATM    3  C   UNL     1     -11.831  12.506  66.763  1.00  0.00    -0.416 C  
HETATM    4  C   UNL     1     -11.848  13.263  67.873  1.00  0.00    -0.388 C  
BRANCH   4   5
HETATM    5  C   UNL     1     -11.983  14.759  67.879  1.00  0.00    -0.260 C  
BRANCH   5   6
HETATM    6  C   UNL     1     -11.722  15.353  69.234  1.00  0.00    -0.367 C  
HETATM    7  C   UNL     1     -10.745  16.232  69.519  1.00  0.00    -0.323 C  
BRANCH   7   8
HETATM    8  C   UNL     1      -9.737  16.714  68.516  1.00  0.00    -0.244 C  
BRANCH   8   9
HETATM    9  C   UNL     1      -8.335  16.325  68.882  1.00  0.00    -0.231 C  
HETATM   10  C   UNL     1      -7.738  15.173  68.528  1.00  0.00    -0.122 C  
BRANCH  10  11
HETATM   11  C   UNL     1      -8.388  14.144  67.646  1.00  0.00    -0.187 C  
BRANCH  11  12
HETATM   12  C   UNL     1      -7.450  12.993  67.297  1.00  0.00    -0.083 C  
BRANCH  12  13
HETATM   13  C   UNL     1      -8.236  11.687  67.172  1.00  0.00    -0.165 C  
BRANCH  13  14
HETATM   14  C   UNL     1      -7.495  10.690  66.287  1.00  0.00    -0.137 C  
BRANCH  14  15
HETATM   15  C   UNL     1      -8.374  10.203  65.135  1.00  0.00    -0.163 C  
BRANCH  15  16
HETATM   16  C   UNL     1      -9.780   9.881  65.637  1.00  0.00    -0.346 C  
BRANCH  16  17
HETATM   17  C   UNL     1      -9.867   8.470  66.210  1.00  0.00    -0.285 C  
HETATM   18  C   UNL     1     -10.473   8.468  67.595  1.00  0.00    -0.241 C  
HETATM   19  O   UNL     1     -10.861   9.453  68.203  1.00  0.00    -0.203 OA 
HETATM   20  O   UNL     1     -10.548   7.222  68.120  1.00  0.00    -0.203 OA 
ENDBRANCH  16  17
ENDBRANCH  15  16
ENDBRANCH  14  15
ENDBRANCH  13  14
ENDBRANCH  12  13
ENDBRANCH  11  12
ENDBRANCH  10  11
ENDBRANCH   8   9
ENDBRANCH   7   8
ENDBRANCH   5   6
ENDBRANCH   4   5
ENDBRANCH   2   3
TORSDOF 12
ENDMDL
MODEL      290
REMARK 921   NORMALIZED FREE ENERGY PREDICTED BY IDOCK:   -3.38 KCAL/MOL
REMARK 922        TOTAL FREE ENERGY PREDICTED BY IDOCK:   -7.59 KCAL/MOL
REMARK 923 INTER-LIGAND FREE ENERGY PREDICTED BY IDOCK:   -6.48 KCAL/MOL
REMARK 924 INTRA-LIGAND FREE ENERGY PREDICTED BY IDOCK:   -1.11 KCAL/MOL
REMARK 927      BINDING AFFINITY PREDICTED BY RF-SCORE:    0.00 PKD
ROOT
HETATM    1  C   UNL     1      -8.644   4.268  65.482  1.00  0.00    -0.119 C  
HETATM    2  C   UNL     1      -9.310   5.285  66.396  1.00  0.00    -0.153 C  
ENDROOT
BRANCH   2   3
HETATM    3  C   UNL     1      -8.303   6.183  67.057  1.00  0.00    -0.105 C  
HETATM    4  C   UNL     1      -8.279   7.524  66.979  1.00  0.00    -0.124 C  
BRANCH   4   5
HETATM    5  C   UNL     1      -9.248   8.346  66.177  1.00  0.00    -0.263 C  
BRANCH   5   6
HETATM    6  C   UNL     1      -8.689   8.753  64.844  1.00  0.00    -0.161 C  
HETATM    7  C   UNL     1      -9.092   9.818  64.128  1.00  0.00    -0.289 C  
BRANCH   7   8
HETATM    8  C   UNL     1     -10.203  10.736  64.550  1.00  0.00    -0.428 C  
BRANCH   8   9
HETATM    9  C   UNL     1     -10.548  11.740  63.490  1.00  0.00    -0.499 C  
HETATM   10  C   UNL     1     -11.599  12.579  63.538  1.00  0.00    -0.584 C  
BRANCH  10  11
HETATM   11  C   UNL     1     -12.533  12.666  64.711  1.00  0.00    -0.555 C  
BRANCH  11  12
HETATM   12  C   UNL     1     -12.547  14.051  65.350  1.00  0.00    -0.529 C  
BRANCH  12  13
HETATM   13  C   UNL     1     -11.318  14.849  64.912  1.00  0.00    -0.415 C  
BRANCH  13  14
HETATM   14  C   UNL     1     -10.725  15.620  66.086  1.00  0.00    -0.305 C  
BRANCH  14  15
HETATM   15  C   UNL     1     -10.341  14.686  67.233  1.00  0.00    -0.256 C  
BRANCH  15  16
HETATM   16  C   UNL     1     -10.998  15.140  68.535  1.00  0.00    -0.263 C  
BRANCH  16  17
HETATM   17  C   UNL     1     -11.554  13.962  69.328  1.00  0.00    -0.358 C  
HETATM   18  C   UNL     1     -12.292  14.421  70.566  1.00  0.00    -0.345 C  
HETATM   19  O   UNL     1     -12.446  15.583  70.910  1.00  0.00    -0.379 OA 
HETATM   20  O   UNL     1     -12.783  13.385  71.284  1.00  0.00    -0.354 OA 
ENDBRANCH  16  17
ENDBRANCH  15  16
ENDBRANCH  14  15
ENDBRANCH  13  14
ENDBRANCH  12  13
ENDBRANCH  11  12
ENDBRANCH  10  11
ENDBRANCH   8   9
ENDBRANCH   7   8
ENDBRANCH   5   6
ENDBRANCH   4   5
ENDBRANCH   2   3
TORSDOF 12
ENDMDL
MODEL      291
REMARK 921   NORMALIZED FREE ENERGY PREDICTED BY IDOCK:   -3.38 KCAL/MOL
REMARK 922        TOTAL FREE ENERGY PREDICTED BY IDOCK:   -7.59 KCAL/MOL
REMARK 923 INTER-LIGAND FREE ENERGY PREDICTED BY IDOCK:   -6.36 KCAL/MOL
REMARK 924 INTRA-LIGAND FREE ENERGY PREDICTED BY IDOCK:   -1.23 KCAL/MOL
REMARK 927      BINDING AFFINITY PREDICTED BY RF-SCORE:    0.00 PKD
ROOT
HETATM    1  C   UNL     1      -5.994   7.661  71.075  1.00  0.00    -0.035 C  
HETATM    2  C   UNL     1      -7.101   6.637  70.877  1.00  0.00    -0.069 C  
ENDROOT
BRANCH   2   3
HETATM    3  C   UNL     1      -8.056   7.050  69.794  1.00  0.00    -0.126 C  
HETATM    4  C   UNL     1      -9.394   6.950  69.850  1.00  0.00    -0.150 C  
BRANCH   4   5
HETATM    5  C   UNL     1     -10.155   6.367  71.006  1.00  0.00    -0.212 C  
BRANCH   5   6
HETATM    6  C   UNL     1     -11.642   6.484  70.833  1.00  0.00    -0.417 C  
HETATM    7  C   UNL     1     -12.385   7.538  71.213  1.00  0.00    -0.356 C  
BRANCH   7   8
HETATM    8  C   UNL     1     -11.828   8.744  71.914  1.00  0.00    -0.437 C  
BRANCH   8   9
HETATM    9  C   UNL     1     -11.543   9.873  70.967  1.00  0.00    -0.470 C  
HETATM   10  C   UNL     1     -12.238  11.024  70.912  1.00  0.00    -0.471 C  
BRANCH  10  11
HETATM   11  C   UNL     1     -13.360  11.358  71.854  1.00  0.00    -0.409 C  
BRANCH  11  12
HETATM   12  C   UNL     1     -13.525  12.859  72.063  1.00  0.00    -0.568 C  
BRANCH  12  13
HETATM   13  C   UNL     1     -12.559  13.630  71.162  1.00  0.00    -0.452 C  
BRANCH  13  14
HETATM   14  C   UNL     1     -12.898  15.117  71.149  1.00  0.00    -0.469 C  
BRANCH  14  15
HETATM   15  C   UNL     1     -11.719  15.956  70.659  1.00  0.00    -0.411 C  
BRANCH  15  16
HETATM   16  C   UNL     1     -11.524  15.777  69.155  1.00  0.00    -0.383 C  
BRANCH  16  17
HETATM   17  C   UNL     1     -10.170  15.154  68.831  1.00  0.00    -0.236 C  
HETATM   18  C   UNL     1     -10.322  13.810  68.155  1.00  0.00    -0.252 C  
HETATM   19  O   UNL     1     -11.382  13.268  67.883  1.00  0.00    -0.255 OA 
HETATM   20  O   UNL     1      -9.128  13.241  67.870  1.00  0.00    -0.185 OA 
ENDBRANCH  16  17
ENDBRANCH  15  16
ENDBRANCH  14  15
ENDBRANCH  13  14
ENDBRANCH  12  13
ENDBRANCH  11  12
ENDBRANCH  10  11
ENDBRANCH   8   9
ENDBRANCH   7   8
ENDBRANCH   5   6
ENDBRANCH   4   5
ENDBRANCH   2   3
TORSDOF 12
ENDMDL
MODEL      292
REMARK 921   NORMALIZED FREE ENERGY PREDICTED BY IDOCK:   -3.37 KCAL/MOL
REMARK 922        TOTAL FREE ENERGY PREDICTED BY IDOCK:   -7.58 KCAL/MOL
REMARK 923 INTER-LIGAND FREE ENERGY PREDICTED BY IDOCK:   -6.01 KCAL/MOL
REMARK 924 INTRA-LIGAND FREE ENERGY PREDICTED BY IDOCK:   -1.57 KCAL/MOL
REMARK 927      BINDING AFFINITY PREDICTED BY RF-SCORE:    0.00 PKD
ROOT
HETATM    1  C   UNL     1      -8.494  15.449  66.793  1.00  0.00    -0.307 C  
HETATM    2  C   UNL     1     -10.013  15.482  66.727  1.00  0.00    -0.257 C  
ENDROOT
BRANCH   2   3
HETATM    3  C   UNL     1     -10.586  16.563  67.599  1.00  0.00    -0.321 C  
HETATM    4  C   UNL     1     -10.808  16.467  68.921  1.00  0.00    -0.336 C  
BRANCH   4   5
HETATM    5  C   UNL     1     -10.548  15.235  69.739  1.00  0.00    -0.293 C  
BRANCH   5   6
HETATM    6  C   UNL     1     -11.815  14.545  70.158  1.00  0.00    -0.371 C  
HETATM    7  C   UNL     1     -12.147  13.280  69.847  1.00  0.00    -0.377 C  
BRANCH   7   8
HETATM    8  C   UNL     1     -11.303  12.381  68.990  1.00  0.00    -0.336 C  
BRANCH   8   9
HETATM    9  C   UNL     1     -11.763  12.355  67.563  1.00  0.00    -0.425 C  
HETATM   10  C   UNL     1     -11.061  11.840  66.537  1.00  0.00    -0.364 C  
BRANCH  10  11
HETATM   11  C   UNL     1      -9.737  11.150  66.707  1.00  0.00    -0.220 C  
BRANCH  11  12
HETATM   12  C   UNL     1      -9.708   9.768  66.062  1.00  0.00    -0.319 C  
BRANCH  12  13
HETATM   13  C   UNL     1     -10.653   8.819  66.799  1.00  0.00    -0.220 C  
BRANCH  13  14
HETATM   14  C   UNL     1     -10.013   7.446  66.979  1.00  0.00    -0.301 C  
BRANCH  14  15
HETATM   15  C   UNL     1     -11.044   6.396  67.391  1.00  0.00    -0.412 C  
BRANCH  15  16
HETATM   16  C   UNL     1     -11.202   6.370  68.910  1.00  0.00    -0.385 C  
BRANCH  16  17
HETATM   17  C   UNL     1     -10.283   5.338  69.555  1.00  0.00    -0.338 C  
HETATM   18  C   UNL     1      -9.267   5.989  70.468  1.00  0.00    -0.156 C  
HETATM   19  O   UNL     1      -9.174   7.186  70.686  1.00  0.00    -0.157 OA 
HETATM   20  O   UNL     1      -8.439   5.085  71.041  1.00  0.00    -0.113 OA 
ENDBRANCH  16  17
ENDBRANCH  15  16
ENDBRANCH  14  15
ENDBRANCH  13  14
ENDBRANCH  12  13
ENDBRANCH  11  12
ENDBRANCH  10  11
ENDBRANCH   8   9
ENDBRANCH   7   8
ENDBRANCH   5   6
ENDBRANCH   4   5
ENDBRANCH   2   3
TORSDOF 12
ENDMDL
MODEL      293
REMARK 921   NORMALIZED FREE ENERGY PREDICTED BY IDOCK:   -3.37 KCAL/MOL
REMARK 922        TOTAL FREE ENERGY PREDICTED BY IDOCK:   -7.57 KCAL/MOL
REMARK 923 INTER-LIGAND FREE ENERGY PREDICTED BY IDOCK:   -5.53 KCAL/MOL
REMARK 924 INTRA-LIGAND FREE ENERGY PREDICTED BY IDOCK:   -2.04 KCAL/MOL
REMARK 927      BINDING AFFINITY PREDICTED BY RF-SCORE:    0.00 PKD
ROOT
HETATM    1  C   UNL     1      -7.997   7.985  66.860  1.00  0.00    -0.104 C  
HETATM    2  C   UNL     1      -9.174   8.826  66.393  1.00  0.00    -0.241 C  
ENDROOT
BRANCH   2   3
HETATM    3  C   UNL     1      -9.113   9.099  64.916  1.00  0.00    -0.190 C  
HETATM    4  C   UNL     1      -9.338  10.286  64.329  1.00  0.00    -0.328 C  
BRANCH   4   5
HETATM    5  C   UNL     1      -9.728  11.537  65.064  1.00  0.00    -0.268 C  
BRANCH   5   6
HETATM    6  C   UNL     1     -10.966  12.172  64.500  1.00  0.00    -0.361 C  
HETATM    7  C   UNL     1     -11.913  12.798  65.221  1.00  0.00    -0.473 C  
BRANCH   7   8
HETATM    8  C   UNL     1     -11.883  12.912  66.718  1.00  0.00    -0.452 C  
BRANCH   8   9
HETATM    9  C   UNL     1     -11.965  14.336  67.185  1.00  0.00    -0.449 C  
HETATM   10  C   UNL     1     -10.913  15.163  67.321  1.00  0.00    -0.327 C  
BRANCH  10  11
HETATM   11  C   UNL     1      -9.508  14.780  66.949  1.00  0.00    -0.253 C  
BRANCH  11  12
HETATM   12  C   UNL     1      -8.766  14.091  68.089  1.00  0.00    -0.180 C  
BRANCH  12  13
HETATM   13  C   UNL     1      -8.231  12.734  67.629  1.00  0.00    -0.175 C  
BRANCH  13  14
HETATM   14  C   UNL     1      -8.584  11.643  68.634  1.00  0.00    -0.086 C  
BRANCH  14  15
HETATM   15  C   UNL     1     -10.097  11.480  68.775  1.00  0.00    -0.191 C  
BRANCH  15  16
HETATM   16  C   UNL     1     -10.434  10.106  69.351  1.00  0.00    -0.254 C  
BRANCH  16  17
HETATM   17  C   UNL     1      -9.373   9.632  70.340  1.00  0.00    -0.268 C  
HETATM   18  C   UNL     1      -9.995   9.106  71.614  1.00  0.00    -0.249 C  
HETATM   19  O   UNL     1     -11.192   9.047  71.849  1.00  0.00    -0.354 OA 
HETATM   20  O   UNL     1      -9.065   8.689  72.504  1.00  0.00    -0.322 OA 
ENDBRANCH  16  17
ENDBRANCH  15  16
ENDBRANCH  14  15
ENDBRANCH  13  14
ENDBRANCH  12  13
ENDBRANCH  11  12
ENDBRANCH  10  11
ENDBRANCH   8   9
ENDBRANCH   7   8
ENDBRANCH   5   6
ENDBRANCH   4   5
ENDBRANCH   2   3
TORSDOF 12
ENDMDL
MODEL      294
REMARK 921   NORMALIZED FREE ENERGY PREDICTED BY IDOCK:   -3.36 KCAL/MOL
REMARK 922        TOTAL FREE ENERGY PREDICTED BY IDOCK:   -7.56 KCAL/MOL
REMARK 923 INTER-LIGAND FREE ENERGY PREDICTED BY IDOCK:   -5.77 KCAL/MOL
REMARK 924 INTRA-LIGAND FREE ENERGY PREDICTED BY IDOCK:   -1.79 KCAL/MOL
REMARK 927      BINDING AFFINITY PREDICTED BY RF-SCORE:    0.00 PKD
ROOT
HETATM    1  C   UNL     1      -6.945  11.798  68.739  1.00  0.00    -0.103 C  
HETATM    2  C   UNL     1      -8.115  11.397  67.854  1.00  0.00    -0.126 C  
ENDROOT
BRANCH   2   3
HETATM    3  C   UNL     1      -9.406  11.998  68.330  1.00  0.00    -0.197 C  
HETATM    4  C   UNL     1     -10.388  11.340  68.968  1.00  0.00    -0.189 C  
BRANCH   4   5
HETATM    5  C   UNL     1     -10.364   9.870  69.279  1.00  0.00    -0.235 C  
BRANCH   5   6
HETATM    6  C   UNL     1      -9.380   9.528  70.361  1.00  0.00    -0.311 C  
HETATM    7  C   UNL     1      -9.701   9.039  71.572  1.00  0.00    -0.365 C  
BRANCH   7   8
HETATM    8  C   UNL     1     -11.111   8.804  72.032  1.00  0.00    -0.441 C  
BRANCH   8   9
HETATM    9  C   UNL     1     -11.347   7.382  72.448  1.00  0.00    -0.341 C  
HETATM   10  C   UNL     1     -11.591   6.364  71.603  1.00  0.00    -0.363 C  
BRANCH  10  11
HETATM   11  C   UNL     1     -11.589   6.512  70.108  1.00  0.00    -0.466 C  
BRANCH  11  12
HETATM   12  C   UNL     1     -10.276   6.063  69.475  1.00  0.00    -0.267 C  
BRANCH  12  13
HETATM   13  C   UNL     1     -10.502   5.656  68.019  1.00  0.00    -0.264 C  
BRANCH  13  14
HETATM   14  C   UNL     1     -10.892   6.863  67.172  1.00  0.00    -0.447 C  
BRANCH  14  15
HETATM   15  C   UNL     1      -9.661   7.635  66.697  1.00  0.00    -0.283 C  
BRANCH  15  16
HETATM   16  C   UNL     1     -10.064   9.015  66.181  1.00  0.00    -0.242 C  
BRANCH  16  17
HETATM   17  C   UNL     1      -9.276   9.404  64.934  1.00  0.00    -0.246 C  
HETATM   18  C   UNL     1      -9.808  10.677  64.313  1.00  0.00    -0.330 C  
HETATM   19  O   UNL     1     -10.744  11.337  64.737  1.00  0.00    -0.310 OA 
HETATM   20  O   UNL     1      -9.124  11.029  63.200  1.00  0.00    -0.240 OA 
ENDBRANCH  16  17
ENDBRANCH  15  16
ENDBRANCH  14  15
ENDBRANCH  13  14
ENDBRANCH  12  13
ENDBRANCH  11  12
ENDBRANCH  10  11
ENDBRANCH   8   9
ENDBRANCH   7   8
ENDBRANCH   5   6
ENDBRANCH   4   5
ENDBRANCH   2   3
TORSDOF 12
ENDMDL
MODEL      295
REMARK 921   NORMALIZED FREE ENERGY PREDICTED BY IDOCK:   -3.36 KCAL/MOL
REMARK 922        TOTAL FREE ENERGY PREDICTED BY IDOCK:   -7.55 KCAL/MOL
REMARK 923 INTER-LIGAND FREE ENERGY PREDICTED BY IDOCK:   -5.63 KCAL/MOL
REMARK 924 INTRA-LIGAND FREE ENERGY PREDICTED BY IDOCK:   -1.92 KCAL/MOL
REMARK 927      BINDING AFFINITY PREDICTED BY RF-SCORE:    0.00 PKD
ROOT
HETATM    1  C   UNL     1      -9.067   8.479  68.934  1.00  0.00    -0.146 C  
HETATM    2  C   UNL     1     -10.103   8.441  67.822  1.00  0.00    -0.263 C  
ENDROOT
BRANCH   2   3
HETATM    3  C   UNL     1      -9.636   7.619  66.654  1.00  0.00    -0.271 C  
HETATM    4  C   UNL     1      -9.093   8.102  65.524  1.00  0.00    -0.021 C  
BRANCH   4   5
HETATM    5  C   UNL     1      -8.895   9.562  65.233  1.00  0.00    -0.220 C  
BRANCH   5   6
HETATM    6  C   UNL     1      -9.095   9.890  63.780  1.00  0.00    -0.293 C  
HETATM    7  C   UNL     1     -10.016  10.742  63.298  1.00  0.00    -0.369 C  
BRANCH   7   8
HETATM    8  C   UNL     1     -11.018  11.462  64.155  1.00  0.00    -0.411 C  
BRANCH   8   9
HETATM    9  C   UNL     1     -11.323  12.839  63.643  1.00  0.00    -0.514 C  
HETATM   10  C   UNL     1     -12.061  13.755  64.295  1.00  0.00    -0.481 C  
BRANCH  10  11
HETATM   11  C   UNL     1     -12.622  13.538  65.671  1.00  0.00    -0.512 C  
BRANCH  11  12
HETATM   12  C   UNL     1     -11.737  14.123  66.766  1.00  0.00    -0.432 C  
BRANCH  12  13
HETATM   13  C   UNL     1     -11.969  13.387  68.086  1.00  0.00    -0.356 C  
BRANCH  13  14
HETATM   14  C   UNL     1     -10.665  12.796  68.614  1.00  0.00    -0.273 C  
BRANCH  14  15
HETATM   15  C   UNL     1      -9.721  12.414  67.474  1.00  0.00    -0.191 C  
BRANCH  15  16
HETATM   16  C   UNL     1      -8.273  12.410  67.959  1.00  0.00    -0.168 C  
BRANCH  16  17
HETATM   17  C   UNL     1      -7.534  13.678  67.542  1.00  0.00    -0.181 C  
HETATM   18  C   UNL     1      -6.046  13.561  67.788  1.00  0.00    -0.143 C  
HETATM   19  O   UNL     1      -5.477  12.586  68.253  1.00  0.00    -0.053 OA 
HETATM   20  O   UNL     1      -5.378  14.683  67.430  1.00  0.00    -0.334 OA 
ENDBRANCH  16  17
ENDBRANCH  15  16
ENDBRANCH  14  15
ENDBRANCH  13  14
ENDBRANCH  12  13
ENDBRANCH  11  12
ENDBRANCH  10  11
ENDBRANCH   8   9
ENDBRANCH   7   8
ENDBRANCH   5   6
ENDBRANCH   4   5
ENDBRANCH   2   3
TORSDOF 12
ENDMDL
MODEL      296
REMARK 921   NORMALIZED FREE ENERGY PREDICTED BY IDOCK:   -3.36 KCAL/MOL
REMARK 922        TOTAL FREE ENERGY PREDICTED BY IDOCK:   -7.55 KCAL/MOL
REMARK 923 INTER-LIGAND FREE ENERGY PREDICTED BY IDOCK:   -6.29 KCAL/MOL
REMARK 924 INTRA-LIGAND FREE ENERGY PREDICTED BY IDOCK:   -1.26 KCAL/MOL
REMARK 927      BINDING AFFINITY PREDICTED BY RF-SCORE:    0.00 PKD
ROOT
HETATM    1  C   UNL     1     -10.496  15.774  65.063  1.00  0.00    -0.331 C  
HETATM    2  C   UNL     1      -9.806  15.883  66.414  1.00  0.00    -0.302 C  
ENDROOT
BRANCH   2   3
HETATM    3  C   UNL     1      -8.360  15.482  66.335  1.00  0.00    -0.153 C  
HETATM    4  C   UNL     1      -7.319  16.222  66.752  1.00  0.00    -0.244 C  
BRANCH   4   5
HETATM    5  C   UNL     1      -7.436  17.601  67.337  1.00  0.00    -0.209 C  
BRANCH   5   6
HETATM    6  C   UNL     1      -7.154  18.678  66.330  1.00  0.00    -0.277 C  
HETATM    7  C   UNL     1      -8.044  19.593  65.905  1.00  0.00    -0.242 C  
BRANCH   7   8
HETATM    8  C   UNL     1      -9.476  19.637  66.355  1.00  0.00    -0.479 C  
BRANCH   8   9
HETATM    9  C   UNL     1      -9.607  19.974  67.811  1.00  0.00    -0.509 C  
HETATM   10  C   UNL     1     -10.210  19.197  68.729  1.00  0.00    -0.360 C  
BRANCH  10  11
HETATM   11  C   UNL     1     -10.775  17.839  68.420  1.00  0.00    -0.205 C  
BRANCH  11  12
HETATM   12  C   UNL     1     -10.771  16.911  69.630  1.00  0.00    -0.151 C  
BRANCH  12  13
HETATM   13  C   UNL     1     -11.768  15.770  69.427  1.00  0.00    -0.379 C  
BRANCH  13  14
HETATM   14  C   UNL     1     -11.071  14.417  69.530  1.00  0.00    -0.267 C  
BRANCH  14  15
HETATM   15  C   UNL     1     -11.740  13.373  68.635  1.00  0.00    -0.384 C  
BRANCH  15  16
HETATM   16  C   UNL     1     -11.608  11.981  69.248  1.00  0.00    -0.380 C  
BRANCH  16  17
HETATM   17  C   UNL     1     -12.374  11.868  70.563  1.00  0.00    -0.372 C  
HETATM   18  C   UNL     1     -12.381  10.449  71.084  1.00  0.00    -0.400 C  
HETATM   19  O   UNL     1     -11.844   9.493  70.547  1.00  0.00    -0.256 OA 
HETATM   20  O   UNL     1     -13.065  10.332  72.246  1.00  0.00    -0.396 OA 
ENDBRANCH  16  17
ENDBRANCH  15  16
ENDBRANCH  14  15
ENDBRANCH  13  14
ENDBRANCH  12  13
ENDBRANCH  11  12
ENDBRANCH  10  11
ENDBRANCH   8   9
ENDBRANCH   7   8
ENDBRANCH   5   6
ENDBRANCH   4   5
ENDBRANCH   2   3
TORSDOF 12
ENDMDL
MODEL      297
REMARK 921   NORMALIZED FREE ENERGY PREDICTED BY IDOCK:   -3.35 KCAL/MOL
REMARK 922        TOTAL FREE ENERGY PREDICTED BY IDOCK:   -7.54 KCAL/MOL
REMARK 923 INTER-LIGAND FREE ENERGY PREDICTED BY IDOCK:   -6.12 KCAL/MOL
REMARK 924 INTRA-LIGAND FREE ENERGY PREDICTED BY IDOCK:   -1.42 KCAL/MOL
REMARK 927      BINDING AFFINITY PREDICTED BY RF-SCORE:    0.00 PKD
ROOT
HETATM    1  C   UNL     1      -7.317   5.995  66.594  1.00  0.00    -0.078 C  
HETATM    2  C   UNL     1      -8.326   6.739  65.734  1.00  0.00    -0.143 C  
ENDROOT
BRANCH   2   3
HETATM    3  C   UNL     1      -8.027   6.593  64.269  1.00  0.00    -0.092 C  
HETATM    4  C   UNL     1      -7.740   7.597  63.425  1.00  0.00    -0.130 C  
BRANCH   4   5
HETATM    5  C   UNL     1      -7.708   9.049  63.810  1.00  0.00    -0.125 C  
BRANCH   5   6
HETATM    6  C   UNL     1      -8.946   9.784  63.380  1.00  0.00    -0.271 C  
HETATM    7  C   UNL     1      -9.625  10.665  64.136  1.00  0.00    -0.353 C  
BRANCH   7   8
HETATM    8  C   UNL     1      -9.258  11.009  65.551  1.00  0.00    -0.235 C  
BRANCH   8   9
HETATM    9  C   UNL     1      -9.957  10.136  66.551  1.00  0.00    -0.283 C  
HETATM   10  C   UNL     1     -10.943  10.543  67.370  1.00  0.00    -0.352 C  
BRANCH  10  11
HETATM   11  C   UNL     1     -11.526  11.927  67.338  1.00  0.00    -0.393 C  
BRANCH  11  12
HETATM   12  C   UNL     1     -11.850  12.461  68.729  1.00  0.00    -0.358 C  
BRANCH  12  13
HETATM   13  C   UNL     1     -11.590  11.385  69.784  1.00  0.00    -0.407 C  
BRANCH  13  14
HETATM   14  C   UNL     1     -12.655  11.425  70.875  1.00  0.00    -0.453 C  
BRANCH  14  15
HETATM   15  C   UNL     1     -12.747  10.093  71.618  1.00  0.00    -0.549 C  
BRANCH  15  16
HETATM   16  C   UNL     1     -11.489   9.260  71.377  1.00  0.00    -0.439 C  
BRANCH  16  17
HETATM   17  C   UNL     1     -11.365   8.120  72.383  1.00  0.00    -0.456 C  
HETATM   18  C   UNL     1     -11.697   6.785  71.756  1.00  0.00    -0.312 C  
HETATM   19  O   UNL     1     -12.020   6.608  70.592  1.00  0.00    -0.395 OA 
HETATM   20  O   UNL     1     -11.599   5.765  72.640  1.00  0.00    -0.300 OA 
ENDBRANCH  16  17
ENDBRANCH  15  16
ENDBRANCH  14  15
ENDBRANCH  13  14
ENDBRANCH  12  13
ENDBRANCH  11  12
ENDBRANCH  10  11
ENDBRANCH   8   9
ENDBRANCH   7   8
ENDBRANCH   5   6
ENDBRANCH   4   5
ENDBRANCH   2   3
TORSDOF 12
ENDMDL
MODEL      298
REMARK 921   NORMALIZED FREE ENERGY PREDICTED BY IDOCK:   -3.35 KCAL/MOL
REMARK 922        TOTAL FREE ENERGY PREDICTED BY IDOCK:   -7.54 KCAL/MOL
REMARK 923 INTER-LIGAND FREE ENERGY PREDICTED BY IDOCK:   -5.43 KCAL/MOL
REMARK 924 INTRA-LIGAND FREE ENERGY PREDICTED BY IDOCK:   -2.11 KCAL/MOL
REMARK 927      BINDING AFFINITY PREDICTED BY RF-SCORE:    0.00 PKD
ROOT
HETATM    1  C   UNL     1     -12.752  12.115  63.501  1.00  0.00    -0.553 C  
HETATM    2  C   UNL     1     -11.233  12.106  63.423  1.00  0.00    -0.494 C  
ENDROOT
BRANCH   2   3
HETATM    3  C   UNL     1     -10.608  12.668  64.668  1.00  0.00    -0.357 C  
HETATM    4  C   UNL     1      -9.803  11.999  65.510  1.00  0.00    -0.251 C  
BRANCH   4   5
HETATM    5  C   UNL     1      -9.427  10.553  65.357  1.00  0.00    -0.273 C  
BRANCH   5   6
HETATM    6  C   UNL     1      -9.614   9.774  66.627  1.00  0.00    -0.239 C  
HETATM    7  C   UNL     1      -8.686   9.625  67.589  1.00  0.00    -0.126 C  
BRANCH   7   8
HETATM    8  C   UNL     1      -7.297  10.191  67.504  1.00  0.00    -0.089 C  
BRANCH   8   9
HETATM    9  C   UNL     1      -6.822  10.739  68.818  1.00  0.00    -0.067 C  
HETATM   10  C   UNL     1      -6.888  12.032  69.180  1.00  0.00    -0.090 C  
BRANCH  10  11
HETATM   11  C   UNL     1      -7.520  13.098  68.330  1.00  0.00    -0.124 C  
BRANCH  11  12
HETATM   12  C   UNL     1      -7.266  14.503  68.864  1.00  0.00    -0.125 C  
BRANCH  12  13
HETATM   13  C   UNL     1      -8.575  15.289  68.932  1.00  0.00    -0.207 C  
BRANCH  13  14
HETATM   14  C   UNL     1      -9.541  14.831  67.844  1.00  0.00    -0.210 C  
BRANCH  14  15
HETATM   15  C   UNL     1     -10.984  15.200  68.184  1.00  0.00    -0.287 C  
BRANCH  15  16
HETATM   16  C   UNL     1     -11.862  13.951  68.211  1.00  0.00    -0.412 C  
BRANCH  16  17
HETATM   17  C   UNL     1     -11.527  13.051  69.396  1.00  0.00    -0.323 C  
HETATM   18  C   UNL     1     -11.801  11.596  69.085  1.00  0.00    -0.326 C  
HETATM   19  O   UNL     1     -12.228  11.164  68.027  1.00  0.00    -0.584 OA 
HETATM   20  O   UNL     1     -11.516  10.786  70.132  1.00  0.00    -0.289 OA 
ENDBRANCH  16  17
ENDBRANCH  15  16
ENDBRANCH  14  15
ENDBRANCH  13  14
ENDBRANCH  12  13
ENDBRANCH  11  12
ENDBRANCH  10  11
ENDBRANCH   8   9
ENDBRANCH   7   8
ENDBRANCH   5   6
ENDBRANCH   4   5
ENDBRANCH   2   3
TORSDOF 12
ENDMDL
MODEL      299
REMARK 921   NORMALIZED FREE ENERGY PREDICTED BY IDOCK:   -3.34 KCAL/MOL
REMARK 922        TOTAL FREE ENERGY PREDICTED BY IDOCK:   -7.53 KCAL/MOL
REMARK 923 INTER-LIGAND FREE ENERGY PREDICTED BY IDOCK:   -5.94 KCAL/MOL
REMARK 924 INTRA-LIGAND FREE ENERGY PREDICTED BY IDOCK:   -1.59 KCAL/MOL
REMARK 927      BINDING AFFINITY PREDICTED BY RF-SCORE:    0.00 PKD
ROOT
HETATM    1  C   UNL     1      -7.462   4.528  69.702  1.00  0.00    -0.051 C  
HETATM    2  C   UNL     1      -8.223   5.774  70.128  1.00  0.00    -0.116 C  
ENDROOT
BRANCH   2   3
HETATM    3  C   UNL     1      -7.539   7.030  69.667  1.00  0.00    -0.104 C  
HETATM    4  C   UNL     1      -8.154   8.148  69.249  1.00  0.00    -0.117 C  
BRANCH   4   5
HETATM    5  C   UNL     1      -9.644   8.309  69.140  1.00  0.00    -0.160 C  
BRANCH   5   6
HETATM    6  C   UNL     1     -10.180   7.817  67.826  1.00  0.00    -0.271 C  
HETATM    7  C   UNL     1     -10.440   8.591  66.758  1.00  0.00    -0.308 C  
BRANCH   7   8
HETATM    8  C   UNL     1     -10.268  10.083  66.745  1.00  0.00    -0.295 C  
BRANCH   8   9
HETATM    9  C   UNL     1      -9.082  10.514  65.932  1.00  0.00    -0.192 C  
HETATM   10  C   UNL     1      -9.131  10.895  64.643  1.00  0.00    -0.189 C  
BRANCH  10  11
HETATM   11  C   UNL     1     -10.410  11.005  63.862  1.00  0.00    -0.436 C  
BRANCH  11  12
HETATM   12  C   UNL     1     -10.947  12.431  63.811  1.00  0.00    -0.501 C  
BRANCH  12  13
HETATM   13  C   UNL     1     -12.408  12.464  64.261  1.00  0.00    -0.544 C  
BRANCH  13  14
HETATM   14  C   UNL     1     -12.580  13.358  65.484  1.00  0.00    -0.520 C  
BRANCH  14  15
HETATM   15  C   UNL     1     -11.244  13.620  66.179  1.00  0.00    -0.309 C  
BRANCH  15  16
HETATM   16  C   UNL     1     -11.060  15.114  66.436  1.00  0.00    -0.312 C  
BRANCH  16  17
HETATM   17  C   UNL     1      -9.707  15.611  65.936  1.00  0.00    -0.388 C  
HETATM   18  C   UNL     1      -9.461  17.050  66.332  1.00  0.00    -0.271 C  
HETATM   19  O   UNL     1     -10.226  17.750  66.976  1.00  0.00    -0.321 OA 
HETATM   20  O   UNL     1      -8.267  17.507  65.887  1.00  0.00    -0.538 OA 
ENDBRANCH  16  17
ENDBRANCH  15  16
ENDBRANCH  14  15
ENDBRANCH  13  14
ENDBRANCH  12  13
ENDBRANCH  11  12
ENDBRANCH  10  11
ENDBRANCH   8   9
ENDBRANCH   7   8
ENDBRANCH   5   6
ENDBRANCH   4   5
ENDBRANCH   2   3
TORSDOF 12
ENDMDL
MODEL      300
REMARK 921   NORMALIZED FREE ENERGY PREDICTED BY IDOCK:   -3.34 KCAL/MOL
REMARK 922        TOTAL FREE ENERGY PREDICTED BY IDOCK:   -7.53 KCAL/MOL
REMARK 923 INTER-LIGAND FREE ENERGY PREDICTED BY IDOCK:   -5.47 KCAL/MOL
REMARK 924 INTRA-LIGAND FREE ENERGY PREDICTED BY IDOCK:   -2.07 KCAL/MOL
REMARK 927      BINDING AFFINITY PREDICTED BY RF-SCORE:    0.00 PKD
ROOT
HETATM    1  C   UNL     1      -9.747   8.825  67.580  1.00  0.00    -0.210 C  
HETATM    2  C   UNL     1      -9.066   9.921  66.775  1.00  0.00    -0.164 C  
ENDROOT
BRANCH   2   3
HETATM    3  C   UNL     1      -9.473  11.290  67.241  1.00  0.00    -0.184 C  
HETATM    4  C   UNL     1     -10.301  12.124  66.592  1.00  0.00    -0.233 C  
BRANCH   4   5
HETATM    5  C   UNL     1     -10.933  11.829  65.261  1.00  0.00    -0.350 C  
BRANCH   5   6
HETATM    6  C   UNL     1     -12.242  12.543  65.076  1.00  0.00    -0.519 C  
HETATM    7  C   UNL     1     -12.379  13.811  64.650  1.00  0.00    -0.410 C  
BRANCH   7   8
HETATM    8  C   UNL     1     -11.222  14.716  64.336  1.00  0.00    -0.190 C  
BRANCH   8   9
HETATM    9  C   UNL     1     -11.243  15.974  65.154  1.00  0.00    -0.193 C  
HETATM   10  C   UNL     1     -10.279  16.347  66.015  1.00  0.00    -0.373 C  
BRANCH  10  11
HETATM   11  C   UNL     1      -9.006  15.574  66.216  1.00  0.00    -0.362 C  
BRANCH  11  12
HETATM   12  C   UNL     1      -8.727  15.272  67.684  1.00  0.00    -0.179 C  
BRANCH  12  13
HETATM   13  C   UNL     1      -7.353  14.619  67.840  1.00  0.00    -0.164 C  
BRANCH  13  14
HETATM   14  C   UNL     1      -6.240  15.644  67.648  1.00  0.00    -0.179 C  
BRANCH  14  15
HETATM   15  C   UNL     1      -6.353  16.789  68.654  1.00  0.00    -0.154 C  
BRANCH  15  16
HETATM   16  C   UNL     1      -6.197  18.135  67.950  1.00  0.00    -0.174 C  
BRANCH  16  17
HETATM   17  C   UNL     1      -7.547  18.788  67.674  1.00  0.00    -0.247 C  
HETATM   18  C   UNL     1      -7.765  19.015  66.194  1.00  0.00    -0.271 C  
HETATM   19  O   UNL     1      -6.981  18.716  65.308  1.00  0.00    -0.523 OA 
HETATM   20  O   UNL     1      -8.957  19.602  65.935  1.00  0.00    -0.389 OA 
ENDBRANCH  16  17
ENDBRANCH  15  16
ENDBRANCH  14  15
ENDBRANCH  13  14
ENDBRANCH  12  13
ENDBRANCH  11  12
ENDBRANCH  10  11
ENDBRANCH   8   9
ENDBRANCH   7   8
ENDBRANCH   5   6
ENDBRANCH   4   5
ENDBRANCH   2   3
TORSDOF 12
ENDMDL
MODEL      301
REMARK 921   NORMALIZED FREE ENERGY PREDICTED BY IDOCK:   -3.34 KCAL/MOL
REMARK 922        TOTAL FREE ENERGY PREDICTED BY IDOCK:   -7.53 KCAL/MOL
REMARK 923 INTER-LIGAND FREE ENERGY PREDICTED BY IDOCK:   -5.56 KCAL/MOL
REMARK 924 INTRA-LIGAND FREE ENERGY PREDICTED BY IDOCK:   -1.97 KCAL/MOL
REMARK 927      BINDING AFFINITY PREDICTED BY RF-SCORE:    0.00 PKD
ROOT
HETATM    1  C   UNL     1      -9.725   4.402  65.668  1.00  0.00    -0.211 C  
HETATM    2  C   UNL     1      -9.436   5.725  66.359  1.00  0.00    -0.172 C  
ENDROOT
BRANCH   2   3
HETATM    3  C   UNL     1     -10.693   6.382  66.854  1.00  0.00    -0.408 C  
HETATM    4  C   UNL     1     -10.755   7.364  67.769  1.00  0.00    -0.249 C  
BRANCH   4   5
HETATM    5  C   UNL     1      -9.563   7.943  68.476  1.00  0.00    -0.153 C  
BRANCH   5   6
HETATM    6  C   UNL     1      -9.950   8.945  69.526  1.00  0.00    -0.191 C  
HETATM    7  C   UNL     1      -9.717  10.268  69.458  1.00  0.00    -0.235 C  
BRANCH   7   8
HETATM    8  C   UNL     1      -8.990  10.930  68.323  1.00  0.00    -0.150 C  
BRANCH   8   9
HETATM    9  C   UNL     1      -7.503  10.930  68.520  1.00  0.00    -0.103 C  
HETATM   10  C   UNL     1      -6.598  10.713  67.548  1.00  0.00    -0.065 C  
BRANCH  10  11
HETATM   11  C   UNL     1      -6.967  10.511  66.106  1.00  0.00    -0.131 C  
BRANCH  11  12
HETATM   12  C   UNL     1      -7.383   9.076  65.801  1.00  0.00    -0.089 C  
BRANCH  12  13
HETATM   13  C   UNL     1      -8.644   9.062  64.936  1.00  0.00    -0.206 C  
BRANCH  13  14
HETATM   14  C   UNL     1      -8.781  10.365  64.155  1.00  0.00    -0.205 C  
BRANCH  14  15
HETATM   15  C   UNL     1     -10.247  10.719  63.909  1.00  0.00    -0.377 C  
BRANCH  15  16
HETATM   16  C   UNL     1     -10.819  11.481  65.102  1.00  0.00    -0.326 C  
BRANCH  16  17
HETATM   17  C   UNL     1     -11.100  12.941  64.757  1.00  0.00    -0.337 C  
HETATM   18  C   UNL     1     -12.314  13.080  63.866  1.00  0.00    -0.375 C  
HETATM   19  O   UNL     1     -13.007  12.159  63.462  1.00  0.00    -0.794 OA 
HETATM   20  O   UNL     1     -12.569  14.369  63.545  1.00  0.00    -0.784 OA 
ENDBRANCH  16  17
ENDBRANCH  15  16
ENDBRANCH  14  15
ENDBRANCH  13  14
ENDBRANCH  12  13
ENDBRANCH  11  12
ENDBRANCH  10  11
ENDBRANCH   8   9
ENDBRANCH   7   8
ENDBRANCH   5   6
ENDBRANCH   4   5
ENDBRANCH   2   3
TORSDOF 12
ENDMDL
MODEL      302
REMARK 921   NORMALIZED FREE ENERGY PREDICTED BY IDOCK:   -3.33 KCAL/MOL
REMARK 922        TOTAL FREE ENERGY PREDICTED BY IDOCK:   -7.50 KCAL/MOL
REMARK 923 INTER-LIGAND FREE ENERGY PREDICTED BY IDOCK:   -6.06 KCAL/MOL
REMARK 924 INTRA-LIGAND FREE ENERGY PREDICTED BY IDOCK:   -1.44 KCAL/MOL
REMARK 927      BINDING AFFINITY PREDICTED BY RF-SCORE:    0.00 PKD
ROOT
HETATM    1  C   UNL     1     -10.760  19.827  65.873  1.00  0.00    -0.488 C  
HETATM    2  C   UNL     1      -9.363  19.553  66.407  1.00  0.00    -0.443 C  
ENDROOT
BRANCH   2   3
HETATM    3  C   UNL     1      -9.400  18.957  67.786  1.00  0.00    -0.330 C  
HETATM    4  C   UNL     1      -9.509  17.648  68.070  1.00  0.00    -0.282 C  
BRANCH   4   5
HETATM    5  C   UNL     1      -9.649  16.563  67.041  1.00  0.00    -0.249 C  
BRANCH   5   6
HETATM    6  C   UNL     1      -8.340  15.895  66.729  1.00  0.00    -0.306 C  
HETATM    7  C   UNL     1      -7.938  14.711  67.225  1.00  0.00    -0.223 C  
BRANCH   7   8
HETATM    8  C   UNL     1      -8.736  13.902  68.206  1.00  0.00    -0.183 C  
BRANCH   8   9
HETATM    9  C   UNL     1      -8.370  12.447  68.178  1.00  0.00    -0.178 C  
HETATM   10  C   UNL     1      -9.145  11.470  67.674  1.00  0.00    -0.168 C  
BRANCH  10  11
HETATM   11  C   UNL     1     -10.464  11.724  67.002  1.00  0.00    -0.252 C  
BRANCH  11  12
HETATM   12  C   UNL     1     -11.652  11.308  67.862  1.00  0.00    -0.330 C  
BRANCH  12  13
HETATM   13  C   UNL     1     -12.000  12.415  68.857  1.00  0.00    -0.289 C  
BRANCH  13  14
HETATM   14  C   UNL     1     -11.927  11.899  70.291  1.00  0.00    -0.416 C  
BRANCH  14  15
HETATM   15  C   UNL     1     -12.338  10.429  70.378  1.00  0.00    -0.370 C  
BRANCH  15  16
HETATM   16  C   UNL     1     -11.241   9.608  71.052  1.00  0.00    -0.445 C  
BRANCH  16  17
HETATM   17  C   UNL     1     -11.594   8.124  71.099  1.00  0.00    -0.306 C  
HETATM   18  C   UNL     1     -11.075   7.390  69.883  1.00  0.00    -0.190 C  
HETATM   19  O   UNL     1     -10.443   7.891  68.966  1.00  0.00    -0.214 OA 
HETATM   20  O   UNL     1     -11.388   6.073  69.906  1.00  0.00    -0.400 OA 
ENDBRANCH  16  17
ENDBRANCH  15  16
ENDBRANCH  14  15
ENDBRANCH  13  14
ENDBRANCH  12  13
ENDBRANCH  11  12
ENDBRANCH  10  11
ENDBRANCH   8   9
ENDBRANCH   7   8
ENDBRANCH   5   6
ENDBRANCH   4   5
ENDBRANCH   2   3
TORSDOF 12
ENDMDL
MODEL      303
REMARK 921   NORMALIZED FREE ENERGY PREDICTED BY IDOCK:   -3.32 KCAL/MOL
REMARK 922        TOTAL FREE ENERGY PREDICTED BY IDOCK:   -7.50 KCAL/MOL
REMARK 923 INTER-LIGAND FREE ENERGY PREDICTED BY IDOCK:   -5.80 KCAL/MOL
REMARK 924 INTRA-LIGAND FREE ENERGY PREDICTED BY IDOCK:   -1.70 KCAL/MOL
REMARK 927      BINDING AFFINITY PREDICTED BY RF-SCORE:    0.00 PKD
ROOT
HETATM    1  C   UNL     1     -10.792  14.363  64.852  1.00  0.00    -0.430 C  
HETATM    2  C   UNL     1     -11.425  13.089  65.390  1.00  0.00    -0.344 C  
ENDROOT
BRANCH   2   3
HETATM    3  C   UNL     1     -10.497  12.350  66.311  1.00  0.00    -0.271 C  
HETATM    4  C   UNL     1     -10.640  12.237  67.642  1.00  0.00    -0.238 C  
BRANCH   4   5
HETATM    5  C   UNL     1     -11.748  12.870  68.434  1.00  0.00    -0.382 C  
BRANCH   5   6
HETATM    6  C   UNL     1     -11.589  12.662  69.913  1.00  0.00    -0.248 C  
HETATM    7  C   UNL     1     -12.036  13.499  70.866  1.00  0.00    -0.301 C  
BRANCH   7   8
HETATM    8  C   UNL     1     -12.731  14.798  70.577  1.00  0.00    -0.397 C  
BRANCH   8   9
HETATM    9  C   UNL     1     -11.848  15.986  70.823  1.00  0.00    -0.372 C  
HETATM   10  C   UNL     1     -11.141  16.628  69.876  1.00  0.00    -0.125 C  
BRANCH  10  11
HETATM   11  C   UNL     1     -11.203  16.276  68.417  1.00  0.00    -0.349 C  
BRANCH  11  12
HETATM   12  C   UNL     1     -10.402  17.237  67.545  1.00  0.00    -0.346 C  
BRANCH  12  13
HETATM   13  C   UNL     1      -9.892  18.411  68.381  1.00  0.00    -0.396 C  
BRANCH  13  14
HETATM   14  C   UNL     1      -8.728  19.108  67.684  1.00  0.00    -0.329 C  
BRANCH  14  15
HETATM   15  C   UNL     1      -7.816  19.814  68.687  1.00  0.00    -0.284 C  
BRANCH  15  16
HETATM   16  C   UNL     1      -6.740  18.857  69.196  1.00  0.00    -0.326 C  
BRANCH  16  17
HETATM   17  C   UNL     1      -6.311  17.865  68.120  1.00  0.00    -0.184 C  
HETATM   18  C   UNL     1      -6.489  16.434  68.578  1.00  0.00    -0.134 C  
HETATM   19  O   UNL     1      -6.925  16.085  69.663  1.00  0.00    -0.205 OA 
HETATM   20  O   UNL     1      -6.104  15.543  67.635  1.00  0.00    -0.142 OA 
ENDBRANCH  16  17
ENDBRANCH  15  16
ENDBRANCH  14  15
ENDBRANCH  13  14
ENDBRANCH  12  13
ENDBRANCH  11  12
ENDBRANCH  10  11
ENDBRANCH   8   9
ENDBRANCH   7   8
ENDBRANCH   5   6
ENDBRANCH   4   5
ENDBRANCH   2   3
TORSDOF 12
ENDMDL
MODEL      304
REMARK 921   NORMALIZED FREE ENERGY PREDICTED BY IDOCK:   -3.32 KCAL/MOL
REMARK 922        TOTAL FREE ENERGY PREDICTED BY IDOCK:   -7.49 KCAL/MOL
REMARK 923 INTER-LIGAND FREE ENERGY PREDICTED BY IDOCK:   -6.66 KCAL/MOL
REMARK 924 INTRA-LIGAND FREE ENERGY PREDICTED BY IDOCK:   -0.83 KCAL/MOL
REMARK 927      BINDING AFFINITY PREDICTED BY RF-SCORE:    0.00 PKD
ROOT
HETATM    1  C   UNL     1      -7.503   2.147  71.269  1.00  0.00    -0.033 C  
HETATM    2  C   UNL     1      -8.901   2.364  70.713  1.00  0.00    -0.133 C  
ENDROOT
BRANCH   2   3
HETATM    3  C   UNL     1      -8.924   3.441  69.665  1.00  0.00    -0.177 C  
HETATM    4  C   UNL     1      -9.139   4.747  69.889  1.00  0.00    -0.155 C  
BRANCH   4   5
HETATM    5  C   UNL     1      -9.432   5.342  71.238  1.00  0.00    -0.197 C  
BRANCH   5   6
HETATM    6  C   UNL     1     -10.905   5.465  71.504  1.00  0.00    -0.218 C  
HETATM    7  C   UNL     1     -11.656   6.541  71.213  1.00  0.00    -0.381 C  
BRANCH   7   8
HETATM    8  C   UNL     1     -11.110   7.804  70.612  1.00  0.00    -0.264 C  
BRANCH   8   9
HETATM    9  C   UNL     1     -11.190   8.968  71.555  1.00  0.00    -0.418 C  
HETATM   10  C   UNL     1     -11.673  10.183  71.239  1.00  0.00    -0.426 C  
BRANCH  10  11
HETATM   11  C   UNL     1     -12.269  10.512  69.899  1.00  0.00    -0.289 C  
BRANCH  11  12
HETATM   12  C   UNL     1     -11.294  11.250  68.988  1.00  0.00    -0.344 C  
BRANCH  12  13
HETATM   13  C   UNL     1     -11.897  11.421  67.594  1.00  0.00    -0.157 C  
BRANCH  13  14
HETATM   14  C   UNL     1     -11.695  12.845  67.086  1.00  0.00    -0.437 C  
BRANCH  14  15
HETATM   15  C   UNL     1     -10.667  12.896  65.956  1.00  0.00    -0.296 C  
BRANCH  15  16
HETATM   16  C   UNL     1     -10.928  14.099  65.051  1.00  0.00    -0.391 C  
BRANCH  16  17
HETATM   17  C   UNL     1     -10.425  15.396  65.677  1.00  0.00    -0.391 C  
HETATM   18  C   UNL     1     -10.869  16.606  64.886  1.00  0.00    -0.142 C  
HETATM   19  O   UNL     1     -11.552  16.580  63.874  1.00  0.00    -1.175 OA 
HETATM   20  O   UNL     1     -10.423  17.764  65.425  1.00  0.00    -0.641 OA 
ENDBRANCH  16  17
ENDBRANCH  15  16
ENDBRANCH  14  15
ENDBRANCH  13  14
ENDBRANCH  12  13
ENDBRANCH  11  12
ENDBRANCH  10  11
ENDBRANCH   8   9
ENDBRANCH   7   8
ENDBRANCH   5   6
ENDBRANCH   4   5
ENDBRANCH   2   3
TORSDOF 12
ENDMDL
MODEL      305
REMARK 921   NORMALIZED FREE ENERGY PREDICTED BY IDOCK:   -3.32 KCAL/MOL
REMARK 922        TOTAL FREE ENERGY PREDICTED BY IDOCK:   -7.49 KCAL/MOL
REMARK 923 INTER-LIGAND FREE ENERGY PREDICTED BY IDOCK:   -5.68 KCAL/MOL
REMARK 924 INTRA-LIGAND FREE ENERGY PREDICTED BY IDOCK:   -1.81 KCAL/MOL
REMARK 927      BINDING AFFINITY PREDICTED BY RF-SCORE:    0.00 PKD
ROOT
HETATM    1  C   UNL     1      -6.659   8.974  67.625  1.00  0.00    -0.061 C  
HETATM    2  C   UNL     1      -6.487  10.118  68.612  1.00  0.00    -0.052 C  
ENDROOT
BRANCH   2   3
HETATM    3  C   UNL     1      -6.363  11.443  67.914  1.00  0.00    -0.055 C  
HETATM    4  C   UNL     1      -7.376  12.282  67.642  1.00  0.00    -0.127 C  
BRANCH   4   5
HETATM    5  C   UNL     1      -8.817  12.008  67.966  1.00  0.00    -0.179 C  
BRANCH   5   6
HETATM    6  C   UNL     1      -9.541  11.332  66.836  1.00  0.00    -0.210 C  
HETATM    7  C   UNL     1     -10.873  11.161  66.762  1.00  0.00    -0.322 C  
BRANCH   7   8
HETATM    8  C   UNL     1     -11.831  11.592  67.836  1.00  0.00    -0.255 C  
BRANCH   8   9
HETATM    9  C   UNL     1     -11.833  13.079  68.037  1.00  0.00    -0.391 C  
HETATM   10  C   UNL     1     -12.202  13.980  67.110  1.00  0.00    -0.356 C  
BRANCH  10  11
HETATM   11  C   UNL     1     -12.736  13.603  65.757  1.00  0.00    -0.470 C  
BRANCH  11  12
HETATM   12  C   UNL     1     -11.997  14.298  64.619  1.00  0.00    -0.468 C  
BRANCH  12  13
HETATM   13  C   UNL     1     -10.492  14.305  64.889  1.00  0.00    -0.454 C  
BRANCH  13  14
HETATM   14  C   UNL     1     -10.036  15.673  65.386  1.00  0.00    -0.370 C  
BRANCH  14  15
HETATM   15  C   UNL     1      -8.846  15.556  66.338  1.00  0.00    -0.359 C  
BRANCH  15  16
HETATM   16  C   UNL     1      -9.258  15.939  67.757  1.00  0.00    -0.201 C  
BRANCH  16  17
HETATM   17  C   UNL     1     -10.300  17.052  67.762  1.00  0.00    -0.335 C  
HETATM   18  C   UNL     1      -9.668  18.407  67.992  1.00  0.00    -0.316 C  
HETATM   19  O   UNL     1      -8.476  18.616  68.150  1.00  0.00    -0.293 OA 
HETATM   20  O   UNL     1     -10.583  19.404  68.007  1.00  0.00    -0.407 OA 
ENDBRANCH  16  17
ENDBRANCH  15  16
ENDBRANCH  14  15
ENDBRANCH  13  14
ENDBRANCH  12  13
ENDBRANCH  11  12
ENDBRANCH  10  11
ENDBRANCH   8   9
ENDBRANCH   7   8
ENDBRANCH   5   6
ENDBRANCH   4   5
ENDBRANCH   2   3
TORSDOF 12
ENDMDL
MODEL      306
REMARK 921   NORMALIZED FREE ENERGY PREDICTED BY IDOCK:   -3.32 KCAL/MOL
REMARK 922        TOTAL FREE ENERGY PREDICTED BY IDOCK:   -7.49 KCAL/MOL
REMARK 923 INTER-LIGAND FREE ENERGY PREDICTED BY IDOCK:   -6.52 KCAL/MOL
REMARK 924 INTRA-LIGAND FREE ENERGY PREDICTED BY IDOCK:   -0.97 KCAL/MOL
REMARK 927      BINDING AFFINITY PREDICTED BY RF-SCORE:    0.00 PKD
ROOT
HETATM    1  C   UNL     1     -11.167   6.273  70.504  1.00  0.00    -0.420 C  
HETATM    2  C   UNL     1     -12.072   7.478  70.702  1.00  0.00    -0.116 C  
ENDROOT
BRANCH   2   3
HETATM    3  C   UNL     1     -11.394   8.561  71.493  1.00  0.00    -0.348 C  
HETATM    4  C   UNL     1     -11.251   9.840  71.107  1.00  0.00    -0.444 C  
BRANCH   4   5
HETATM    5  C   UNL     1     -11.722  10.388  69.790  1.00  0.00    -0.310 C  
BRANCH   5   6
HETATM    6  C   UNL     1     -10.616  11.044  69.013  1.00  0.00    -0.258 C  
HETATM    7  C   UNL     1     -10.642  12.304  68.543  1.00  0.00    -0.254 C  
BRANCH   7   8
HETATM    8  C   UNL     1     -11.816  13.228  68.697  1.00  0.00    -0.380 C  
BRANCH   8   9
HETATM    9  C   UNL     1     -11.600  14.251  69.773  1.00  0.00    -0.350 C  
HETATM   10  C   UNL     1     -11.201  15.518  69.561  1.00  0.00    -0.300 C  
BRANCH  10  11
HETATM   11  C   UNL     1     -10.985  16.098  68.192  1.00  0.00    -0.341 C  
BRANCH  11  12
HETATM   12  C   UNL     1     -10.459  17.529  68.236  1.00  0.00    -0.383 C  
BRANCH  12  13
HETATM   13  C   UNL     1     -10.518  18.159  66.844  1.00  0.00    -0.372 C  
BRANCH  13  14
HETATM   14  C   UNL     1      -9.178  18.788  66.477  1.00  0.00    -0.336 C  
BRANCH  14  15
HETATM   15  C   UNL     1      -9.070  20.221  66.999  1.00  0.00    -0.481 C  
BRANCH  15  16
HETATM   16  C   UNL     1      -7.711  20.447  67.660  1.00  0.00    -0.312 C  
BRANCH  16  17
HETATM   17  C   UNL     1      -6.990  19.130  67.932  1.00  0.00    -0.254 C  
HETATM   18  C   UNL     1      -6.363  19.113  69.308  1.00  0.00    -0.289 C  
HETATM   19  O   UNL     1      -6.416  20.020  70.124  1.00  0.00    -0.360 OA 
HETATM   20  O   UNL     1      -5.711  17.954  69.560  1.00  0.00    -0.206 OA 
ENDBRANCH  16  17
ENDBRANCH  15  16
ENDBRANCH  14  15
ENDBRANCH  13  14
ENDBRANCH  12  13
ENDBRANCH  11  12
ENDBRANCH  10  11
ENDBRANCH   8   9
ENDBRANCH   7   8
ENDBRANCH   5   6
ENDBRANCH   4   5
ENDBRANCH   2   3
TORSDOF 12
ENDMDL
MODEL      307
REMARK 921   NORMALIZED FREE ENERGY PREDICTED BY IDOCK:   -3.31 KCAL/MOL
REMARK 922        TOTAL FREE ENERGY PREDICTED BY IDOCK:   -7.48 KCAL/MOL
REMARK 923 INTER-LIGAND FREE ENERGY PREDICTED BY IDOCK:   -5.53 KCAL/MOL
REMARK 924 INTRA-LIGAND FREE ENERGY PREDICTED BY IDOCK:   -1.95 KCAL/MOL
REMARK 927      BINDING AFFINITY PREDICTED BY RF-SCORE:    0.00 PKD
ROOT
HETATM    1  C   UNL     1     -12.723  13.568  65.561  1.00  0.00    -0.493 C  
HETATM    2  C   UNL     1     -11.711  14.024  64.522  1.00  0.00    -0.428 C  
ENDROOT
BRANCH   2   3
HETATM    3  C   UNL     1     -11.127  15.366  64.863  1.00  0.00    -0.435 C  
HETATM    4  C   UNL     1     -10.062  15.579  65.653  1.00  0.00    -0.406 C  
BRANCH   4   5
HETATM    5  C   UNL     1      -9.298  14.495  66.360  1.00  0.00    -0.300 C  
BRANCH   5   6
HETATM    6  C   UNL     1      -9.775  14.280  67.767  1.00  0.00    -0.222 C  
HETATM    7  C   UNL     1      -9.034  13.771  68.767  1.00  0.00     0.042 C  
BRANCH   7   8
HETATM    8  C   UNL     1      -7.617  13.301  68.601  1.00  0.00    -0.094 C  
BRANCH   8   9
HETATM    9  C   UNL     1      -6.683  13.943  69.585  1.00  0.00    -0.039 C  
HETATM   10  C   UNL     1      -5.623  14.703  69.256  1.00  0.00    -0.092 C  
BRANCH  10  11
HETATM   11  C   UNL     1      -5.276  15.069  67.841  1.00  0.00    -0.096 C  
BRANCH  11  12
HETATM   12  C   UNL     1      -6.117  16.226  67.310  1.00  0.00    -0.189 C  
BRANCH  12  13
HETATM   13  C   UNL     1      -6.569  17.125  68.461  1.00  0.00    -0.167 C  
BRANCH  13  14
HETATM   14  C   UNL     1      -7.878  17.829  68.118  1.00  0.00    -0.264 C  
BRANCH  14  15
HETATM   15  C   UNL     1      -7.929  19.236  68.711  1.00  0.00    -0.392 C  
BRANCH  15  16
HETATM   16  C   UNL     1      -8.540  20.215  67.710  1.00  0.00    -0.318 C  
BRANCH  16  17
HETATM   17  C   UNL     1      -8.914  19.525  66.401  1.00  0.00    -0.410 C  
HETATM   18  C   UNL     1     -10.413  19.407  66.242  1.00  0.00    -0.493 C  
HETATM   19  O   UNL     1     -11.246  19.810  67.039  1.00  0.00    -0.276 OA 
HETATM   20  O   UNL     1     -10.759  18.789  65.088  1.00  0.00    -0.457 OA 
ENDBRANCH  16  17
ENDBRANCH  15  16
ENDBRANCH  14  15
ENDBRANCH  13  14
ENDBRANCH  12  13
ENDBRANCH  11  12
ENDBRANCH  10  11
ENDBRANCH   8   9
ENDBRANCH   7   8
ENDBRANCH   5   6
ENDBRANCH   4   5
ENDBRANCH   2   3
TORSDOF 12
ENDMDL
MODEL      308
REMARK 921   NORMALIZED FREE ENERGY PREDICTED BY IDOCK:   -3.31 KCAL/MOL
REMARK 922        TOTAL FREE ENERGY PREDICTED BY IDOCK:   -7.47 KCAL/MOL
REMARK 923 INTER-LIGAND FREE ENERGY PREDICTED BY IDOCK:   -6.31 KCAL/MOL
REMARK 924 INTRA-LIGAND FREE ENERGY PREDICTED BY IDOCK:   -1.16 KCAL/MOL
REMARK 927      BINDING AFFINITY PREDICTED BY RF-SCORE:    0.00 PKD
ROOT
HETATM    1  C   UNL     1      -6.178  19.281  68.989  1.00  0.00    -0.291 C  
HETATM    2  C   UNL     1      -6.675  20.381  68.064  1.00  0.00    -0.336 C  
ENDROOT
BRANCH   2   3
HETATM    3  C   UNL     1      -7.044  19.846  66.709  1.00  0.00    -0.247 C  
HETATM    4  C   UNL     1      -8.292  19.596  66.279  1.00  0.00    -0.372 C  
BRANCH   4   5
HETATM    5  C   UNL     1      -9.530  19.781  67.110  1.00  0.00    -0.471 C  
BRANCH   5   6
HETATM    6  C   UNL     1      -9.737  18.661  68.089  1.00  0.00    -0.372 C  
HETATM    7  C   UNL     1     -10.204  17.439  67.780  1.00  0.00    -0.345 C  
BRANCH   7   8
HETATM    8  C   UNL     1     -10.631  17.033  66.399  1.00  0.00    -0.172 C  
BRANCH   8   9
HETATM    9  C   UNL     1      -9.810  15.899  65.858  1.00  0.00    -0.383 C  
HETATM   10  C   UNL     1     -10.313  14.786  65.294  1.00  0.00    -0.425 C  
BRANCH  10  11
HETATM   11  C   UNL     1     -11.782  14.566  65.067  1.00  0.00    -0.392 C  
BRANCH  11  12
HETATM   12  C   UNL     1     -12.405  13.640  66.105  1.00  0.00    -0.476 C  
BRANCH  12  13
HETATM   13  C   UNL     1     -11.417  12.542  66.498  1.00  0.00    -0.418 C  
BRANCH  13  14
HETATM   14  C   UNL     1     -11.314  12.421  68.015  1.00  0.00    -0.340 C  
BRANCH  14  15
HETATM   15  C   UNL     1     -11.899  11.100  68.513  1.00  0.00    -0.330 C  
BRANCH  15  16
HETATM   16  C   UNL     1     -10.788  10.078  68.746  1.00  0.00    -0.252 C  
BRANCH  16  17
HETATM   17  C   UNL     1      -9.513  10.738  69.261  1.00  0.00    -0.103 C  
HETATM   18  C   UNL     1      -8.614   9.743  69.960  1.00  0.00    -0.204 C  
HETATM   19  O   UNL     1      -8.848   8.553  70.104  1.00  0.00    -0.132 OA 
HETATM   20  O   UNL     1      -7.482  10.316  70.431  1.00  0.00    -0.250 OA 
ENDBRANCH  16  17
ENDBRANCH  15  16
ENDBRANCH  14  15
ENDBRANCH  13  14
ENDBRANCH  12  13
ENDBRANCH  11  12
ENDBRANCH  10  11
ENDBRANCH   8   9
ENDBRANCH   7   8
ENDBRANCH   5   6
ENDBRANCH   4   5
ENDBRANCH   2   3
TORSDOF 12
ENDMDL
MODEL      309
REMARK 921   NORMALIZED FREE ENERGY PREDICTED BY IDOCK:   -3.31 KCAL/MOL
REMARK 922        TOTAL FREE ENERGY PREDICTED BY IDOCK:   -7.47 KCAL/MOL
REMARK 923 INTER-LIGAND FREE ENERGY PREDICTED BY IDOCK:   -6.06 KCAL/MOL
REMARK 924 INTRA-LIGAND FREE ENERGY PREDICTED BY IDOCK:   -1.41 KCAL/MOL
REMARK 927      BINDING AFFINITY PREDICTED BY RF-SCORE:    0.00 PKD
ROOT
HETATM    1  C   UNL     1      -6.367  19.716  68.117  1.00  0.00    -0.267 C  
HETATM    2  C   UNL     1      -7.715  19.812  68.813  1.00  0.00    -0.273 C  
ENDROOT
BRANCH   2   3
HETATM    3  C   UNL     1      -8.851  19.810  67.829  1.00  0.00    -0.386 C  
HETATM    4  C   UNL     1      -9.800  18.864  67.730  1.00  0.00    -0.389 C  
BRANCH   4   5
HETATM    5  C   UNL     1      -9.853  17.623  68.575  1.00  0.00    -0.346 C  
BRANCH   5   6
HETATM    6  C   UNL     1      -8.919  16.554  68.085  1.00  0.00    -0.207 C  
HETATM    7  C   UNL     1      -9.266  15.528  67.288  1.00  0.00    -0.219 C  
BRANCH   7   8
HETATM    8  C   UNL     1     -10.666  15.282  66.804  1.00  0.00    -0.313 C  
BRANCH   8   9
HETATM    9  C   UNL     1     -10.808  15.505  65.327  1.00  0.00    -0.425 C  
HETATM   10  C   UNL     1     -11.747  14.935  64.550  1.00  0.00    -0.388 C  
BRANCH  10  11
HETATM   11  C   UNL     1     -12.833  14.046  65.085  1.00  0.00    -0.368 C  
BRANCH  11  12
HETATM   12  C   UNL     1     -12.511  12.564  64.926  1.00  0.00    -0.524 C  
BRANCH  12  13
HETATM   13  C   UNL     1     -12.089  12.264  63.487  1.00  0.00    -0.649 C  
BRANCH  13  14
HETATM   14  C   UNL     1     -10.725  11.583  63.452  1.00  0.00    -0.444 C  
BRANCH  14  15
HETATM   15  C   UNL     1     -10.122  11.465  64.851  1.00  0.00    -0.323 C  
BRANCH  15  16
HETATM   16  C   UNL     1      -8.753  10.791  64.787  1.00  0.00    -0.118 C  
BRANCH  16  17
HETATM   17  C   UNL     1      -8.492   9.923  66.014  1.00  0.00    -0.135 C  
HETATM   18  C   UNL     1      -7.036   9.956  66.421  1.00  0.00    -0.096 C  
HETATM   19  O   UNL     1      -6.157  10.594  65.863  1.00  0.00    -0.115 OA 
HETATM   20  O   UNL     1      -6.789   9.183  67.504  1.00  0.00    -0.075 OA 
ENDBRANCH  16  17
ENDBRANCH  15  16
ENDBRANCH  14  15
ENDBRANCH  13  14
ENDBRANCH  12  13
ENDBRANCH  11  12
ENDBRANCH  10  11
ENDBRANCH   8   9
ENDBRANCH   7   8
ENDBRANCH   5   6
ENDBRANCH   4   5
ENDBRANCH   2   3
TORSDOF 12
ENDMDL
MODEL      310
REMARK 921   NORMALIZED FREE ENERGY PREDICTED BY IDOCK:   -3.30 KCAL/MOL
REMARK 922        TOTAL FREE ENERGY PREDICTED BY IDOCK:   -7.46 KCAL/MOL
REMARK 923 INTER-LIGAND FREE ENERGY PREDICTED BY IDOCK:   -5.60 KCAL/MOL
REMARK 924 INTRA-LIGAND FREE ENERGY PREDICTED BY IDOCK:   -1.86 KCAL/MOL
REMARK 927      BINDING AFFINITY PREDICTED BY RF-SCORE:    0.00 PKD
ROOT
HETATM    1  C   UNL     1     -10.693  12.719  65.321  1.00  0.00    -0.319 C  
HETATM    2  C   UNL     1     -11.454  12.562  66.628  1.00  0.00    -0.417 C  
ENDROOT
BRANCH   2   3
HETATM    3  C   UNL     1     -11.270  11.193  67.220  1.00  0.00    -0.347 C  
HETATM    4  C   UNL     1     -10.265  10.819  68.029  1.00  0.00    -0.203 C  
BRANCH   4   5
HETATM    5  C   UNL     1      -9.132  11.713  68.446  1.00  0.00    -0.180 C  
BRANCH   5   6
HETATM    6  C   UNL     1      -7.951  11.611  67.524  1.00  0.00    -0.141 C  
HETATM    7  C   UNL     1      -6.888  12.435  67.534  1.00  0.00    -0.143 C  
BRANCH   7   8
HETATM    8  C   UNL     1      -6.753  13.614  68.454  1.00  0.00    -0.100 C  
BRANCH   8   9
HETATM    9  C   UNL     1      -6.546  14.899  67.709  1.00  0.00    -0.187 C  
HETATM   10  C   UNL     1      -7.533  15.679  67.232  1.00  0.00    -0.257 C  
BRANCH  10  11
HETATM   11  C   UNL     1      -8.991  15.393  67.451  1.00  0.00    -0.202 C  
BRANCH  11  12
HETATM   12  C   UNL     1      -9.499  15.919  68.789  1.00  0.00    -0.221 C  
BRANCH  12  13
HETATM   13  C   UNL     1     -10.592  16.966  68.567  1.00  0.00    -0.367 C  
BRANCH  13  14
HETATM   14  C   UNL     1     -10.370  17.712  67.255  1.00  0.00    -0.354 C  
BRANCH  14  15
HETATM   15  C   UNL     1     -10.698  19.198  67.393  1.00  0.00    -0.578 C  
BRANCH  15  16
HETATM   16  C   UNL     1      -9.484  20.049  67.027  1.00  0.00    -0.523 C  
BRANCH  16  17
HETATM   17  C   UNL     1      -8.440  19.244  66.260  1.00  0.00    -0.328 C  
HETATM   18  C   UNL     1      -7.082  19.909  66.300  1.00  0.00    -0.255 C  
HETATM   19  O   UNL     1      -6.821  20.955  66.872  1.00  0.00    -0.291 OA 
HETATM   20  O   UNL     1      -6.148  19.208  65.615  1.00  0.00    -0.185 OA 
ENDBRANCH  16  17
ENDBRANCH  15  16
ENDBRANCH  14  15
ENDBRANCH  13  14
ENDBRANCH  12  13
ENDBRANCH  11  12
ENDBRANCH  10  11
ENDBRANCH   8   9
ENDBRANCH   7   8
ENDBRANCH   5   6
ENDBRANCH   4   5
ENDBRANCH   2   3
TORSDOF 12
ENDMDL
MODEL      311
REMARK 921   NORMALIZED FREE ENERGY PREDICTED BY IDOCK:   -3.30 KCAL/MOL
REMARK 922        TOTAL FREE ENERGY PREDICTED BY IDOCK:   -7.46 KCAL/MOL
REMARK 923 INTER-LIGAND FREE ENERGY PREDICTED BY IDOCK:   -5.36 KCAL/MOL
REMARK 924 INTRA-LIGAND FREE ENERGY PREDICTED BY IDOCK:   -2.10 KCAL/MOL
REMARK 927      BINDING AFFINITY PREDICTED BY RF-SCORE:    0.00 PKD
ROOT
HETATM    1  C   UNL     1     -12.298  10.978  70.485  1.00  0.00    -0.462 C  
HETATM    2  C   UNL     1     -11.857  12.359  70.025  1.00  0.00    -0.363 C  
ENDROOT
BRANCH   2   3
HETATM    3  C   UNL     1     -12.453  13.446  70.873  1.00  0.00    -0.439 C  
HETATM    4  C   UNL     1     -12.549  14.742  70.531  1.00  0.00    -0.416 C  
BRANCH   4   5
HETATM    5  C   UNL     1     -12.034  15.322  69.245  1.00  0.00    -0.327 C  
BRANCH   5   6
HETATM    6  C   UNL     1     -10.867  16.244  69.456  1.00  0.00    -0.342 C  
HETATM    7  C   UNL     1      -9.582  15.937  69.207  1.00  0.00    -0.266 C  
BRANCH   7   8
HETATM    8  C   UNL     1      -9.125  14.593  68.717  1.00  0.00    -0.178 C  
BRANCH   8   9
HETATM    9  C   UNL     1      -7.658  14.569  68.402  1.00  0.00    -0.122 C  
HETATM   10  C   UNL     1      -7.020  13.558  67.785  1.00  0.00    -0.164 C  
BRANCH  10  11
HETATM   11  C   UNL     1      -7.721  12.336  67.262  1.00  0.00    -0.161 C  
BRANCH  11  12
HETATM   12  C   UNL     1      -7.251  11.053  67.940  1.00  0.00    -0.086 C  
BRANCH  12  13
HETATM   13  C   UNL     1      -8.108  10.759  69.172  1.00  0.00    -0.133 C  
BRANCH  13  14
HETATM   14  C   UNL     1      -9.233   9.788  68.830  1.00  0.00    -0.143 C  
BRANCH  14  15
HETATM   15  C   UNL     1      -8.927   9.002  67.555  1.00  0.00    -0.131 C  
BRANCH  15  16
HETATM   16  C   UNL     1      -9.960   9.314  66.474  1.00  0.00    -0.344 C  
BRANCH  16  17
HETATM   17  C   UNL     1     -11.008  10.308  66.965  1.00  0.00    -0.189 C  
HETATM   18  C   UNL     1     -11.127  11.496  66.036  1.00  0.00    -0.230 C  
HETATM   19  O   UNL     1     -10.486  11.662  65.010  1.00  0.00    -0.261 OA 
HETATM   20  O   UNL     1     -12.048  12.390  66.463  1.00  0.00    -0.599 OA 
ENDBRANCH  16  17
ENDBRANCH  15  16
ENDBRANCH  14  15
ENDBRANCH  13  14
ENDBRANCH  12  13
ENDBRANCH  11  12
ENDBRANCH  10  11
ENDBRANCH   8   9
ENDBRANCH   7   8
ENDBRANCH   5   6
ENDBRANCH   4   5
ENDBRANCH   2   3
TORSDOF 12
ENDMDL
MODEL      312
REMARK 921   NORMALIZED FREE ENERGY PREDICTED BY IDOCK:   -3.28 KCAL/MOL
REMARK 922        TOTAL FREE ENERGY PREDICTED BY IDOCK:   -7.43 KCAL/MOL
REMARK 923 INTER-LIGAND FREE ENERGY PREDICTED BY IDOCK:   -5.92 KCAL/MOL
REMARK 924 INTRA-LIGAND FREE ENERGY PREDICTED BY IDOCK:   -1.51 KCAL/MOL
REMARK 927      BINDING AFFINITY PREDICTED BY RF-SCORE:    0.00 PKD
ROOT
HETATM    1  C   UNL     1     -12.034  12.711  65.070  1.00  0.00    -0.467 C  
HETATM    2  C   UNL     1     -11.073  12.187  66.125  1.00  0.00    -0.354 C  
ENDROOT
BRANCH   2   3
HETATM    3  C   UNL     1     -11.733  12.065  67.470  1.00  0.00    -0.351 C  
HETATM    4  C   UNL     1     -11.774  13.022  68.411  1.00  0.00    -0.386 C  
BRANCH   4   5
HETATM    5  C   UNL     1     -11.127  14.372  68.281  1.00  0.00    -0.275 C  
BRANCH   5   6
HETATM    6  C   UNL     1     -11.520  15.307  69.389  1.00  0.00    -0.329 C  
HETATM    7  C   UNL     1     -11.132  16.590  69.493  1.00  0.00    -0.245 C  
BRANCH   7   8
HETATM    8  C   UNL     1     -10.204  17.264  68.523  1.00  0.00    -0.358 C  
BRANCH   8   9
HETATM    9  C   UNL     1     -10.853  18.418  67.819  1.00  0.00    -0.268 C  
HETATM   10  C   UNL     1     -10.290  19.627  67.642  1.00  0.00    -0.583 C  
BRANCH  10  11
HETATM   11  C   UNL     1      -8.889  19.956  68.073  1.00  0.00    -0.335 C  
BRANCH  11  12
HETATM   12  C   UNL     1      -7.957  20.216  66.895  1.00  0.00    -0.356 C  
BRANCH  12  13
HETATM   13  C   UNL     1      -7.698  18.919  66.127  1.00  0.00    -0.281 C  
BRANCH  13  14
HETATM   14  C   UNL     1      -6.201  18.655  65.998  1.00  0.00    -0.236 C  
BRANCH  14  15
HETATM   15  C   UNL     1      -5.841  17.241  66.454  1.00  0.00    -0.222 C  
BRANCH  15  16
HETATM   16  C   UNL     1      -7.091  16.495  66.916  1.00  0.00    -0.262 C  
BRANCH  16  17
HETATM   17  C   UNL     1      -6.746  15.139  67.524  1.00  0.00    -0.189 C  
HETATM   18  C   UNL     1      -6.684  15.204  69.034  1.00  0.00    -0.120 C  
HETATM   19  O   UNL     1      -6.886  16.201  69.710  1.00  0.00    -0.188 OA 
HETATM   20  O   UNL     1      -6.371  14.009  69.587  1.00  0.00    -0.118 OA 
ENDBRANCH  16  17
ENDBRANCH  15  16
ENDBRANCH  14  15
ENDBRANCH  13  14
ENDBRANCH  12  13
ENDBRANCH  11  12
ENDBRANCH  10  11
ENDBRANCH   8   9
ENDBRANCH   7   8
ENDBRANCH   5   6
ENDBRANCH   4   5
ENDBRANCH   2   3
TORSDOF 12
ENDMDL
MODEL      313
REMARK 921   NORMALIZED FREE ENERGY PREDICTED BY IDOCK:   -3.28 KCAL/MOL
REMARK 922        TOTAL FREE ENERGY PREDICTED BY IDOCK:   -7.43 KCAL/MOL
REMARK 923 INTER-LIGAND FREE ENERGY PREDICTED BY IDOCK:   -5.13 KCAL/MOL
REMARK 924 INTRA-LIGAND FREE ENERGY PREDICTED BY IDOCK:   -2.30 KCAL/MOL
REMARK 927      BINDING AFFINITY PREDICTED BY RF-SCORE:    0.00 PKD
ROOT
HETATM    1  C   UNL     1     -12.841  12.675  64.360  1.00  0.00    -0.344 C  
HETATM    2  C   UNL     1     -12.197  13.280  65.598  1.00  0.00    -0.514 C  
ENDROOT
BRANCH   2   3
HETATM    3  C   UNL     1     -10.700  13.153  65.567  1.00  0.00    -0.297 C  
HETATM    4  C   UNL     1      -9.971  12.304  66.309  1.00  0.00    -0.249 C  
BRANCH   4   5
HETATM    5  C   UNL     1     -10.542  11.358  67.327  1.00  0.00    -0.264 C  
BRANCH   5   6
HETATM    6  C   UNL     1     -10.294   9.919  66.977  1.00  0.00    -0.303 C  
HETATM    7  C   UNL     1      -9.216   9.206  67.351  1.00  0.00    -0.150 C  
BRANCH   7   8
HETATM    8  C   UNL     1      -8.075   9.772  68.146  1.00  0.00    -0.108 C  
BRANCH   8   9
HETATM    9  C   UNL     1      -7.023  10.391  67.273  1.00  0.00    -0.086 C  
HETATM   10  C   UNL     1      -6.312  11.490  67.587  1.00  0.00    -0.066 C  
BRANCH  10  11
HETATM   11  C   UNL     1      -6.436  12.206  68.901  1.00  0.00    -0.088 C  
BRANCH  11  12
HETATM   12  C   UNL     1      -7.409  13.379  68.842  1.00  0.00    -0.033 C  
BRANCH  12  13
HETATM   13  C   UNL     1      -7.190  14.186  67.562  1.00  0.00    -0.188 C  
BRANCH  13  14
HETATM   14  C   UNL     1      -7.949  15.507  67.616  1.00  0.00    -0.168 C  
BRANCH  14  15
HETATM   15  C   UNL     1      -9.236  15.381  68.432  1.00  0.00    -0.192 C  
BRANCH  15  16
HETATM   16  C   UNL     1     -10.385  16.102  67.731  1.00  0.00    -0.283 C  
BRANCH  16  17
HETATM   17  C   UNL     1     -10.476  17.565  68.155  1.00  0.00    -0.386 C  
HETATM   18  C   UNL     1     -10.352  18.497  66.971  1.00  0.00    -0.399 C  
HETATM   19  O   UNL     1     -10.204  18.153  65.809  1.00  0.00    -0.580 OA 
HETATM   20  O   UNL     1     -10.422  19.799  67.334  1.00  0.00    -0.427 OA 
ENDBRANCH  16  17
ENDBRANCH  15  16
ENDBRANCH  14  15
ENDBRANCH  13  14
ENDBRANCH  12  13
ENDBRANCH  11  12
ENDBRANCH  10  11
ENDBRANCH   8   9
ENDBRANCH   7   8
ENDBRANCH   5   6
ENDBRANCH   4   5
ENDBRANCH   2   3
TORSDOF 12
ENDMDL
MODEL      314
REMARK 921   NORMALIZED FREE ENERGY PREDICTED BY IDOCK:   -3.28 KCAL/MOL
REMARK 922        TOTAL FREE ENERGY PREDICTED BY IDOCK:   -7.43 KCAL/MOL
REMARK 923 INTER-LIGAND FREE ENERGY PREDICTED BY IDOCK:   -5.56 KCAL/MOL
REMARK 924 INTRA-LIGAND FREE ENERGY PREDICTED BY IDOCK:   -1.87 KCAL/MOL
REMARK 927      BINDING AFFINITY PREDICTED BY RF-SCORE:    0.00 PKD
ROOT
HETATM    1  C   UNL     1      -9.508  13.503  67.707  1.00  0.00    -0.216 C  
HETATM    2  C   UNL     1     -10.984  13.366  68.044  1.00  0.00    -0.265 C  
ENDROOT
BRANCH   2   3
HETATM    3  C   UNL     1     -11.492  11.978  67.773  1.00  0.00    -0.394 C  
HETATM    4  C   UNL     1     -11.734  11.038  68.701  1.00  0.00    -0.367 C  
BRANCH   4   5
HETATM    5  C   UNL     1     -11.498  11.216  70.174  1.00  0.00    -0.361 C  
BRANCH   5   6
HETATM    6  C   UNL     1     -12.762  11.093  70.977  1.00  0.00    -0.476 C  
HETATM    7  C   UNL     1     -13.013  10.131  71.882  1.00  0.00    -0.549 C  
BRANCH   7   8
HETATM    8  C   UNL     1     -12.068   9.006  72.189  1.00  0.00    -0.412 C  
BRANCH   8   9
HETATM    9  C   UNL     1     -12.337   7.789  71.354  1.00  0.00    -0.346 C  
HETATM   10  C   UNL     1     -11.895   6.550  71.634  1.00  0.00    -0.384 C  
BRANCH  10  11
HETATM   11  C   UNL     1     -11.123   6.210  72.877  1.00  0.00    -0.281 C  
BRANCH  11  12
HETATM   12  C   UNL     1      -9.701   5.748  72.578  1.00  0.00    -0.175 C  
BRANCH  12  13
HETATM   13  C   UNL     1      -8.811   6.949  72.252  1.00  0.00    -0.141 C  
BRANCH  13  14
HETATM   14  C   UNL     1      -8.650   7.111  70.744  1.00  0.00    -0.146 C  
BRANCH  14  15
HETATM   15  C   UNL     1      -9.098   8.496  70.279  1.00  0.00    -0.158 C  
BRANCH  15  16
HETATM   16  C   UNL     1      -8.863   8.657  68.779  1.00  0.00    -0.139 C  
BRANCH  16  17
HETATM   17  C   UNL     1      -9.051   7.340  68.033  1.00  0.00    -0.133 C  
HETATM   18  C   UNL     1     -10.202   7.413  67.054  1.00  0.00    -0.287 C  
HETATM   19  O   UNL     1     -10.906   8.392  66.858  1.00  0.00    -0.211 OA 
HETATM   20  O   UNL     1     -10.386   6.248  66.391  1.00  0.00    -0.120 OA 
ENDBRANCH  16  17
ENDBRANCH  15  16
ENDBRANCH  14  15
ENDBRANCH  13  14
ENDBRANCH  12  13
ENDBRANCH  11  12
ENDBRANCH  10  11
ENDBRANCH   8   9
ENDBRANCH   7   8
ENDBRANCH   5   6
ENDBRANCH   4   5
ENDBRANCH   2   3
TORSDOF 12
ENDMDL
MODEL      315
REMARK 921   NORMALIZED FREE ENERGY PREDICTED BY IDOCK:   -3.27 KCAL/MOL
REMARK 922        TOTAL FREE ENERGY PREDICTED BY IDOCK:   -7.40 KCAL/MOL
REMARK 923 INTER-LIGAND FREE ENERGY PREDICTED BY IDOCK:   -5.52 KCAL/MOL
REMARK 924 INTRA-LIGAND FREE ENERGY PREDICTED BY IDOCK:   -1.88 KCAL/MOL
REMARK 927      BINDING AFFINITY PREDICTED BY RF-SCORE:    0.00 PKD
ROOT
HETATM    1  C   UNL     1     -10.330   8.642  68.761  1.00  0.00    -0.228 C  
HETATM    2  C   UNL     1      -9.340   9.795  68.807  1.00  0.00    -0.150 C  
ENDROOT
BRANCH   2   3
HETATM    3  C   UNL     1     -10.035  11.127  68.827  1.00  0.00    -0.207 C  
HETATM    4  C   UNL     1      -9.624  12.234  68.187  1.00  0.00    -0.213 C  
BRANCH   4   5
HETATM    5  C   UNL     1      -8.368  12.326  67.368  1.00  0.00    -0.177 C  
BRANCH   5   6
HETATM    6  C   UNL     1      -7.136  12.457  68.218  1.00  0.00    -0.098 C  
HETATM    7  C   UNL     1      -6.506  13.613  68.493  1.00  0.00    -0.090 C  
BRANCH   7   8
HETATM    8  C   UNL     1      -6.928  14.946  67.946  1.00  0.00    -0.170 C  
BRANCH   8   9
HETATM    9  C   UNL     1      -7.276  15.924  69.030  1.00  0.00    -0.177 C  
HETATM   10  C   UNL     1      -7.274  17.262  68.888  1.00  0.00    -0.243 C  
BRANCH  10  11
HETATM   11  C   UNL     1      -6.987  17.954  67.586  1.00  0.00    -0.204 C  
BRANCH  11  12
HETATM   12  C   UNL     1      -8.252  18.256  66.789  1.00  0.00    -0.269 C  
BRANCH  12  13
HETATM   13  C   UNL     1      -9.468  18.285  67.716  1.00  0.00    -0.281 C  
BRANCH  13  14
HETATM   14  C   UNL     1     -10.448  17.172  67.360  1.00  0.00    -0.334 C  
BRANCH  14  15
HETATM   15  C   UNL     1     -10.235  16.674  65.931  1.00  0.00    -0.358 C  
BRANCH  15  16
HETATM   16  C   UNL     1      -9.943  15.175  65.926  1.00  0.00    -0.355 C  
BRANCH  16  17
HETATM   17  C   UNL     1     -10.810  14.433  64.914  1.00  0.00    -0.430 C  
HETATM   18  C   UNL     1     -12.053  13.861  65.558  1.00  0.00    -0.407 C  
HETATM   19  O   UNL     1     -12.357  13.969  66.736  1.00  0.00    -0.439 OA 
HETATM   20  O   UNL     1     -12.828  13.193  64.672  1.00  0.00    -0.693 OA 
ENDBRANCH  16  17
ENDBRANCH  15  16
ENDBRANCH  14  15
ENDBRANCH  13  14
ENDBRANCH  12  13
ENDBRANCH  11  12
ENDBRANCH  10  11
ENDBRANCH   8   9
ENDBRANCH   7   8
ENDBRANCH   5   6
ENDBRANCH   4   5
ENDBRANCH   2   3
TORSDOF 12
ENDMDL
MODEL      316
REMARK 921   NORMALIZED FREE ENERGY PREDICTED BY IDOCK:   -3.27 KCAL/MOL
REMARK 922        TOTAL FREE ENERGY PREDICTED BY IDOCK:   -7.40 KCAL/MOL
REMARK 923 INTER-LIGAND FREE ENERGY PREDICTED BY IDOCK:   -5.33 KCAL/MOL
REMARK 924 INTRA-LIGAND FREE ENERGY PREDICTED BY IDOCK:   -2.07 KCAL/MOL
REMARK 927      BINDING AFFINITY PREDICTED BY RF-SCORE:    0.00 PKD
ROOT
HETATM    1  C   UNL     1      -7.217   7.160  71.209  1.00  0.00    -0.074 C  
HETATM    2  C   UNL     1      -7.883   8.352  71.876  1.00  0.00    -0.165 C  
ENDROOT
BRANCH   2   3
HETATM    3  C   UNL     1      -8.701   7.940  73.067  1.00  0.00    -0.260 C  
HETATM    4  C   UNL     1     -10.038   8.028  73.167  1.00  0.00    -0.302 C  
BRANCH   4   5
HETATM    5  C   UNL     1     -10.935   8.594  72.103  1.00  0.00    -0.434 C  
BRANCH   5   6
HETATM    6  C   UNL     1     -12.119   7.715  71.822  1.00  0.00    -0.337 C  
HETATM    7  C   UNL     1     -12.214   6.846  70.800  1.00  0.00    -0.364 C  
BRANCH   7   8
HETATM    8  C   UNL     1     -11.148   6.664  69.757  1.00  0.00    -0.398 C  
BRANCH   8   9
HETATM    9  C   UNL     1     -10.247   5.502  70.058  1.00  0.00    -0.337 C  
HETATM   10  C   UNL     1      -9.716   4.681  69.134  1.00  0.00    -0.255 C  
BRANCH  10  11
HETATM   11  C   UNL     1      -9.903   4.871  67.656  1.00  0.00    -0.205 C  
BRANCH  11  12
HETATM   12  C   UNL     1      -8.673   5.464  66.978  1.00  0.00    -0.107 C  
BRANCH  12  13
HETATM   13  C   UNL     1      -9.084   6.572  66.008  1.00  0.00    -0.111 C  
BRANCH  13  14
HETATM   14  C   UNL     1      -9.107   7.927  66.709  1.00  0.00    -0.189 C  
BRANCH  14  15
HETATM   15  C   UNL     1      -9.230   9.074  65.708  1.00  0.00    -0.293 C  
BRANCH  15  16
HETATM   16  C   UNL     1      -9.960  10.258  66.340  1.00  0.00    -0.287 C  
BRANCH  16  17
HETATM   17  C   UNL     1     -10.808   9.827  67.532  1.00  0.00    -0.286 C  
HETATM   18  C   UNL     1     -11.620  10.978  68.083  1.00  0.00    -0.272 C  
HETATM   19  O   UNL     1     -11.624  12.118  67.645  1.00  0.00    -0.318 OA 
HETATM   20  O   UNL     1     -12.372  10.612  69.147  1.00  0.00    -0.341 OA 
ENDBRANCH  16  17
ENDBRANCH  15  16
ENDBRANCH  14  15
ENDBRANCH  13  14
ENDBRANCH  12  13
ENDBRANCH  11  12
ENDBRANCH  10  11
ENDBRANCH   8   9
ENDBRANCH   7   8
ENDBRANCH   5   6
ENDBRANCH   4   5
ENDBRANCH   2   3
TORSDOF 12
ENDMDL
MODEL      317
REMARK 921   NORMALIZED FREE ENERGY PREDICTED BY IDOCK:   -3.24 KCAL/MOL
REMARK 922        TOTAL FREE ENERGY PREDICTED BY IDOCK:   -7.35 KCAL/MOL
REMARK 923 INTER-LIGAND FREE ENERGY PREDICTED BY IDOCK:   -6.17 KCAL/MOL
REMARK 924 INTRA-LIGAND FREE ENERGY PREDICTED BY IDOCK:   -1.18 KCAL/MOL
REMARK 927      BINDING AFFINITY PREDICTED BY RF-SCORE:    0.00 PKD
ROOT
HETATM    1  C   UNL     1     -12.982  13.283  71.786  1.00  0.00    -0.430 C  
HETATM    2  C   UNL     1     -13.376  14.705  71.420  1.00  0.00    -0.441 C  
ENDROOT
BRANCH   2   3
HETATM    3  C   UNL     1     -12.214  15.480  70.866  1.00  0.00    -0.450 C  
HETATM    4  C   UNL     1     -11.560  15.204  69.726  1.00  0.00    -0.338 C  
BRANCH   4   5
HETATM    5  C   UNL     1     -11.869  14.038  68.831  1.00  0.00    -0.390 C  
BRANCH   5   6
HETATM    6  C   UNL     1     -12.118  14.455  67.409  1.00  0.00    -0.348 C  
HETATM    7  C   UNL     1     -12.057  13.641  66.341  1.00  0.00    -0.478 C  
BRANCH   7   8
HETATM    8  C   UNL     1     -11.683  12.188  66.419  1.00  0.00    -0.394 C  
BRANCH   8   9
HETATM    9  C   UNL     1     -10.472  11.865  65.593  1.00  0.00    -0.302 C  
HETATM   10  C   UNL     1      -9.214  11.801  66.065  1.00  0.00    -0.202 C  
BRANCH  10  11
HETATM   11  C   UNL     1      -8.866  11.978  67.515  1.00  0.00    -0.172 C  
BRANCH  11  12
HETATM   12  C   UNL     1      -8.023  10.831  68.062  1.00  0.00    -0.108 C  
BRANCH  12  13
HETATM   13  C   UNL     1      -8.730   9.495  67.829  1.00  0.00    -0.115 C  
BRANCH  13  14
HETATM   14  C   UNL     1     -10.058   9.447  68.577  1.00  0.00    -0.208 C  
BRANCH  14  15
HETATM   15  C   UNL     1      -9.963  10.146  69.933  1.00  0.00    -0.250 C  
BRANCH  15  16
HETATM   16  C   UNL     1     -10.992   9.569  70.904  1.00  0.00    -0.407 C  
BRANCH  16  17
HETATM   17  C   UNL     1     -10.905   8.048  70.981  1.00  0.00    -0.259 C  
HETATM   18  C   UNL     1     -12.007   7.470  71.840  1.00  0.00    -0.301 C  
HETATM   19  O   UNL     1     -12.877   8.113  72.407  1.00  0.00    -0.264 OA 
HETATM   20  O   UNL     1     -11.937   6.121  71.925  1.00  0.00    -0.312 OA 
ENDBRANCH  16  17
ENDBRANCH  15  16
ENDBRANCH  14  15
ENDBRANCH  13  14
ENDBRANCH  12  13
ENDBRANCH  11  12
ENDBRANCH  10  11
ENDBRANCH   8   9
ENDBRANCH   7   8
ENDBRANCH   5   6
ENDBRANCH   4   5
ENDBRANCH   2   3
TORSDOF 12
ENDMDL
MODEL      318
REMARK 921   NORMALIZED FREE ENERGY PREDICTED BY IDOCK:   -3.23 KCAL/MOL
REMARK 922        TOTAL FREE ENERGY PREDICTED BY IDOCK:   -7.34 KCAL/MOL
REMARK 923 INTER-LIGAND FREE ENERGY PREDICTED BY IDOCK:   -5.80 KCAL/MOL
REMARK 924 INTRA-LIGAND FREE ENERGY PREDICTED BY IDOCK:   -1.54 KCAL/MOL
REMARK 927      BINDING AFFINITY PREDICTED BY RF-SCORE:    0.00 PKD
ROOT
HETATM    1  C   UNL     1     -10.197   9.704  65.957  1.00  0.00    -0.255 C  
HETATM    2  C   UNL     1     -10.003   8.362  66.645  1.00  0.00    -0.354 C  
ENDROOT
BRANCH   2   3
HETATM    3  C   UNL     1      -8.809   7.626  66.106  1.00  0.00    -0.192 C  
HETATM    4  C   UNL     1      -8.694   6.292  65.999  1.00  0.00    -0.155 C  
BRANCH   4   5
HETATM    5  C   UNL     1      -9.742   5.311  66.441  1.00  0.00    -0.184 C  
BRANCH   5   6
HETATM    6  C   UNL     1      -9.251   4.395  67.525  1.00  0.00    -0.164 C  
HETATM    7  C   UNL     1      -9.650   4.430  68.808  1.00  0.00    -0.224 C  
BRANCH   7   8
HETATM    8  C   UNL     1     -10.626   5.433  69.352  1.00  0.00    -0.295 C  
BRANCH   8   9
HETATM    9  C   UNL     1      -9.955   6.700  69.796  1.00  0.00    -0.189 C  
HETATM   10  C   UNL     1     -10.575   7.724  70.410  1.00  0.00    -0.227 C  
BRANCH  10  11
HETATM   11  C   UNL     1     -12.026   7.698  70.797  1.00  0.00    -0.192 C  
BRANCH  11  12
HETATM   12  C   UNL     1     -12.428   8.897  71.651  1.00  0.00    -0.403 C  
BRANCH  12  13
HETATM   13  C   UNL     1     -11.712  10.158  71.165  1.00  0.00    -0.453 C  
BRANCH  13  14
HETATM   14  C   UNL     1     -12.661  11.048  70.369  1.00  0.00    -0.349 C  
BRANCH  14  15
HETATM   15  C   UNL     1     -11.927  11.792  69.254  1.00  0.00    -0.354 C  
BRANCH  15  16
HETATM   16  C   UNL     1     -11.525  13.190  69.720  1.00  0.00    -0.216 C  
BRANCH  16  17
HETATM   17  C   UNL     1     -12.518  13.755  70.732  1.00  0.00    -0.441 C  
HETATM   18  C   UNL     1     -12.791  15.222  70.484  1.00  0.00    -0.373 C  
HETATM   19  O   UNL     1     -12.301  15.895  69.592  1.00  0.00    -0.252 OA 
HETATM   20  O   UNL     1     -13.665  15.739  71.380  1.00  0.00    -0.531 OA 
ENDBRANCH  16  17
ENDBRANCH  15  16
ENDBRANCH  14  15
ENDBRANCH  13  14
ENDBRANCH  12  13
ENDBRANCH  11  12
ENDBRANCH  10  11
ENDBRANCH   8   9
ENDBRANCH   7   8
ENDBRANCH   5   6
ENDBRANCH   4   5
ENDBRANCH   2   3
TORSDOF 12
ENDMDL
MODEL      319
REMARK 921   NORMALIZED FREE ENERGY PREDICTED BY IDOCK:   -3.23 KCAL/MOL
REMARK 922        TOTAL FREE ENERGY PREDICTED BY IDOCK:   -7.34 KCAL/MOL
REMARK 923 INTER-LIGAND FREE ENERGY PREDICTED BY IDOCK:   -6.53 KCAL/MOL
REMARK 924 INTRA-LIGAND FREE ENERGY PREDICTED BY IDOCK:   -0.81 KCAL/MOL
REMARK 927      BINDING AFFINITY PREDICTED BY RF-SCORE:    0.00 PKD
ROOT
HETATM    1  C   UNL     1      -9.001   3.186  72.990  1.00  0.00    -0.098 C  
HETATM    2  C   UNL     1     -10.123   3.469  72.003  1.00  0.00    -0.187 C  
ENDROOT
BRANCH   2   3
HETATM    3  C   UNL     1      -9.649   4.297  70.842  1.00  0.00    -0.253 C  
HETATM    4  C   UNL     1      -9.584   5.638  70.813  1.00  0.00    -0.213 C  
BRANCH   4   5
HETATM    5  C   UNL     1     -10.015   6.535  71.938  1.00  0.00    -0.192 C  
BRANCH   5   6
HETATM    6  C   UNL     1     -11.480   6.861  71.885  1.00  0.00    -0.308 C  
HETATM    7  C   UNL     1     -12.016   7.912  71.239  1.00  0.00    -0.321 C  
BRANCH   7   8
HETATM    8  C   UNL     1     -11.208   8.945  70.508  1.00  0.00    -0.287 C  
BRANCH   8   9
HETATM    9  C   UNL     1     -11.480  10.336  70.999  1.00  0.00    -0.386 C  
HETATM   10  C   UNL     1     -11.805  11.379  70.214  1.00  0.00    -0.438 C  
BRANCH  10  11
HETATM   11  C   UNL     1     -12.010  11.263  68.730  1.00  0.00    -0.350 C  
BRANCH  11  12
HETATM   12  C   UNL     1     -11.145  12.239  67.940  1.00  0.00    -0.290 C  
BRANCH  12  13
HETATM   13  C   UNL     1     -11.837  12.622  66.631  1.00  0.00    -0.449 C  
BRANCH  13  14
HETATM   14  C   UNL     1     -11.843  14.136  66.443  1.00  0.00    -0.440 C  
BRANCH  14  15
HETATM   15  C   UNL     1     -10.427  14.685  66.272  1.00  0.00    -0.302 C  
BRANCH  15  16
HETATM   16  C   UNL     1     -10.470  16.161  65.884  1.00  0.00    -0.366 C  
BRANCH  16  17
HETATM   17  C   UNL     1     -10.517  17.067  67.110  1.00  0.00    -0.291 C  
HETATM   18  C   UNL     1     -10.545  18.528  66.723  1.00  0.00    -0.354 C  
HETATM   19  O   UNL     1     -10.539  18.961  65.581  1.00  0.00    -0.575 OA 
HETATM   20  O   UNL     1     -10.578  19.344  67.803  1.00  0.00    -0.429 OA 
ENDBRANCH  16  17
ENDBRANCH  15  16
ENDBRANCH  14  15
ENDBRANCH  13  14
ENDBRANCH  12  13
ENDBRANCH  11  12
ENDBRANCH  10  11
ENDBRANCH   8   9
ENDBRANCH   7   8
ENDBRANCH   5   6
ENDBRANCH   4   5
ENDBRANCH   2   3
TORSDOF 12
ENDMDL
MODEL      320
REMARK 921   NORMALIZED FREE ENERGY PREDICTED BY IDOCK:   -3.21 KCAL/MOL
REMARK 922        TOTAL FREE ENERGY PREDICTED BY IDOCK:   -7.30 KCAL/MOL
REMARK 923 INTER-LIGAND FREE ENERGY PREDICTED BY IDOCK:   -5.83 KCAL/MOL
REMARK 924 INTRA-LIGAND FREE ENERGY PREDICTED BY IDOCK:   -1.47 KCAL/MOL
REMARK 927      BINDING AFFINITY PREDICTED BY RF-SCORE:    0.00 PKD
ROOT
HETATM    1  C   UNL     1     -10.147  11.597  63.204  1.00  0.00    -0.409 C  
HETATM    2  C   UNL     1     -10.941  11.547  64.500  1.00  0.00    -0.367 C  
ENDROOT
BRANCH   2   3
HETATM    3  C   UNL     1     -12.361  11.997  64.302  1.00  0.00    -0.401 C  
HETATM    4  C   UNL     1     -12.849  13.208  64.615  1.00  0.00    -0.235 C  
BRANCH   4   5
HETATM    5  C   UNL     1     -12.050  14.307  65.256  1.00  0.00    -0.400 C  
BRANCH   5   6
HETATM    6  C   UNL     1     -12.095  14.251  66.756  1.00  0.00    -0.446 C  
HETATM    7  C   UNL     1     -11.042  13.999  67.553  1.00  0.00    -0.313 C  
BRANCH   7   8
HETATM    8  C   UNL     1      -9.663  13.692  67.044  1.00  0.00    -0.251 C  
BRANCH   8   9
HETATM    9  C   UNL     1      -8.929  14.925  66.603  1.00  0.00    -0.301 C  
HETATM   10  C   UNL     1      -7.810  15.400  67.178  1.00  0.00    -0.249 C  
BRANCH  10  11
HETATM   11  C   UNL     1      -7.102  14.705  68.307  1.00  0.00    -0.115 C  
BRANCH  11  12
HETATM   12  C   UNL     1      -6.660  15.667  69.404  1.00  0.00    -0.166 C  
BRANCH  12  13
HETATM   13  C   UNL     1      -6.006  16.906  68.792  1.00  0.00    -0.150 C  
BRANCH  13  14
HETATM   14  C   UNL     1      -6.667  18.180  69.308  1.00  0.00    -0.217 C  
BRANCH  14  15
HETATM   15  C   UNL     1      -6.427  19.358  68.364  1.00  0.00    -0.277 C  
BRANCH  15  16
HETATM   16  C   UNL     1      -7.499  19.397  67.277  1.00  0.00    -0.254 C  
BRANCH  16  17
HETATM   17  C   UNL     1      -7.019  18.741  65.986  1.00  0.00    -0.302 C  
HETATM   18  C   UNL     1      -6.458  19.760  65.019  1.00  0.00    -0.276 C  
HETATM   19  O   UNL     1      -6.378  20.962  65.220  1.00  0.00    -0.249 OA 
HETATM   20  O   UNL     1      -6.035  19.193  63.865  1.00  0.00    -0.450 OA 
ENDBRANCH  16  17
ENDBRANCH  15  16
ENDBRANCH  14  15
ENDBRANCH  13  14
ENDBRANCH  12  13
ENDBRANCH  11  12
ENDBRANCH  10  11
ENDBRANCH   8   9
ENDBRANCH   7   8
ENDBRANCH   5   6
ENDBRANCH   4   5
ENDBRANCH   2   3
TORSDOF 12
ENDMDL
MODEL      321
REMARK 921   NORMALIZED FREE ENERGY PREDICTED BY IDOCK:   -3.21 KCAL/MOL
REMARK 922        TOTAL FREE ENERGY PREDICTED BY IDOCK:   -7.30 KCAL/MOL
REMARK 923 INTER-LIGAND FREE ENERGY PREDICTED BY IDOCK:   -5.74 KCAL/MOL
REMARK 924 INTRA-LIGAND FREE ENERGY PREDICTED BY IDOCK:   -1.56 KCAL/MOL
REMARK 927      BINDING AFFINITY PREDICTED BY RF-SCORE:    0.00 PKD
ROOT
HETATM    1  C   UNL     1      -9.070  15.196  67.227  1.00  0.00    -0.210 C  
HETATM    2  C   UNL     1     -10.348  14.619  66.640  1.00  0.00    -0.273 C  
ENDROOT
BRANCH   2   3
HETATM    3  C   UNL     1     -11.562  15.059  67.409  1.00  0.00    -0.304 C  
HETATM    4  C   UNL     1     -11.995  14.523  68.562  1.00  0.00    -0.321 C  
BRANCH   4   5
HETATM    5  C   UNL     1     -11.344  13.360  69.256  1.00  0.00    -0.314 C  
BRANCH   5   6
HETATM    6  C   UNL     1     -12.015  12.053  68.938  1.00  0.00    -0.303 C  
HETATM    7  C   UNL     1     -11.486  11.076  68.181  1.00  0.00    -0.374 C  
BRANCH   7   8
HETATM    8  C   UNL     1     -10.150  11.174  67.503  1.00  0.00    -0.210 C  
BRANCH   8   9
HETATM    9  C   UNL     1     -10.170  10.607  66.114  1.00  0.00    -0.308 C  
HETATM   10  C   UNL     1      -9.735   9.380  65.778  1.00  0.00    -0.354 C  
BRANCH  10  11
HETATM   11  C   UNL     1      -9.230   8.380  66.779  1.00  0.00    -0.214 C  
BRANCH  11  12
HETATM   12  C   UNL     1     -10.304   7.387  67.212  1.00  0.00    -0.356 C  
BRANCH  12  13
HETATM   13  C   UNL     1      -9.672   6.037  67.553  1.00  0.00    -0.122 C  
BRANCH  13  14
HETATM   14  C   UNL     1     -10.476   5.319  68.632  1.00  0.00    -0.148 C  
BRANCH  14  15
HETATM   15  C   UNL     1     -11.215   6.310  69.532  1.00  0.00    -0.500 C  
BRANCH  15  16
HETATM   16  C   UNL     1     -10.301   6.796  70.654  1.00  0.00    -0.225 C  
BRANCH  16  17
HETATM   17  C   UNL     1     -10.410   8.304  70.858  1.00  0.00    -0.225 C  
HETATM   18  C   UNL     1     -11.733   8.688  71.483  1.00  0.00    -0.305 C  
HETATM   19  O   UNL     1     -12.619   7.911  71.802  1.00  0.00    -0.311 OA 
HETATM   20  O   UNL     1     -11.847  10.025  71.661  1.00  0.00    -0.365 OA 
ENDBRANCH  16  17
ENDBRANCH  15  16
ENDBRANCH  14  15
ENDBRANCH  13  14
ENDBRANCH  12  13
ENDBRANCH  11  12
ENDBRANCH  10  11
ENDBRANCH   8   9
ENDBRANCH   7   8
ENDBRANCH   5   6
ENDBRANCH   4   5
ENDBRANCH   2   3
TORSDOF 12
ENDMDL
MODEL      322
REMARK 921   NORMALIZED FREE ENERGY PREDICTED BY IDOCK:   -3.21 KCAL/MOL
REMARK 922        TOTAL FREE ENERGY PREDICTED BY IDOCK:   -7.30 KCAL/MOL
REMARK 923 INTER-LIGAND FREE ENERGY PREDICTED BY IDOCK:   -6.88 KCAL/MOL
REMARK 924 INTRA-LIGAND FREE ENERGY PREDICTED BY IDOCK:   -0.41 KCAL/MOL
REMARK 927      BINDING AFFINITY PREDICTED BY RF-SCORE:    0.00 PKD
ROOT
HETATM    1  C   UNL     1     -11.305  11.278  68.404  1.00  0.00    -0.348 C  
HETATM    2  C   UNL     1     -12.406  11.907  69.244  1.00  0.00    -0.016 C  
ENDROOT
BRANCH   2   3
HETATM    3  C   UNL     1     -12.174  11.697  70.713  1.00  0.00    -0.443 C  
HETATM    4  C   UNL     1     -12.736  12.409  71.704  1.00  0.00    -0.299 C  
BRANCH   4   5
HETATM    5  C   UNL     1     -13.671  13.566  71.494  1.00  0.00    -0.172 C  
BRANCH   5   6
HETATM    6  C   UNL     1     -13.678  14.516  72.658  1.00  0.00    -0.543 C  
HETATM    7  C   UNL     1     -12.914  15.618  72.763  1.00  0.00    -0.579 C  
BRANCH   7   8
HETATM    8  C   UNL     1     -11.901  16.033  71.735  1.00  0.00    -0.599 C  
BRANCH   8   9
HETATM    9  C   UNL     1     -12.222  15.501  70.369  1.00  0.00    -0.443 C  
HETATM   10  C   UNL     1     -11.335  15.373  69.366  1.00  0.00    -0.315 C  
BRANCH  10  11
HETATM   11  C   UNL     1      -9.873  15.684  69.511  1.00  0.00    -0.289 C  
BRANCH  11  12
HETATM   12  C   UNL     1      -9.130  15.652  68.180  1.00  0.00    -0.181 C  
BRANCH  12  13
HETATM   13  C   UNL     1      -9.353  16.958  67.416  1.00  0.00    -0.235 C  
BRANCH  13  14
HETATM   14  C   UNL     1      -8.770  18.141  68.182  1.00  0.00    -0.285 C  
BRANCH  14  15
HETATM   15  C   UNL     1      -7.896  19.015  67.283  1.00  0.00    -0.263 C  
BRANCH  15  16
HETATM   16  C   UNL     1      -6.688  19.537  68.057  1.00  0.00    -0.279 C  
BRANCH  16  17
HETATM   17  C   UNL     1      -6.883  19.406  69.564  1.00  0.00    -0.303 C  
HETATM   18  C   UNL     1      -6.032  20.398  70.325  1.00  0.00    -0.308 C  
HETATM   19  O   UNL     1      -5.279  21.218  69.824  1.00  0.00    -0.433 OA 
HETATM   20  O   UNL     1      -6.189  20.287  71.664  1.00  0.00    -0.554 OA 
ENDBRANCH  16  17
ENDBRANCH  15  16
ENDBRANCH  14  15
ENDBRANCH  13  14
ENDBRANCH  12  13
ENDBRANCH  11  12
ENDBRANCH  10  11
ENDBRANCH   8   9
ENDBRANCH   7   8
ENDBRANCH   5   6
ENDBRANCH   4   5
ENDBRANCH   2   3
TORSDOF 12
ENDMDL
MODEL      323
REMARK 921   NORMALIZED FREE ENERGY PREDICTED BY IDOCK:   -3.20 KCAL/MOL
REMARK 922        TOTAL FREE ENERGY PREDICTED BY IDOCK:   -7.29 KCAL/MOL
REMARK 923 INTER-LIGAND FREE ENERGY PREDICTED BY IDOCK:   -5.71 KCAL/MOL
REMARK 924 INTRA-LIGAND FREE ENERGY PREDICTED BY IDOCK:   -1.58 KCAL/MOL
REMARK 927      BINDING AFFINITY PREDICTED BY RF-SCORE:    0.00 PKD
ROOT
HETATM    1  C   UNL     1     -11.742   7.828  72.787  1.00  0.00    -0.312 C  
HETATM    2  C   UNL     1     -11.637   8.666  71.524  1.00  0.00    -0.368 C  
ENDROOT
BRANCH   2   3
HETATM    3  C   UNL     1     -10.828   7.976  70.462  1.00  0.00    -0.241 C  
HETATM    4  C   UNL     1      -9.832   8.530  69.752  1.00  0.00    -0.186 C  
BRANCH   4   5
HETATM    5  C   UNL     1      -9.386   9.959  69.884  1.00  0.00    -0.250 C  
BRANCH   5   6
HETATM    6  C   UNL     1      -9.560  10.735  68.610  1.00  0.00    -0.187 C  
HETATM    7  C   UNL     1     -10.699  11.331  68.216  1.00  0.00    -0.231 C  
BRANCH   7   8
HETATM    8  C   UNL     1     -11.986  11.265  68.986  1.00  0.00    -0.393 C  
BRANCH   8   9
HETATM    9  C   UNL     1     -11.918  12.023  70.279  1.00  0.00    -0.398 C  
HETATM   10  C   UNL     1     -11.920  13.364  70.385  1.00  0.00    -0.358 C  
BRANCH  10  11
HETATM   11  C   UNL     1     -12.063  14.286  69.207  1.00  0.00    -0.351 C  
BRANCH  11  12
HETATM   12  C   UNL     1     -10.917  15.286  69.100  1.00  0.00    -0.251 C  
BRANCH  12  13
HETATM   13  C   UNL     1     -10.032  14.951  67.899  1.00  0.00    -0.219 C  
BRANCH  13  14
HETATM   14  C   UNL     1      -8.583  14.748  68.333  1.00  0.00    -0.166 C  
BRANCH  14  15
HETATM   15  C   UNL     1      -7.733  15.984  68.040  1.00  0.00    -0.140 C  
BRANCH  15  16
HETATM   16  C   UNL     1      -8.055  16.536  66.652  1.00  0.00    -0.314 C  
BRANCH  16  17
HETATM   17  C   UNL     1      -8.200  18.055  66.668  1.00  0.00    -0.285 C  
HETATM   18  C   UNL     1      -9.598  18.485  66.285  1.00  0.00    -0.273 C  
HETATM   19  O   UNL     1     -10.519  17.736  66.001  1.00  0.00    -0.403 OA 
HETATM   20  O   UNL     1      -9.738  19.831  66.287  1.00  0.00    -0.385 OA 
ENDBRANCH  16  17
ENDBRANCH  15  16
ENDBRANCH  14  15
ENDBRANCH  13  14
ENDBRANCH  12  13
ENDBRANCH  11  12
ENDBRANCH  10  11
ENDBRANCH   8   9
ENDBRANCH   7   8
ENDBRANCH   5   6
ENDBRANCH   4   5
ENDBRANCH   2   3
TORSDOF 12
ENDMDL
MODEL      324
REMARK 921   NORMALIZED FREE ENERGY PREDICTED BY IDOCK:   -3.20 KCAL/MOL
REMARK 922        TOTAL FREE ENERGY PREDICTED BY IDOCK:   -7.29 KCAL/MOL
REMARK 923 INTER-LIGAND FREE ENERGY PREDICTED BY IDOCK:   -4.70 KCAL/MOL
REMARK 924 INTRA-LIGAND FREE ENERGY PREDICTED BY IDOCK:   -2.60 KCAL/MOL
REMARK 927      BINDING AFFINITY PREDICTED BY RF-SCORE:    0.00 PKD
ROOT
HETATM    1  C   UNL     1     -11.880  11.712  69.346  1.00  0.00    -0.408 C  
HETATM    2  C   UNL     1     -11.329  10.961  68.144  1.00  0.00    -0.383 C  
ENDROOT
BRANCH   2   3
HETATM    3  C   UNL     1      -9.978  11.477  67.735  1.00  0.00    -0.195 C  
HETATM    4  C   UNL     1      -8.797  10.986  68.144  1.00  0.00    -0.141 C  
BRANCH   4   5
HETATM    5  C   UNL     1      -8.638   9.851  69.116  1.00  0.00    -0.157 C  
BRANCH   5   6
HETATM    6  C   UNL     1      -7.830   8.719  68.551  1.00  0.00    -0.104 C  
HETATM    7  C   UNL     1      -8.277   7.821  67.655  1.00  0.00    -0.125 C  
BRANCH   7   8
HETATM    8  C   UNL     1      -9.680   7.800  67.121  1.00  0.00    -0.243 C  
BRANCH   8   9
HETATM    9  C   UNL     1     -10.691   7.485  68.184  1.00  0.00    -0.145 C  
HETATM   10  C   UNL     1     -10.962   6.251  68.646  1.00  0.00    -0.423 C  
BRANCH  10  11
HETATM   11  C   UNL     1     -10.224   5.021  68.199  1.00  0.00    -0.141 C  
BRANCH  11  12
HETATM   12  C   UNL     1      -9.318   4.452  69.285  1.00  0.00    -0.223 C  
BRANCH  12  13
HETATM   13  C   UNL     1      -9.892   4.758  70.669  1.00  0.00    -0.292 C  
BRANCH  13  14
HETATM   14  C   UNL     1      -8.805   5.280  71.604  1.00  0.00    -0.144 C  
BRANCH  14  15
HETATM   15  C   UNL     1      -8.748   6.807  71.600  1.00  0.00    -0.126 C  
BRANCH  15  16
HETATM   16  C   UNL     1      -9.762   7.381  72.587  1.00  0.00    -0.212 C  
BRANCH  16  17
HETATM   17  C   UNL     1     -10.679   8.404  71.924  1.00  0.00    -0.373 C  
HETATM   18  C   UNL     1     -12.076   7.857  71.728  1.00  0.00    -0.303 C  
HETATM   19  O   UNL     1     -12.454   6.744  72.056  1.00  0.00    -0.316 OA 
HETATM   20  O   UNL     1     -12.898   8.752  71.133  1.00  0.00    -0.240 OA 
ENDBRANCH  16  17
ENDBRANCH  15  16
ENDBRANCH  14  15
ENDBRANCH  13  14
ENDBRANCH  12  13
ENDBRANCH  11  12
ENDBRANCH  10  11
ENDBRANCH   8   9
ENDBRANCH   7   8
ENDBRANCH   5   6
ENDBRANCH   4   5
ENDBRANCH   2   3
TORSDOF 12
ENDMDL
MODEL      325
REMARK 921   NORMALIZED FREE ENERGY PREDICTED BY IDOCK:   -3.20 KCAL/MOL
REMARK 922        TOTAL FREE ENERGY PREDICTED BY IDOCK:   -7.29 KCAL/MOL
REMARK 923 INTER-LIGAND FREE ENERGY PREDICTED BY IDOCK:   -5.41 KCAL/MOL
REMARK 924 INTRA-LIGAND FREE ENERGY PREDICTED BY IDOCK:   -1.88 KCAL/MOL
REMARK 927      BINDING AFFINITY PREDICTED BY RF-SCORE:    0.00 PKD
ROOT
HETATM    1  C   UNL     1      -9.102   5.179  69.095  1.00  0.00    -0.135 C  
HETATM    2  C   UNL     1     -10.261   6.153  68.956  1.00  0.00    -0.237 C  
ENDROOT
BRANCH   2   3
HETATM    3  C   UNL     1     -10.821   6.158  67.562  1.00  0.00    -0.422 C  
HETATM    4  C   UNL     1     -10.308   6.825  66.515  1.00  0.00    -0.116 C  
BRANCH   4   5
HETATM    5  C   UNL     1      -9.097   7.712  66.582  1.00  0.00    -0.198 C  
BRANCH   5   6
HETATM    6  C   UNL     1      -9.429   9.103  67.042  1.00  0.00    -0.201 C  
HETATM    7  C   UNL     1      -9.846  10.102  66.245  1.00  0.00    -0.288 C  
BRANCH   7   8
HETATM    8  C   UNL     1      -9.998   9.976  64.756  1.00  0.00    -0.248 C  
BRANCH   8   9
HETATM    9  C   UNL     1      -9.546  11.208  64.029  1.00  0.00    -0.288 C  
HETATM   10  C   UNL     1     -10.351  12.218  63.652  1.00  0.00    -0.463 C  
BRANCH  10  11
HETATM   11  C   UNL     1     -11.816  12.273  63.981  1.00  0.00    -0.530 C  
BRANCH  11  12
HETATM   12  C   UNL     1     -12.341  13.700  64.091  1.00  0.00    -0.385 C  
BRANCH  12  13
HETATM   13  C   UNL     1     -11.728  14.399  65.306  1.00  0.00    -0.364 C  
BRANCH  13  14
HETATM   14  C   UNL     1     -12.187  13.735  66.601  1.00  0.00    -0.454 C  
BRANCH  14  15
HETATM   15  C   UNL     1     -11.091  13.769  67.665  1.00  0.00    -0.292 C  
BRANCH  15  16
HETATM   16  C   UNL     1      -9.727  14.006  67.020  1.00  0.00    -0.256 C  
BRANCH  16  17
HETATM   17  C   UNL     1      -8.682  13.017  67.528  1.00  0.00    -0.197 C  
HETATM   18  C   UNL     1      -7.696  13.680  68.464  1.00  0.00    -0.129 C  
HETATM   19  O   UNL     1      -7.713  14.855  68.797  1.00  0.00    -0.122 OA 
HETATM   20  O   UNL     1      -6.758  12.816  68.917  1.00  0.00    -0.089 OA 
ENDBRANCH  16  17
ENDBRANCH  15  16
ENDBRANCH  14  15
ENDBRANCH  13  14
ENDBRANCH  12  13
ENDBRANCH  11  12
ENDBRANCH  10  11
ENDBRANCH   8   9
ENDBRANCH   7   8
ENDBRANCH   5   6
ENDBRANCH   4   5
ENDBRANCH   2   3
TORSDOF 12
ENDMDL
MODEL      326
REMARK 921   NORMALIZED FREE ENERGY PREDICTED BY IDOCK:   -3.20 KCAL/MOL
REMARK 922        TOTAL FREE ENERGY PREDICTED BY IDOCK:   -7.29 KCAL/MOL
REMARK 923 INTER-LIGAND FREE ENERGY PREDICTED BY IDOCK:   -4.88 KCAL/MOL
REMARK 924 INTRA-LIGAND FREE ENERGY PREDICTED BY IDOCK:   -2.41 KCAL/MOL
REMARK 927      BINDING AFFINITY PREDICTED BY RF-SCORE:    0.00 PKD
ROOT
HETATM    1  C   UNL     1     -12.068  14.843  64.445  1.00  0.00    -0.417 C  
HETATM    2  C   UNL     1     -10.951  14.486  65.413  1.00  0.00    -0.346 C  
ENDROOT
BRANCH   2   3
HETATM    3  C   UNL     1     -11.451  13.656  66.561  1.00  0.00    -0.357 C  
HETATM    4  C   UNL     1     -11.566  14.068  67.834  1.00  0.00    -0.377 C  
BRANCH   4   5
HETATM    5  C   UNL     1     -11.173  15.433  68.324  1.00  0.00    -0.325 C  
BRANCH   5   6
HETATM    6  C   UNL     1     -10.117  15.378  69.390  1.00  0.00    -0.269 C  
HETATM    7  C   UNL     1      -8.791  15.364  69.167  1.00  0.00    -0.249 C  
BRANCH   7   8
HETATM    8  C   UNL     1      -8.175  15.357  67.797  1.00  0.00    -0.159 C  
BRANCH   8   9
HETATM    9  C   UNL     1      -6.754  14.875  67.812  1.00  0.00    -0.191 C  
HETATM   10  C   UNL     1      -6.381  13.583  67.838  1.00  0.00    -0.155 C  
BRANCH  10  11
HETATM   11  C   UNL     1      -7.354  12.440  67.782  1.00  0.00    -0.123 C  
BRANCH  11  12
HETATM   12  C   UNL     1      -7.177  11.461  68.938  1.00  0.00    -0.113 C  
BRANCH  12  13
HETATM   13  C   UNL     1      -8.421  10.583  69.084  1.00  0.00    -0.152 C  
BRANCH  13  14
HETATM   14  C   UNL     1      -9.559  11.104  68.213  1.00  0.00    -0.185 C  
BRANCH  14  15
HETATM   15  C   UNL     1     -10.457   9.968  67.725  1.00  0.00    -0.282 C  
BRANCH  15  16
HETATM   16  C   UNL     1      -9.996   9.475  66.355  1.00  0.00    -0.339 C  
BRANCH  16  17
HETATM   17  C   UNL     1     -10.457  10.404  65.236  1.00  0.00    -0.178 C  
HETATM   18  C   UNL     1      -9.286  10.961  64.456  1.00  0.00    -0.223 C  
HETATM   19  O   UNL     1      -8.110  10.711  64.667  1.00  0.00    -0.107 OA 
HETATM   20  O   UNL     1      -9.680  11.794  63.465  1.00  0.00    -0.330 OA 
ENDBRANCH  16  17
ENDBRANCH  15  16
ENDBRANCH  14  15
ENDBRANCH  13  14
ENDBRANCH  12  13
ENDBRANCH  11  12
ENDBRANCH  10  11
ENDBRANCH   8   9
ENDBRANCH   7   8
ENDBRANCH   5   6
ENDBRANCH   4   5
ENDBRANCH   2   3
TORSDOF 12
ENDMDL
MODEL      327
REMARK 921   NORMALIZED FREE ENERGY PREDICTED BY IDOCK:   -3.20 KCAL/MOL
REMARK 922        TOTAL FREE ENERGY PREDICTED BY IDOCK:   -7.28 KCAL/MOL
REMARK 923 INTER-LIGAND FREE ENERGY PREDICTED BY IDOCK:   -5.88 KCAL/MOL
REMARK 924 INTRA-LIGAND FREE ENERGY PREDICTED BY IDOCK:   -1.40 KCAL/MOL
REMARK 927      BINDING AFFINITY PREDICTED BY RF-SCORE:    0.00 PKD
ROOT
HETATM    1  C   UNL     1     -11.674  15.348  72.187  1.00  0.00    -0.551 C  
HETATM    2  C   UNL     1     -12.837  14.793  71.379  1.00  0.00    -0.409 C  
ENDROOT
BRANCH   2   3
HETATM    3  C   UNL     1     -12.439  13.577  70.592  1.00  0.00    -0.405 C  
HETATM    4  C   UNL     1     -11.984  13.577  69.328  1.00  0.00    -0.378 C  
BRANCH   4   5
HETATM    5  C   UNL     1     -11.833  14.807  68.478  1.00  0.00    -0.340 C  
BRANCH   5   6
HETATM    6  C   UNL     1     -10.679  14.707  67.523  1.00  0.00    -0.268 C  
HETATM    7  C   UNL     1     -10.727  14.131  66.308  1.00  0.00    -0.293 C  
BRANCH   7   8
HETATM    8  C   UNL     1     -11.949  13.460  65.750  1.00  0.00    -0.447 C  
BRANCH   8   9
HETATM    9  C   UNL     1     -11.950  13.434  64.249  1.00  0.00    -0.481 C  
HETATM   10  C   UNL     1     -11.494  12.416  63.498  1.00  0.00    -0.561 C  
BRANCH  10  11
HETATM   11  C   UNL     1     -10.981  11.127  64.075  1.00  0.00    -0.269 C  
BRANCH  11  12
HETATM   12  C   UNL     1      -9.560  10.806  63.627  1.00  0.00    -0.347 C  
BRANCH  12  13
HETATM   13  C   UNL     1      -8.746  10.256  64.799  1.00  0.00    -0.201 C  
BRANCH  13  14
HETATM   14  C   UNL     1      -9.205  10.874  66.116  1.00  0.00    -0.205 C  
BRANCH  14  15
HETATM   15  C   UNL     1      -9.368   9.815  67.205  1.00  0.00    -0.161 C  
BRANCH  15  16
HETATM   16  C   UNL     1      -8.254   9.939  68.242  1.00  0.00    -0.109 C  
BRANCH  16  17
HETATM   17  C   UNL     1      -7.686   8.577  68.627  1.00  0.00    -0.103 C  
HETATM   18  C   UNL     1      -7.985   8.236  70.070  1.00  0.00    -0.104 C  
HETATM   19  O   UNL     1      -8.607   8.939  70.851  1.00  0.00    -0.163 OA 
HETATM   20  O   UNL     1      -7.479   7.033  70.428  1.00  0.00    -0.082 OA 
ENDBRANCH  16  17
ENDBRANCH  15  16
ENDBRANCH  14  15
ENDBRANCH  13  14
ENDBRANCH  12  13
ENDBRANCH  11  12
ENDBRANCH  10  11
ENDBRANCH   8   9
ENDBRANCH   7   8
ENDBRANCH   5   6
ENDBRANCH   4   5
ENDBRANCH   2   3
TORSDOF 12
ENDMDL
MODEL      328
REMARK 921   NORMALIZED FREE ENERGY PREDICTED BY IDOCK:   -3.19 KCAL/MOL
REMARK 922        TOTAL FREE ENERGY PREDICTED BY IDOCK:   -7.27 KCAL/MOL
REMARK 923 INTER-LIGAND FREE ENERGY PREDICTED BY IDOCK:   -5.98 KCAL/MOL
REMARK 924 INTRA-LIGAND FREE ENERGY PREDICTED BY IDOCK:   -1.29 KCAL/MOL
REMARK 927      BINDING AFFINITY PREDICTED BY RF-SCORE:    0.00 PKD
ROOT
HETATM    1  C   UNL     1      -6.404  11.734  66.967  1.00  0.00    -0.150 C  
HETATM    2  C   UNL     1      -7.613  12.573  67.347  1.00  0.00    -0.156 C  
ENDROOT
BRANCH   2   3
HETATM    3  C   UNL     1      -7.215  13.939  67.830  1.00  0.00    -0.173 C  
HETATM    4  C   UNL     1      -7.936  15.063  67.683  1.00  0.00    -0.178 C  
BRANCH   4   5
HETATM    5  C   UNL     1      -9.257  15.138  66.972  1.00  0.00    -0.239 C  
BRANCH   5   6
HETATM    6  C   UNL     1     -10.317  14.310  67.640  1.00  0.00    -0.248 C  
HETATM    7  C   UNL     1     -11.454  13.891  67.057  1.00  0.00    -0.367 C  
BRANCH   7   8
HETATM    8  C   UNL     1     -11.847  14.234  65.649  1.00  0.00    -0.373 C  
BRANCH   8   9
HETATM    9  C   UNL     1     -10.754  13.942  64.663  1.00  0.00    -0.422 C  
HETATM   10  C   UNL     1     -10.357  12.710  64.297  1.00  0.00    -0.399 C  
BRANCH  10  11
HETATM   11  C   UNL     1     -11.017  11.451  64.784  1.00  0.00    -0.303 C  
BRANCH  11  12
HETATM   12  C   UNL     1     -10.099  10.607  65.661  1.00  0.00    -0.335 C  
BRANCH  12  13
HETATM   13  C   UNL     1     -10.761  10.332  67.012  1.00  0.00    -0.281 C  
BRANCH  13  14
HETATM   14  C   UNL     1      -9.808   9.590  67.943  1.00  0.00    -0.186 C  
BRANCH  14  15
HETATM   15  C   UNL     1      -9.691  10.288  69.298  1.00  0.00    -0.240 C  
BRANCH  15  16
HETATM   16  C   UNL     1     -10.282   9.413  70.401  1.00  0.00    -0.310 C  
BRANCH  16  17
HETATM   17  C   UNL     1     -11.693   9.854  70.777  1.00  0.00    -0.424 C  
HETATM   18  C   UNL     1     -12.250   9.029  71.916  1.00  0.00    -0.381 C  
HETATM   19  O   UNL     1     -11.666   8.122  72.488  1.00  0.00    -0.378 OA 
HETATM   20  O   UNL     1     -13.505   9.405  72.255  1.00  0.00    -0.434 OA 
ENDBRANCH  16  17
ENDBRANCH  15  16
ENDBRANCH  14  15
ENDBRANCH  13  14
ENDBRANCH  12  13
ENDBRANCH  11  12
ENDBRANCH  10  11
ENDBRANCH   8   9
ENDBRANCH   7   8
ENDBRANCH   5   6
ENDBRANCH   4   5
ENDBRANCH   2   3
TORSDOF 12
ENDMDL
MODEL      329
REMARK 921   NORMALIZED FREE ENERGY PREDICTED BY IDOCK:   -3.18 KCAL/MOL
REMARK 922        TOTAL FREE ENERGY PREDICTED BY IDOCK:   -7.26 KCAL/MOL
REMARK 923 INTER-LIGAND FREE ENERGY PREDICTED BY IDOCK:   -5.42 KCAL/MOL
REMARK 924 INTRA-LIGAND FREE ENERGY PREDICTED BY IDOCK:   -1.84 KCAL/MOL
REMARK 927      BINDING AFFINITY PREDICTED BY RF-SCORE:    0.00 PKD
ROOT
HETATM    1  C   UNL     1     -11.744   7.890  72.418  1.00  0.00    -0.423 C  
HETATM    2  C   UNL     1     -12.941   8.546  71.749  1.00  0.00    -0.380 C  
ENDROOT
BRANCH   2   3
HETATM    3  C   UNL     1     -12.984  10.025  72.009  1.00  0.00    -0.514 C  
HETATM    4  C   UNL     1     -12.709  10.986  71.112  1.00  0.00    -0.521 C  
BRANCH   4   5
HETATM    5  C   UNL     1     -12.274  10.729  69.697  1.00  0.00    -0.325 C  
BRANCH   5   6
HETATM    6  C   UNL     1     -10.856  11.156  69.446  1.00  0.00    -0.264 C  
HETATM    7  C   UNL     1     -10.488  12.280  68.806  1.00  0.00    -0.187 C  
BRANCH   7   8
HETATM    8  C   UNL     1     -11.459  13.257  68.207  1.00  0.00    -0.351 C  
BRANCH   8   9
HETATM    9  C   UNL     1     -10.771  14.360  67.458  1.00  0.00    -0.271 C  
HETATM   10  C   UNL     1     -11.028  14.699  66.182  1.00  0.00    -0.329 C  
BRANCH  10  11
HETATM   11  C   UNL     1     -12.102  14.052  65.355  1.00  0.00    -0.411 C  
BRANCH  11  12
HETATM   12  C   UNL     1     -11.733  13.961  63.878  1.00  0.00    -0.241 C  
BRANCH  12  13
HETATM   13  C   UNL     1     -11.797  12.509  63.404  1.00  0.00    -0.587 C  
BRANCH  13  14
HETATM   14  C   UNL     1     -11.461  11.551  64.541  1.00  0.00    -0.204 C  
BRANCH  14  15
HETATM   15  C   UNL     1     -10.268  10.661  64.190  1.00  0.00    -0.365 C  
BRANCH  15  16
HETATM   16  C   UNL     1      -9.343  10.510  65.396  1.00  0.00    -0.255 C  
BRANCH  16  17
HETATM   17  C   UNL     1      -8.377  11.684  65.517  1.00  0.00     0.457 C  
HETATM   18  C   UNL     1      -7.598  11.633  66.813  1.00  0.00    -0.104 C  
HETATM   19  O   UNL     1      -7.701  10.770  67.670  1.00  0.00    -0.102 OA 
HETATM   20  O   UNL     1      -6.742  12.674  66.938  1.00  0.00    -0.047 OA 
ENDBRANCH  16  17
ENDBRANCH  15  16
ENDBRANCH  14  15
ENDBRANCH  13  14
ENDBRANCH  12  13
ENDBRANCH  11  12
ENDBRANCH  10  11
ENDBRANCH   8   9
ENDBRANCH   7   8
ENDBRANCH   5   6
ENDBRANCH   4   5
ENDBRANCH   2   3
TORSDOF 12
ENDMDL
MODEL      330
REMARK 921   NORMALIZED FREE ENERGY PREDICTED BY IDOCK:   -3.18 KCAL/MOL
REMARK 922        TOTAL FREE ENERGY PREDICTED BY IDOCK:   -7.25 KCAL/MOL
REMARK 923 INTER-LIGAND FREE ENERGY PREDICTED BY IDOCK:   -5.33 KCAL/MOL
REMARK 924 INTRA-LIGAND FREE ENERGY PREDICTED BY IDOCK:   -1.92 KCAL/MOL
REMARK 927      BINDING AFFINITY PREDICTED BY RF-SCORE:    0.00 PKD
ROOT
HETATM    1  C   UNL     1     -11.402  11.828  66.927  1.00  0.00    -0.386 C  
HETATM    2  C   UNL     1     -11.602  12.227  68.380  1.00  0.00    -0.377 C  
ENDROOT
BRANCH   2   3
HETATM    3  C   UNL     1     -12.034  11.061  69.224  1.00  0.00    -0.410 C  
HETATM    4  C   UNL     1     -11.215  10.172  69.810  1.00  0.00    -0.325 C  
BRANCH   4   5
HETATM    5  C   UNL     1      -9.719  10.183  69.683  1.00  0.00    -0.250 C  
BRANCH   5   6
HETATM    6  C   UNL     1      -9.232   9.324  68.551  1.00  0.00    -0.135 C  
HETATM    7  C   UNL     1      -8.077   9.501  67.885  1.00  0.00    -0.106 C  
BRANCH   7   8
HETATM    8  C   UNL     1      -7.120  10.625  68.158  1.00  0.00    -0.081 C  
BRANCH   8   9
HETATM    9  C   UNL     1      -7.183  11.696  67.110  1.00  0.00    -0.145 C  
HETATM   10  C   UNL     1      -7.774  12.894  67.268  1.00  0.00    -0.122 C  
BRANCH  10  11
HETATM   11  C   UNL     1      -8.395  13.343  68.560  1.00  0.00    -0.085 C  
BRANCH  11  12
HETATM   12  C   UNL     1      -7.633  14.493  69.210  1.00  0.00    -0.073 C  
BRANCH  12  13
HETATM   13  C   UNL     1      -8.497  15.754  69.238  1.00  0.00    -0.258 C  
BRANCH  13  14
HETATM   14  C   UNL     1      -7.752  16.936  68.625  1.00  0.00    -0.235 C  
BRANCH  14  15
HETATM   15  C   UNL     1      -7.294  16.630  67.199  1.00  0.00    -0.220 C  
BRANCH  15  16
HETATM   16  C   UNL     1      -7.723  17.747  66.250  1.00  0.00    -0.308 C  
BRANCH  16  17
HETATM   17  C   UNL     1      -8.678  18.726  66.925  1.00  0.00    -0.298 C  
HETATM   18  C   UNL     1     -10.084  18.596  66.383  1.00  0.00    -0.403 C  
HETATM   19  O   UNL     1     -10.443  17.811  65.519  1.00  0.00    -0.646 OA 
HETATM   20  O   UNL     1     -10.941  19.466  66.967  1.00  0.00    -0.467 OA 
ENDBRANCH  16  17
ENDBRANCH  15  16
ENDBRANCH  14  15
ENDBRANCH  13  14
ENDBRANCH  12  13
ENDBRANCH  11  12
ENDBRANCH  10  11
ENDBRANCH   8   9
ENDBRANCH   7   8
ENDBRANCH   5   6
ENDBRANCH   4   5
ENDBRANCH   2   3
TORSDOF 12
ENDMDL
MODEL      331
REMARK 921   NORMALIZED FREE ENERGY PREDICTED BY IDOCK:   -3.17 KCAL/MOL
REMARK 922        TOTAL FREE ENERGY PREDICTED BY IDOCK:   -7.23 KCAL/MOL
REMARK 923 INTER-LIGAND FREE ENERGY PREDICTED BY IDOCK:   -5.02 KCAL/MOL
REMARK 924 INTRA-LIGAND FREE ENERGY PREDICTED BY IDOCK:   -2.21 KCAL/MOL
REMARK 927      BINDING AFFINITY PREDICTED BY RF-SCORE:    0.00 PKD
ROOT
HETATM    1  C   UNL     1     -12.851   7.883  71.570  1.00  0.00    -0.340 C  
HETATM    2  C   UNL     1     -12.292   9.294  71.479  1.00  0.00    -0.439 C  
ENDROOT
BRANCH   2   3
HETATM    3  C   UNL     1     -13.243  10.308  72.049  1.00  0.00    -0.516 C  
HETATM    4  C   UNL     1     -13.185  11.635  71.850  1.00  0.00    -0.475 C  
BRANCH   4   5
HETATM    5  C   UNL     1     -12.123  12.328  71.043  1.00  0.00    -0.037 C  
BRANCH   5   6
HETATM    6  C   UNL     1     -12.636  12.822  69.722  1.00  0.00     0.227 C  
HETATM    7  C   UNL     1     -12.119  13.850  69.025  1.00  0.00    -0.365 C  
BRANCH   7   8
HETATM    8  C   UNL     1     -10.965  14.684  69.501  1.00  0.00    -0.269 C  
BRANCH   8   9
HETATM    9  C   UNL     1     -10.596  15.761  68.523  1.00  0.00    -0.253 C  
HETATM   10  C   UNL     1      -9.827  15.581  67.435  1.00  0.00    -0.224 C  
BRANCH  10  11
HETATM   11  C   UNL     1      -9.288  14.242  67.016  1.00  0.00    -0.249 C  
BRANCH  11  12
HETATM   12  C   UNL     1     -10.076  13.626  65.865  1.00  0.00    -0.320 C  
BRANCH  12  13
HETATM   13  C   UNL     1      -9.948  12.102  65.891  1.00  0.00    -0.267 C  
BRANCH  13  14
HETATM   14  C   UNL     1     -11.131  11.471  66.619  1.00  0.00    -0.355 C  
BRANCH  14  15
HETATM   15  C   UNL     1     -10.679  10.351  67.556  1.00  0.00    -0.339 C  
BRANCH  15  16
HETATM   16  C   UNL     1      -9.650  10.875  68.556  1.00  0.00    -0.187 C  
BRANCH  16  17
HETATM   17  C   UNL     1      -9.192   9.785  69.519  1.00  0.00    -0.226 C  
HETATM   18  C   UNL     1      -7.776  10.021  69.996  1.00  0.00    -0.169 C  
HETATM   19  O   UNL     1      -7.066  10.961  69.674  1.00  0.00    -0.134 OA 
HETATM   20  O   UNL     1      -7.354   9.056  70.845  1.00  0.00    -0.089 OA 
ENDBRANCH  16  17
ENDBRANCH  15  16
ENDBRANCH  14  15
ENDBRANCH  13  14
ENDBRANCH  12  13
ENDBRANCH  11  12
ENDBRANCH  10  11
ENDBRANCH   8   9
ENDBRANCH   7   8
ENDBRANCH   5   6
ENDBRANCH   4   5
ENDBRANCH   2   3
TORSDOF 12
ENDMDL
MODEL      332
REMARK 921   NORMALIZED FREE ENERGY PREDICTED BY IDOCK:   -3.15 KCAL/MOL
REMARK 922        TOTAL FREE ENERGY PREDICTED BY IDOCK:   -7.21 KCAL/MOL
REMARK 923 INTER-LIGAND FREE ENERGY PREDICTED BY IDOCK:   -6.38 KCAL/MOL
REMARK 924 INTRA-LIGAND FREE ENERGY PREDICTED BY IDOCK:   -0.83 KCAL/MOL
REMARK 927      BINDING AFFINITY PREDICTED BY RF-SCORE:    0.00 PKD
ROOT
HETATM    1  C   UNL     1     -10.605  20.073  65.646  1.00  0.00    -0.380 C  
HETATM    2  C   UNL     1      -9.743  19.041  66.355  1.00  0.00    -0.405 C  
ENDROOT
BRANCH   2   3
HETATM    3  C   UNL     1     -10.549  18.193  67.297  1.00  0.00    -0.384 C  
HETATM    4  C   UNL     1     -10.622  16.852  67.275  1.00  0.00    -0.270 C  
BRANCH   4   5
HETATM    5  C   UNL     1      -9.927  15.979  66.269  1.00  0.00    -0.329 C  
BRANCH   5   6
HETATM    6  C   UNL     1      -8.437  15.964  66.454  1.00  0.00    -0.348 C  
HETATM    7  C   UNL     1      -7.786  15.336  67.449  1.00  0.00    -0.220 C  
BRANCH   7   8
HETATM    8  C   UNL     1      -8.474  14.588  68.555  1.00  0.00    -0.166 C  
BRANCH   8   9
HETATM    9  C   UNL     1      -8.327  13.102  68.417  1.00  0.00    -0.122 C  
HETATM   10  C   UNL     1      -9.281  12.275  67.951  1.00  0.00    -0.190 C  
BRANCH  10  11
HETATM   11  C   UNL     1     -10.609  12.753  67.437  1.00  0.00    -0.241 C  
BRANCH  11  12
HETATM   12  C   UNL     1     -11.563  13.156  68.556  1.00  0.00    -0.361 C  
BRANCH  12  13
HETATM   13  C   UNL     1     -11.565  12.096  69.659  1.00  0.00    -0.361 C  
BRANCH  13  14
HETATM   14  C   UNL     1     -11.665  10.695  69.064  1.00  0.00    -0.305 C  
BRANCH  14  15
HETATM   15  C   UNL     1     -10.641   9.747  69.688  1.00  0.00    -0.260 C  
BRANCH  15  16
HETATM   16  C   UNL     1     -10.966   9.504  71.160  1.00  0.00    -0.438 C  
BRANCH  16  17
HETATM   17  C   UNL     1     -12.160   8.569  71.328  1.00  0.00    -0.323 C  
HETATM   18  C   UNL     1     -13.339   9.279  71.957  1.00  0.00    -0.450 C  
HETATM   19  O   UNL     1     -13.364  10.452  72.292  1.00  0.00    -0.396 OA 
HETATM   20  O   UNL     1     -14.403   8.459  72.120  1.00  0.00    -0.427 OA 
ENDBRANCH  16  17
ENDBRANCH  15  16
ENDBRANCH  14  15
ENDBRANCH  13  14
ENDBRANCH  12  13
ENDBRANCH  11  12
ENDBRANCH  10  11
ENDBRANCH   8   9
ENDBRANCH   7   8
ENDBRANCH   5   6
ENDBRANCH   4   5
ENDBRANCH   2   3
TORSDOF 12
ENDMDL
MODEL      333
REMARK 921   NORMALIZED FREE ENERGY PREDICTED BY IDOCK:   -3.15 KCAL/MOL
REMARK 922        TOTAL FREE ENERGY PREDICTED BY IDOCK:   -7.20 KCAL/MOL
REMARK 923 INTER-LIGAND FREE ENERGY PREDICTED BY IDOCK:   -5.24 KCAL/MOL
REMARK 924 INTRA-LIGAND FREE ENERGY PREDICTED BY IDOCK:   -1.97 KCAL/MOL
REMARK 927      BINDING AFFINITY PREDICTED BY RF-SCORE:    0.00 PKD
ROOT
HETATM    1  C   UNL     1      -8.173   9.668  70.319  1.00  0.00    -0.217 C  
HETATM    2  C   UNL     1      -8.778   9.276  68.981  1.00  0.00    -0.135 C  
ENDROOT
BRANCH   2   3
HETATM    3  C   UNL     1      -9.624  10.377  68.407  1.00  0.00    -0.153 C  
HETATM    4  C   UNL     1      -9.163  11.476  67.787  1.00  0.00    -0.165 C  
BRANCH   4   5
HETATM    5  C   UNL     1      -7.707  11.799  67.601  1.00  0.00    -0.137 C  
BRANCH   5   6
HETATM    6  C   UNL     1      -7.205  12.790  68.612  1.00  0.00    -0.104 C  
HETATM    7  C   UNL     1      -7.137  14.120  68.425  1.00  0.00    -0.104 C  
BRANCH   7   8
HETATM    8  C   UNL     1      -7.520  14.805  67.145  1.00  0.00    -0.069 C  
BRANCH   8   9
HETATM    9  C   UNL     1      -7.156  16.260  67.145  1.00  0.00    -0.244 C  
HETATM   10  C   UNL     1      -8.024  17.270  66.953  1.00  0.00    -0.257 C  
BRANCH  10  11
HETATM   11  C   UNL     1      -9.503  17.067  66.782  1.00  0.00    -0.270 C  
BRANCH  11  12
HETATM   12  C   UNL     1     -10.315  17.684  67.916  1.00  0.00    -0.371 C  
BRANCH  12  13
HETATM   13  C   UNL     1     -11.090  16.598  68.665  1.00  0.00    -0.294 C  
BRANCH  13  14
HETATM   14  C   UNL     1     -10.147  15.735  69.497  1.00  0.00    -0.279 C  
BRANCH  14  15
HETATM   15  C   UNL     1     -10.512  14.254  69.402  1.00  0.00    -0.049 C  
BRANCH  15  16
HETATM   16  C   UNL     1     -12.023  14.068  69.525  1.00  0.00    -0.390 C  
BRANCH  16  17
HETATM   17  C   UNL     1     -12.424  13.612  70.924  1.00  0.00    -0.448 C  
HETATM   18  C   UNL     1     -13.229  14.670  71.646  1.00  0.00    -0.349 C  
HETATM   19  O   UNL     1     -13.540  15.759  71.190  1.00  0.00    -0.576 OA 
HETATM   20  O   UNL     1     -13.584  14.281  72.893  1.00  0.00    -0.624 OA 
ENDBRANCH  16  17
ENDBRANCH  15  16
ENDBRANCH  14  15
ENDBRANCH  13  14
ENDBRANCH  12  13
ENDBRANCH  11  12
ENDBRANCH  10  11
ENDBRANCH   8   9
ENDBRANCH   7   8
ENDBRANCH   5   6
ENDBRANCH   4   5
ENDBRANCH   2   3
TORSDOF 12
ENDMDL
MODEL      334
REMARK 921   NORMALIZED FREE ENERGY PREDICTED BY IDOCK:   -3.14 KCAL/MOL
REMARK 922        TOTAL FREE ENERGY PREDICTED BY IDOCK:   -7.18 KCAL/MOL
REMARK 923 INTER-LIGAND FREE ENERGY PREDICTED BY IDOCK:   -5.62 KCAL/MOL
REMARK 924 INTRA-LIGAND FREE ENERGY PREDICTED BY IDOCK:   -1.57 KCAL/MOL
REMARK 927      BINDING AFFINITY PREDICTED BY RF-SCORE:    0.00 PKD
ROOT
HETATM    1  C   UNL     1      -9.270   9.240  70.961  1.00  0.00    -0.273 C  
HETATM    2  C   UNL     1     -10.670   9.833  70.944  1.00  0.00    -0.375 C  
ENDROOT
BRANCH   2   3
HETATM    3  C   UNL     1     -11.607   9.077  71.842  1.00  0.00    -0.441 C  
HETATM    4  C   UNL     1     -12.330   8.001  71.491  1.00  0.00    -0.335 C  
BRANCH   4   5
HETATM    5  C   UNL     1     -12.343   7.397  70.115  1.00  0.00     0.417 C  
BRANCH   5   6
HETATM    6  C   UNL     1     -11.317   6.312  69.955  1.00  0.00    -0.504 C  
HETATM    7  C   UNL     1     -10.595   6.088  68.842  1.00  0.00    -0.356 C  
BRANCH   7   8
HETATM    8  C   UNL     1     -10.749   6.876  67.574  1.00  0.00    -0.368 C  
BRANCH   8   9
HETATM    9  C   UNL     1      -9.438   7.105  66.881  1.00  0.00    -0.200 C  
HETATM   10  C   UNL     1      -8.904   8.312  66.624  1.00  0.00    -0.166 C  
BRANCH  10  11
HETATM   11  C   UNL     1      -9.529   9.604  67.068  1.00  0.00    -0.195 C  
BRANCH  11  12
HETATM   12  C   UNL     1     -10.279  10.311  65.945  1.00  0.00    -0.293 C  
BRANCH  12  13
HETATM   13  C   UNL     1      -9.527  11.572  65.517  1.00  0.00    -0.234 C  
BRANCH  13  14
HETATM   14  C   UNL     1      -9.008  12.333  66.732  1.00  0.00    -0.209 C  
BRANCH  14  15
HETATM   15  C   UNL     1     -10.121  13.130  67.412  1.00  0.00    -0.229 C  
BRANCH  15  16
HETATM   16  C   UNL     1     -10.312  14.477  66.719  1.00  0.00    -0.269 C  
BRANCH  16  17
HETATM   17  C   UNL     1      -9.025  15.297  66.713  1.00  0.00    -0.291 C  
HETATM   18  C   UNL     1      -9.205  16.611  65.986  1.00  0.00    -0.228 C  
HETATM   19  O   UNL     1     -10.239  16.999  65.467  1.00  0.00    -0.589 OA 
HETATM   20  O   UNL     1      -8.068  17.345  65.966  1.00  0.00    -0.483 OA 
ENDBRANCH  16  17
ENDBRANCH  15  16
ENDBRANCH  14  15
ENDBRANCH  13  14
ENDBRANCH  12  13
ENDBRANCH  11  12
ENDBRANCH  10  11
ENDBRANCH   8   9
ENDBRANCH   7   8
ENDBRANCH   5   6
ENDBRANCH   4   5
ENDBRANCH   2   3
TORSDOF 12
ENDMDL
MODEL      335
REMARK 921   NORMALIZED FREE ENERGY PREDICTED BY IDOCK:   -3.14 KCAL/MOL
REMARK 922        TOTAL FREE ENERGY PREDICTED BY IDOCK:   -7.18 KCAL/MOL
REMARK 923 INTER-LIGAND FREE ENERGY PREDICTED BY IDOCK:   -5.82 KCAL/MOL
REMARK 924 INTRA-LIGAND FREE ENERGY PREDICTED BY IDOCK:   -1.36 KCAL/MOL
REMARK 927      BINDING AFFINITY PREDICTED BY RF-SCORE:    0.00 PKD
ROOT
HETATM    1  C   UNL     1      -6.158   5.451  71.150  1.00  0.00    -0.029 C  
HETATM    2  C   UNL     1      -6.966   6.432  70.315  1.00  0.00    -0.063 C  
ENDROOT
BRANCH   2   3
HETATM    3  C   UNL     1      -7.128   5.959  68.899  1.00  0.00    -0.073 C  
HETATM    4  C   UNL     1      -8.206   5.331  68.401  1.00  0.00    -0.090 C  
BRANCH   4   5
HETATM    5  C   UNL     1      -9.423   4.967  69.203  1.00  0.00    -0.196 C  
BRANCH   5   6
HETATM    6  C   UNL     1     -10.680   5.573  68.647  1.00  0.00    -0.176 C  
HETATM    7  C   UNL     1     -11.387   6.559  69.228  1.00  0.00    -0.359 C  
BRANCH   7   8
HETATM    8  C   UNL     1     -11.035   7.169  70.554  1.00  0.00    -0.287 C  
BRANCH   8   9
HETATM    9  C   UNL     1     -10.091   8.327  70.418  1.00  0.00    -0.199 C  
HETATM   10  C   UNL     1     -10.407   9.611  70.665  1.00  0.00    -0.365 C  
BRANCH  10  11
HETATM   11  C   UNL     1     -11.748  10.046  71.185  1.00  0.00    -0.472 C  
BRANCH  11  12
HETATM   12  C   UNL     1     -12.058  11.504  70.865  1.00  0.00    -0.352 C  
BRANCH  12  13
HETATM   13  C   UNL     1     -13.314  11.956  71.611  1.00  0.00    -0.236 C  
BRANCH  13  14
HETATM   14  C   UNL     1     -13.041  13.223  72.415  1.00  0.00    -0.443 C  
BRANCH  14  15
HETATM   15  C   UNL     1     -14.121  14.279  72.181  1.00  0.00    -0.634 C  
BRANCH  15  16
HETATM   16  C   UNL     1     -13.764  15.149  70.978  1.00  0.00    -0.450 C  
BRANCH  16  17
HETATM   17  C   UNL     1     -12.334  15.673  71.064  1.00  0.00    -0.481 C  
HETATM   18  C   UNL     1     -11.564  15.402  69.791  1.00  0.00    -0.323 C  
HETATM   19  O   UNL     1     -12.005  14.843  68.800  1.00  0.00    -0.303 OA 
HETATM   20  O   UNL     1     -10.290  15.854  69.857  1.00  0.00    -0.288 OA 
ENDBRANCH  16  17
ENDBRANCH  15  16
ENDBRANCH  14  15
ENDBRANCH  13  14
ENDBRANCH  12  13
ENDBRANCH  11  12
ENDBRANCH  10  11
ENDBRANCH   8   9
ENDBRANCH   7   8
ENDBRANCH   5   6
ENDBRANCH   4   5
ENDBRANCH   2   3
TORSDOF 12
ENDMDL
MODEL      336
REMARK 921   NORMALIZED FREE ENERGY PREDICTED BY IDOCK:   -3.13 KCAL/MOL
REMARK 922        TOTAL FREE ENERGY PREDICTED BY IDOCK:   -7.18 KCAL/MOL
REMARK 923 INTER-LIGAND FREE ENERGY PREDICTED BY IDOCK:   -4.41 KCAL/MOL
REMARK 924 INTRA-LIGAND FREE ENERGY PREDICTED BY IDOCK:   -2.76 KCAL/MOL
REMARK 927      BINDING AFFINITY PREDICTED BY RF-SCORE:    0.00 PKD
ROOT
HETATM    1  C   UNL     1     -11.429   8.698  72.055  1.00  0.00    -0.437 C  
HETATM    2  C   UNL     1     -11.898   7.356  71.515  1.00  0.00    -0.327 C  
ENDROOT
BRANCH   2   3
HETATM    3  C   UNL     1     -11.281   6.207  72.262  1.00  0.00    -0.334 C  
HETATM    4  C   UNL     1     -10.475   5.272  71.732  1.00  0.00    -0.278 C  
BRANCH   4   5
HETATM    5  C   UNL     1     -10.088   5.205  70.282  1.00  0.00    -0.338 C  
BRANCH   5   6
HETATM    6  C   UNL     1      -9.763   3.808  69.838  1.00  0.00    -0.200 C  
HETATM    7  C   UNL     1      -9.285   3.472  68.627  1.00  0.00    -0.225 C  
BRANCH   7   8
HETATM    8  C   UNL     1      -9.046   4.458  67.521  1.00  0.00    -0.146 C  
BRANCH   8   9
HETATM    9  C   UNL     1     -10.314   4.854  66.824  1.00  0.00    -0.264 C  
HETATM   10  C   UNL     1     -10.707   6.122  66.604  1.00  0.00    -0.301 C  
BRANCH  10  11
HETATM   11  C   UNL     1      -9.877   7.319  66.970  1.00  0.00    -0.265 C  
BRANCH  11  12
HETATM   12  C   UNL     1     -10.397   8.038  68.210  1.00  0.00    -0.240 C  
BRANCH  12  13
HETATM   13  C   UNL     1      -9.283   8.867  68.849  1.00  0.00    -0.140 C  
BRANCH  13  14
HETATM   14  C   UNL     1      -7.923   8.214  68.624  1.00  0.00    -0.115 C  
BRANCH  14  15
HETATM   15  C   UNL     1      -7.438   7.485  69.877  1.00  0.00    -0.084 C  
BRANCH  15  16
HETATM   16  C   UNL     1      -7.792   8.283  71.130  1.00  0.00    -0.102 C  
BRANCH  16  17
HETATM   17  C   UNL     1      -7.550   7.475  72.401  1.00  0.00    -0.095 C  
HETATM   18  C   UNL     1      -6.675   8.226  73.380  1.00  0.00    -0.118 C  
HETATM   19  O   UNL     1      -6.212   9.342  73.207  1.00  0.00    -0.311 OA 
HETATM   20  O   UNL     1      -6.445   7.517  74.510  1.00  0.00    -0.087 OA 
ENDBRANCH  16  17
ENDBRANCH  15  16
ENDBRANCH  14  15
ENDBRANCH  13  14
ENDBRANCH  12  13
ENDBRANCH  11  12
ENDBRANCH  10  11
ENDBRANCH   8   9
ENDBRANCH   7   8
ENDBRANCH   5   6
ENDBRANCH   4   5
ENDBRANCH   2   3
TORSDOF 12
ENDMDL
MODEL      337
REMARK 921   NORMALIZED FREE ENERGY PREDICTED BY IDOCK:   -3.13 KCAL/MOL
REMARK 922        TOTAL FREE ENERGY PREDICTED BY IDOCK:   -7.17 KCAL/MOL
REMARK 923 INTER-LIGAND FREE ENERGY PREDICTED BY IDOCK:   -5.90 KCAL/MOL
REMARK 924 INTRA-LIGAND FREE ENERGY PREDICTED BY IDOCK:   -1.27 KCAL/MOL
REMARK 927      BINDING AFFINITY PREDICTED BY RF-SCORE:    0.00 PKD
ROOT
HETATM    1  C   UNL     1      -9.400   4.269  66.818  1.00  0.00    -0.180 C  
HETATM    2  C   UNL     1      -9.641   5.665  67.371  1.00  0.00    -0.123 C  
ENDROOT
BRANCH   2   3
HETATM    3  C   UNL     1     -10.804   5.696  68.321  1.00  0.00    -0.159 C  
HETATM    4  C   UNL     1     -10.723   5.631  69.660  1.00  0.00    -0.398 C  
BRANCH   4   5
HETATM    5  C   UNL     1      -9.440   5.480  70.428  1.00  0.00    -0.209 C  
BRANCH   5   6
HETATM    6  C   UNL     1      -9.508   4.381  71.449  1.00  0.00    -0.220 C  
HETATM    7  C   UNL     1     -10.365   4.337  72.484  1.00  0.00    -0.239 C  
BRANCH   7   8
HETATM    8  C   UNL     1     -11.361   5.419  72.790  1.00  0.00    -0.358 C  
BRANCH   8   9
HETATM    9  C   UNL     1     -10.719   6.629  73.405  1.00  0.00    -0.315 C  
HETATM   10  C   UNL     1     -10.816   7.880  72.921  1.00  0.00    -0.451 C  
BRANCH  10  11
HETATM   11  C   UNL     1     -11.650   8.241  71.725  1.00  0.00    -0.356 C  
BRANCH  11  12
HETATM   12  C   UNL     1     -12.875   9.072  72.091  1.00  0.00    -0.478 C  
BRANCH  12  13
HETATM   13  C   UNL     1     -12.780  10.463  71.465  1.00  0.00    -0.564 C  
BRANCH  13  14
HETATM   14  C   UNL     1     -11.724  10.492  70.365  1.00  0.00    -0.434 C  
BRANCH  14  15
HETATM   15  C   UNL     1     -12.025  11.573  69.327  1.00  0.00    -0.397 C  
BRANCH  15  16
HETATM   16  C   UNL     1     -11.626  11.098  67.931  1.00  0.00    -0.328 C  
BRANCH  16  17
HETATM   17  C   UNL     1     -10.115  10.937  67.800  1.00  0.00    -0.203 C  
HETATM   18  C   UNL     1      -9.753   9.700  67.008  1.00  0.00    -0.181 C  
HETATM   19  O   UNL     1     -10.548   8.914  66.516  1.00  0.00    -0.188 OA 
HETATM   20  O   UNL     1      -8.414   9.540  66.890  1.00  0.00    -0.126 OA 
ENDBRANCH  16  17
ENDBRANCH  15  16
ENDBRANCH  14  15
ENDBRANCH  13  14
ENDBRANCH  12  13
ENDBRANCH  11  12
ENDBRANCH  10  11
ENDBRANCH   8   9
ENDBRANCH   7   8
ENDBRANCH   5   6
ENDBRANCH   4   5
ENDBRANCH   2   3
TORSDOF 12
ENDMDL
MODEL      338
REMARK 921   NORMALIZED FREE ENERGY PREDICTED BY IDOCK:   -3.13 KCAL/MOL
REMARK 922        TOTAL FREE ENERGY PREDICTED BY IDOCK:   -7.16 KCAL/MOL
REMARK 923 INTER-LIGAND FREE ENERGY PREDICTED BY IDOCK:   -5.74 KCAL/MOL
REMARK 924 INTRA-LIGAND FREE ENERGY PREDICTED BY IDOCK:   -1.42 KCAL/MOL
REMARK 927      BINDING AFFINITY PREDICTED BY RF-SCORE:    0.00 PKD
ROOT
HETATM    1  C   UNL     1     -10.109   2.520  62.367  1.00  0.00    -0.093 C  
HETATM    2  C   UNL     1     -10.495   3.346  63.584  1.00  0.00    -0.254 C  
ENDROOT
BRANCH   2   3
HETATM    3  C   UNL     1      -9.404   3.362  64.616  1.00  0.00    -0.146 C  
HETATM    4  C   UNL     1      -9.326   4.203  65.661  1.00  0.00    -0.162 C  
BRANCH   4   5
HETATM    5  C   UNL     1     -10.313   5.300  65.943  1.00  0.00    -0.101 C  
BRANCH   5   6
HETATM    6  C   UNL     1     -10.420   5.613  67.409  1.00  0.00    -0.306 C  
HETATM    7  C   UNL     1     -10.543   6.846  67.930  1.00  0.00    -0.286 C  
BRANCH   7   8
HETATM    8  C   UNL     1     -10.547   8.103  67.110  1.00  0.00    -0.355 C  
BRANCH   8   9
HETATM    9  C   UNL     1      -9.553   9.112  67.605  1.00  0.00    -0.181 C  
HETATM   10  C   UNL     1      -9.733  10.445  67.582  1.00  0.00    -0.191 C  
BRANCH  10  11
HETATM   11  C   UNL     1     -11.002  11.099  67.116  1.00  0.00    -0.350 C  
BRANCH  11  12
HETATM   12  C   UNL     1     -11.653  11.957  68.196  1.00  0.00    -0.400 C  
BRANCH  12  13
HETATM   13  C   UNL     1     -11.099  11.586  69.572  1.00  0.00    -0.256 C  
BRANCH  13  14
HETATM   14  C   UNL     1     -12.222  11.484  70.599  1.00  0.00    -0.473 C  
BRANCH  14  15
HETATM   15  C   UNL     1     -12.517  10.029  70.964  1.00  0.00    -0.460 C  
BRANCH  15  16
HETATM   16  C   UNL     1     -11.307   9.148  70.661  1.00  0.00    -0.323 C  
BRANCH  16  17
HETATM   17  C   UNL     1     -10.506   8.836  71.921  1.00  0.00    -0.423 C  
HETATM   18  C   UNL     1     -10.986   7.565  72.587  1.00  0.00    -0.336 C  
HETATM   19  O   UNL     1     -11.893   6.853  72.186  1.00  0.00    -0.288 OA 
HETATM   20  O   UNL     1     -10.289   7.281  73.712  1.00  0.00    -0.360 OA 
ENDBRANCH  16  17
ENDBRANCH  15  16
ENDBRANCH  14  15
ENDBRANCH  13  14
ENDBRANCH  12  13
ENDBRANCH  11  12
ENDBRANCH  10  11
ENDBRANCH   8   9
ENDBRANCH   7   8
ENDBRANCH   5   6
ENDBRANCH   4   5
ENDBRANCH   2   3
TORSDOF 12
ENDMDL
MODEL      339
REMARK 921   NORMALIZED FREE ENERGY PREDICTED BY IDOCK:   -3.12 KCAL/MOL
REMARK 922        TOTAL FREE ENERGY PREDICTED BY IDOCK:   -7.15 KCAL/MOL
REMARK 923 INTER-LIGAND FREE ENERGY PREDICTED BY IDOCK:   -5.73 KCAL/MOL
REMARK 924 INTRA-LIGAND FREE ENERGY PREDICTED BY IDOCK:   -1.42 KCAL/MOL
REMARK 927      BINDING AFFINITY PREDICTED BY RF-SCORE:    0.00 PKD
ROOT
HETATM    1  C   UNL     1     -13.756  13.641  72.469  1.00  0.00    -0.663 C  
HETATM    2  C   UNL     1     -13.990  14.852  71.580  1.00  0.00    -0.571 C  
ENDROOT
BRANCH   2   3
HETATM    3  C   UNL     1     -12.709  15.575  71.273  1.00  0.00    -0.526 C  
HETATM    4  C   UNL     1     -11.869  15.288  70.265  1.00  0.00    -0.353 C  
BRANCH   4   5
HETATM    5  C   UNL     1     -12.063  14.158  69.294  1.00  0.00    -0.364 C  
BRANCH   5   6
HETATM    6  C   UNL     1     -11.782  14.566  67.876  1.00  0.00    -0.381 C  
HETATM    7  C   UNL     1     -11.540  13.719  66.860  1.00  0.00    -0.394 C  
BRANCH   7   8
HETATM    8  C   UNL     1     -11.475  12.227  67.014  1.00  0.00    -0.419 C  
BRANCH   8   9
HETATM    9  C   UNL     1     -11.200  11.529  65.715  1.00  0.00    -0.228 C  
HETATM   10  C   UNL     1     -10.268  10.576  65.536  1.00  0.00    -0.325 C  
BRANCH  10  11
HETATM   11  C   UNL     1      -9.419  10.031  66.649  1.00  0.00    -0.215 C  
BRANCH  11  12
HETATM   12  C   UNL     1      -7.943  10.378  66.488  1.00  0.00    -0.123 C  
BRANCH  12  13
HETATM   13  C   UNL     1      -7.298  10.599  67.857  1.00  0.00    -0.089 C  
BRANCH  13  14
HETATM   14  C   UNL     1      -6.685  11.993  67.949  1.00  0.00    -0.080 C  
BRANCH  14  15
HETATM   15  C   UNL     1      -7.732  13.043  68.317  1.00  0.00    -0.141 C  
BRANCH  15  16
HETATM   16  C   UNL     1      -7.455  14.353  67.583  1.00  0.00    -0.191 C  
BRANCH  16  17
HETATM   17  C   UNL     1      -6.797  15.384  68.496  1.00  0.00    -0.113 C  
HETATM   18  C   UNL     1      -7.242  16.790  68.160  1.00  0.00    -0.164 C  
HETATM   19  O   UNL     1      -8.032  17.094  67.280  1.00  0.00    -0.172 OA 
HETATM   20  O   UNL     1      -6.659  17.716  68.956  1.00  0.00    -0.223 OA 
ENDBRANCH  16  17
ENDBRANCH  15  16
ENDBRANCH  14  15
ENDBRANCH  13  14
ENDBRANCH  12  13
ENDBRANCH  11  12
ENDBRANCH  10  11
ENDBRANCH   8   9
ENDBRANCH   7   8
ENDBRANCH   5   6
ENDBRANCH   4   5
ENDBRANCH   2   3
TORSDOF 12
ENDMDL
MODEL      340
REMARK 921   NORMALIZED FREE ENERGY PREDICTED BY IDOCK:   -3.12 KCAL/MOL
REMARK 922        TOTAL FREE ENERGY PREDICTED BY IDOCK:   -7.15 KCAL/MOL
REMARK 923 INTER-LIGAND FREE ENERGY PREDICTED BY IDOCK:   -5.85 KCAL/MOL
REMARK 924 INTRA-LIGAND FREE ENERGY PREDICTED BY IDOCK:   -1.30 KCAL/MOL
REMARK 927      BINDING AFFINITY PREDICTED BY RF-SCORE:    0.00 PKD
ROOT
HETATM    1  C   UNL     1      -7.534   6.491  66.718  1.00  0.00    -0.079 C  
HETATM    2  C   UNL     1      -8.235   7.564  65.898  1.00  0.00    -0.134 C  
ENDROOT
BRANCH   2   3
HETATM    3  C   UNL     1      -7.824   7.519  64.454  1.00  0.00    -0.128 C  
HETATM    4  C   UNL     1      -7.733   8.578  63.632  1.00  0.00    -0.142 C  
BRANCH   4   5
HETATM    5  C   UNL     1      -8.065   9.989  64.025  1.00  0.00    -0.153 C  
BRANCH   5   6
HETATM    6  C   UNL     1      -9.425  10.412  63.548  1.00  0.00    -0.356 C  
HETATM    7  C   UNL     1     -10.423  10.846  64.339  1.00  0.00    -0.403 C  
BRANCH   7   8
HETATM    8  C   UNL     1     -10.327  10.927  65.835  1.00  0.00    -0.310 C  
BRANCH   8   9
HETATM    9  C   UNL     1     -11.339  11.866  66.422  1.00  0.00    -0.400 C  
HETATM   10  C   UNL     1     -11.216  13.205  66.458  1.00  0.00    -0.339 C  
BRANCH  10  11
HETATM   11  C   UNL     1     -10.064  13.945  65.840  1.00  0.00    -0.331 C  
BRANCH  11  12
HETATM   12  C   UNL     1      -9.267  14.750  66.861  1.00  0.00    -0.263 C  
BRANCH  12  13
HETATM   13  C   UNL     1      -9.979  14.743  68.214  1.00  0.00    -0.222 C  
BRANCH  13  14
HETATM   14  C   UNL     1     -10.537  16.125  68.540  1.00  0.00    -0.284 C  
BRANCH  14  15
HETATM   15  C   UNL     1     -11.938  16.035  69.144  1.00  0.00    -0.187 C  
BRANCH  15  16
HETATM   16  C   UNL     1     -12.086  14.751  69.959  1.00  0.00    -0.380 C  
BRANCH  16  17
HETATM   17  C   UNL     1     -13.276  14.821  70.911  1.00  0.00    -0.408 C  
HETATM   18  C   UNL     1     -12.913  15.510  72.207  1.00  0.00    -0.416 C  
HETATM   19  O   UNL     1     -11.817  15.971  72.483  1.00  0.00    -0.468 OA 
HETATM   20  O   UNL     1     -13.958  15.572  73.065  1.00  0.00    -0.444 OA 
ENDBRANCH  16  17
ENDBRANCH  15  16
ENDBRANCH  14  15
ENDBRANCH  13  14
ENDBRANCH  12  13
ENDBRANCH  11  12
ENDBRANCH  10  11
ENDBRANCH   8   9
ENDBRANCH   7   8
ENDBRANCH   5   6
ENDBRANCH   4   5
ENDBRANCH   2   3
TORSDOF 12
ENDMDL
MODEL      341
REMARK 921   NORMALIZED FREE ENERGY PREDICTED BY IDOCK:   -3.11 KCAL/MOL
REMARK 922        TOTAL FREE ENERGY PREDICTED BY IDOCK:   -7.14 KCAL/MOL
REMARK 923 INTER-LIGAND FREE ENERGY PREDICTED BY IDOCK:   -5.20 KCAL/MOL
REMARK 924 INTRA-LIGAND FREE ENERGY PREDICTED BY IDOCK:   -1.94 KCAL/MOL
REMARK 927      BINDING AFFINITY PREDICTED BY RF-SCORE:    0.00 PKD
ROOT
HETATM    1  C   UNL     1      -9.621  11.287  62.751  1.00  0.00    -0.327 C  
HETATM    2  C   UNL     1     -10.911  11.800  63.372  1.00  0.00    -0.460 C  
ENDROOT
BRANCH   2   3
HETATM    3  C   UNL     1     -10.738  13.168  63.968  1.00  0.00    -0.330 C  
HETATM    4  C   UNL     1     -10.463  13.432  65.256  1.00  0.00    -0.334 C  
BRANCH   4   5
HETATM    5  C   UNL     1     -10.320  12.387  66.326  1.00  0.00    -0.267 C  
BRANCH   5   6
HETATM    6  C   UNL     1     -11.597  12.165  67.086  1.00  0.00    -0.405 C  
HETATM    7  C   UNL     1     -11.845  12.614  68.329  1.00  0.00    -0.354 C  
BRANCH   7   8
HETATM    8  C   UNL     1     -10.850  13.374  69.158  1.00  0.00    -0.156 C  
BRANCH   8   9
HETATM    9  C   UNL     1     -11.420  14.647  69.710  1.00  0.00    -0.325 C  
HETATM   10  C   UNL     1     -11.470  15.818  69.050  1.00  0.00    -0.394 C  
BRANCH  10  11
HETATM   11  C   UNL     1     -11.018  15.983  67.626  1.00  0.00    -0.284 C  
BRANCH  11  12
HETATM   12  C   UNL     1     -10.462  17.374  67.344  1.00  0.00    -0.336 C  
BRANCH  12  13
HETATM   13  C   UNL     1      -8.969  17.293  67.023  1.00  0.00    -0.245 C  
BRANCH  13  14
HETATM   14  C   UNL     1      -8.157  17.020  68.284  1.00  0.00    -0.228 C  
BRANCH  14  15
HETATM   15  C   UNL     1      -7.122  15.919  68.057  1.00  0.00    -0.141 C  
BRANCH  15  16
HETATM   16  C   UNL     1      -7.499  14.663  68.839  1.00  0.00    -0.134 C  
BRANCH  16  17
HETATM   17  C   UNL     1      -6.622  14.482  70.075  1.00  0.00    -0.140 C  
HETATM   18  C   UNL     1      -5.926  13.139  70.072  1.00  0.00    -0.135 C  
HETATM   19  O   UNL     1      -6.027  12.289  69.202  1.00  0.00    -0.069 OA 
HETATM   20  O   UNL     1      -5.151  12.962  71.167  1.00  0.00    -0.134 OA 
ENDBRANCH  16  17
ENDBRANCH  15  16
ENDBRANCH  14  15
ENDBRANCH  13  14
ENDBRANCH  12  13
ENDBRANCH  11  12
ENDBRANCH  10  11
ENDBRANCH   8   9
ENDBRANCH   7   8
ENDBRANCH   5   6
ENDBRANCH   4   5
ENDBRANCH   2   3
TORSDOF 12
ENDMDL
MODEL      342
REMARK 921   NORMALIZED FREE ENERGY PREDICTED BY IDOCK:   -3.11 KCAL/MOL
REMARK 922        TOTAL FREE ENERGY PREDICTED BY IDOCK:   -7.13 KCAL/MOL
REMARK 923 INTER-LIGAND FREE ENERGY PREDICTED BY IDOCK:   -5.45 KCAL/MOL
REMARK 924 INTRA-LIGAND FREE ENERGY PREDICTED BY IDOCK:   -1.68 KCAL/MOL
REMARK 927      BINDING AFFINITY PREDICTED BY RF-SCORE:    0.00 PKD
ROOT
HETATM    1  C   UNL     1      -9.800   9.293  70.483  1.00  0.00    -0.310 C  
HETATM    2  C   UNL     1     -11.131   8.695  70.055  1.00  0.00    -0.161 C  
ENDROOT
BRANCH   2   3
HETATM    3  C   UNL     1     -11.036   7.209  69.856  1.00  0.00    -0.264 C  
HETATM    4  C   UNL     1     -10.820   6.589  68.684  1.00  0.00    -0.357 C  
BRANCH   4   5
HETATM    5  C   UNL     1     -10.672   7.291  67.365  1.00  0.00    -0.358 C  
BRANCH   5   6
HETATM    6  C   UNL     1      -9.288   7.838  67.157  1.00  0.00    -0.185 C  
HETATM    7  C   UNL     1      -9.001   9.018  66.580  1.00  0.00    -0.177 C  
BRANCH   7   8
HETATM    8  C   UNL     1     -10.037   9.947  66.017  1.00  0.00    -0.314 C  
BRANCH   8   9
HETATM    9  C   UNL     1     -10.666  10.809  67.072  1.00  0.00    -0.320 C  
HETATM   10  C   UNL     1     -10.092  11.893  67.624  1.00  0.00    -0.202 C  
BRANCH  10  11
HETATM   11  C   UNL     1      -8.755  12.428  67.194  1.00  0.00    -0.195 C  
BRANCH  11  12
HETATM   12  C   UNL     1      -8.181  13.439  68.181  1.00  0.00    -0.160 C  
BRANCH  12  13
HETATM   13  C   UNL     1      -8.896  14.783  68.039  1.00  0.00    -0.169 C  
BRANCH  13  14
HETATM   14  C   UNL     1      -8.888  15.251  66.587  1.00  0.00    -0.328 C  
BRANCH  14  15
HETATM   15  C   UNL     1     -10.130  16.078  66.258  1.00  0.00    -0.329 C  
BRANCH  15  16
HETATM   16  C   UNL     1     -10.718  16.686  67.529  1.00  0.00    -0.278 C  
BRANCH  16  17
HETATM   17  C   UNL     1     -10.732  18.211  67.472  1.00  0.00    -0.365 C  
HETATM   18  C   UNL     1      -9.559  18.807  68.218  1.00  0.00    -0.353 C  
HETATM   19  O   UNL     1      -8.689  18.175  68.796  1.00  0.00    -0.294 OA 
HETATM   20  O   UNL     1      -9.564  20.160  68.182  1.00  0.00    -0.331 OA 
ENDBRANCH  16  17
ENDBRANCH  15  16
ENDBRANCH  14  15
ENDBRANCH  13  14
ENDBRANCH  12  13
ENDBRANCH  11  12
ENDBRANCH  10  11
ENDBRANCH   8   9
ENDBRANCH   7   8
ENDBRANCH   5   6
ENDBRANCH   4   5
ENDBRANCH   2   3
TORSDOF 12
ENDMDL
MODEL      343
REMARK 921   NORMALIZED FREE ENERGY PREDICTED BY IDOCK:   -3.11 KCAL/MOL
REMARK 922        TOTAL FREE ENERGY PREDICTED BY IDOCK:   -7.13 KCAL/MOL
REMARK 923 INTER-LIGAND FREE ENERGY PREDICTED BY IDOCK:   -6.58 KCAL/MOL
REMARK 924 INTRA-LIGAND FREE ENERGY PREDICTED BY IDOCK:   -0.55 KCAL/MOL
REMARK 927      BINDING AFFINITY PREDICTED BY RF-SCORE:    0.00 PKD
ROOT
HETATM    1  C   UNL     1     -11.897  15.049  64.366  1.00  0.00    -0.349 C  
HETATM    2  C   UNL     1     -10.916  13.890  64.448  1.00  0.00    -0.322 C  
ENDROOT
BRANCH   2   3
HETATM    3  C   UNL     1     -11.498  12.626  63.880  1.00  0.00    -0.509 C  
HETATM    4  C   UNL     1     -11.168  11.377  64.249  1.00  0.00    -0.306 C  
BRANCH   4   5
HETATM    5  C   UNL     1     -10.125  11.042  65.277  1.00  0.00    -0.332 C  
BRANCH   5   6
HETATM    6  C   UNL     1     -10.099  12.027  66.411  1.00  0.00    -0.242 C  
HETATM    7  C   UNL     1     -10.527  11.779  67.661  1.00  0.00    -0.223 C  
BRANCH   7   8
HETATM    8  C   UNL     1     -11.139  10.476  68.092  1.00  0.00    -0.346 C  
BRANCH   8   9
HETATM    9  C   UNL     1     -10.491   9.922  69.327  1.00  0.00    -0.240 C  
HETATM   10  C   UNL     1     -10.961  10.076  70.578  1.00  0.00    -0.392 C  
BRANCH  10  11
HETATM   11  C   UNL     1     -12.252  10.775  70.894  1.00  0.00    -0.487 C  
BRANCH  11  12
HETATM   12  C   UNL     1     -13.170   9.941  71.782  1.00  0.00    -0.535 C  
BRANCH  12  13
HETATM   13  C   UNL     1     -12.459   8.662  72.227  1.00  0.00    -0.460 C  
BRANCH  13  14
HETATM   14  C   UNL     1     -12.964   7.458  71.439  1.00  0.00    -0.403 C  
BRANCH  14  15
HETATM   15  C   UNL     1     -11.808   6.640  70.863  1.00  0.00    -0.434 C  
BRANCH  15  16
HETATM   16  C   UNL     1     -10.701   6.477  71.902  1.00  0.00    -0.251 C  
BRANCH  16  17
HETATM   17  C   UNL     1     -11.042   5.399  72.926  1.00  0.00    -0.360 C  
HETATM   18  C   UNL     1      -9.805   4.668  73.399  1.00  0.00    -0.143 C  
HETATM   19  O   UNL     1      -8.663   4.894  73.032  1.00  0.00    -0.113 OA 
HETATM   20  O   UNL     1     -10.094   3.703  74.303  1.00  0.00    -0.126 OA 
ENDBRANCH  16  17
ENDBRANCH  15  16
ENDBRANCH  14  15
ENDBRANCH  13  14
ENDBRANCH  12  13
ENDBRANCH  11  12
ENDBRANCH  10  11
ENDBRANCH   8   9
ENDBRANCH   7   8
ENDBRANCH   5   6
ENDBRANCH   4   5
ENDBRANCH   2   3
TORSDOF 12
ENDMDL
MODEL      344
REMARK 921   NORMALIZED FREE ENERGY PREDICTED BY IDOCK:   -3.10 KCAL/MOL
REMARK 922        TOTAL FREE ENERGY PREDICTED BY IDOCK:   -7.11 KCAL/MOL
REMARK 923 INTER-LIGAND FREE ENERGY PREDICTED BY IDOCK:   -6.07 KCAL/MOL
REMARK 924 INTRA-LIGAND FREE ENERGY PREDICTED BY IDOCK:   -1.04 KCAL/MOL
REMARK 927      BINDING AFFINITY PREDICTED BY RF-SCORE:    0.00 PKD
ROOT
HETATM    1  C   UNL     1     -11.814   6.508  71.988  1.00  0.00    -0.374 C  
HETATM    2  C   UNL     1     -13.078   7.295  71.683  1.00  0.00    -0.417 C  
ENDROOT
BRANCH   2   3
HETATM    3  C   UNL     1     -13.199   8.514  72.553  1.00  0.00    -0.265 C  
HETATM    4  C   UNL     1     -13.263   9.784  72.119  1.00  0.00    -0.530 C  
BRANCH   4   5
HETATM    5  C   UNL     1     -13.185  10.193  70.675  1.00  0.00    -0.197 C  
BRANCH   5   6
HETATM    6  C   UNL     1     -11.901  10.899  70.347  1.00  0.00    -0.449 C  
HETATM    7  C   UNL     1     -11.675  12.214  70.517  1.00  0.00    -0.017 C  
BRANCH   7   8
HETATM    8  C   UNL     1     -12.705  13.179  71.027  1.00  0.00    -0.361 C  
BRANCH   8   9
HETATM    9  C   UNL     1     -12.099  14.473  71.487  1.00  0.00    -0.400 C  
HETATM   10  C   UNL     1     -11.775  15.499  70.680  1.00  0.00    -0.389 C  
BRANCH  10  11
HETATM   11  C   UNL     1     -12.049  15.508  69.203  1.00  0.00    -0.266 C  
BRANCH  11  12
HETATM   12  C   UNL     1     -10.921  16.146  68.399  1.00  0.00    -0.341 C  
BRANCH  12  13
HETATM   13  C   UNL     1      -9.708  15.215  68.357  1.00  0.00    -0.212 C  
BRANCH  13  14
HETATM   14  C   UNL     1      -8.656  15.648  69.373  1.00  0.00    -0.248 C  
BRANCH  14  15
HETATM   15  C   UNL     1      -7.319  15.954  68.699  1.00  0.00    -0.141 C  
BRANCH  15  16
HETATM   16  C   UNL     1      -6.903  17.399  68.971  1.00  0.00    -0.244 C  
BRANCH  16  17
HETATM   17  C   UNL     1      -7.561  18.369  67.995  1.00  0.00    -0.270 C  
HETATM   18  C   UNL     1      -7.150  19.799  68.268  1.00  0.00    -0.300 C  
HETATM   19  O   UNL     1      -6.384  20.162  69.147  1.00  0.00    -0.306 OA 
HETATM   20  O   UNL     1      -7.734  20.672  67.414  1.00  0.00    -0.337 OA 
ENDBRANCH  16  17
ENDBRANCH  15  16
ENDBRANCH  14  15
ENDBRANCH  13  14
ENDBRANCH  12  13
ENDBRANCH  11  12
ENDBRANCH  10  11
ENDBRANCH   8   9
ENDBRANCH   7   8
ENDBRANCH   5   6
ENDBRANCH   4   5
ENDBRANCH   2   3
TORSDOF 12
ENDMDL
MODEL      345
REMARK 921   NORMALIZED FREE ENERGY PREDICTED BY IDOCK:   -3.09 KCAL/MOL
REMARK 922        TOTAL FREE ENERGY PREDICTED BY IDOCK:   -7.11 KCAL/MOL
REMARK 923 INTER-LIGAND FREE ENERGY PREDICTED BY IDOCK:   -5.61 KCAL/MOL
REMARK 924 INTRA-LIGAND FREE ENERGY PREDICTED BY IDOCK:   -1.49 KCAL/MOL
REMARK 927      BINDING AFFINITY PREDICTED BY RF-SCORE:    0.00 PKD
ROOT
HETATM    1  C   UNL     1     -12.552  12.104  63.625  1.00  0.00    -0.616 C  
HETATM    2  C   UNL     1     -11.054  11.935  63.423  1.00  0.00    -0.463 C  
ENDROOT
BRANCH   2   3
HETATM    3  C   UNL     1     -10.283  12.272  64.668  1.00  0.00    -0.311 C  
HETATM    4  C   UNL     1      -9.644  11.390  65.456  1.00  0.00    -0.256 C  
BRANCH   4   5
HETATM    5  C   UNL     1      -9.632   9.905  65.233  1.00  0.00    -0.361 C  
BRANCH   5   6
HETATM    6  C   UNL     1     -10.124   9.141  66.429  1.00  0.00    -0.345 C  
HETATM    7  C   UNL     1      -9.357   8.726  67.453  1.00  0.00    -0.166 C  
BRANCH   7   8
HETATM    8  C   UNL     1      -7.871   8.936  67.521  1.00  0.00    -0.101 C  
BRANCH   8   9
HETATM    9  C   UNL     1      -7.433   9.489  68.845  1.00  0.00    -0.074 C  
HETATM   10  C   UNL     1      -7.374  10.798  69.151  1.00  0.00    -0.115 C  
BRANCH  10  11
HETATM   11  C   UNL     1      -7.815  11.886  68.212  1.00  0.00    -0.141 C  
BRANCH  11  12
HETATM   12  C   UNL     1      -6.991  13.161  68.362  1.00  0.00    -0.104 C  
BRANCH  12  13
HETATM   13  C   UNL     1      -7.902  14.346  68.686  1.00  0.00    -0.140 C  
BRANCH  13  14
HETATM   14  C   UNL     1      -9.037  14.450  67.672  1.00  0.00    -0.194 C  
BRANCH  14  15
HETATM   15  C   UNL     1     -10.400  14.254  68.336  1.00  0.00    -0.247 C  
BRANCH  15  16
HETATM   16  C   UNL     1     -11.099  15.599  68.525  1.00  0.00    -0.322 C  
BRANCH  16  17
HETATM   17  C   UNL     1     -10.869  16.163  69.924  1.00  0.00    -0.355 C  
HETATM   18  C   UNL     1     -12.026  15.852  70.847  1.00  0.00    -0.394 C  
HETATM   19  O   UNL     1     -13.028  15.224  70.544  1.00  0.00    -0.383 OA 
HETATM   20  O   UNL     1     -11.839  16.355  72.090  1.00  0.00    -0.525 OA 
ENDBRANCH  16  17
ENDBRANCH  15  16
ENDBRANCH  14  15
ENDBRANCH  13  14
ENDBRANCH  12  13
ENDBRANCH  11  12
ENDBRANCH  10  11
ENDBRANCH   8   9
ENDBRANCH   7   8
ENDBRANCH   5   6
ENDBRANCH   4   5
ENDBRANCH   2   3
TORSDOF 12
ENDMDL
MODEL      346
REMARK 921   NORMALIZED FREE ENERGY PREDICTED BY IDOCK:   -3.09 KCAL/MOL
REMARK 922        TOTAL FREE ENERGY PREDICTED BY IDOCK:   -7.11 KCAL/MOL
REMARK 923 INTER-LIGAND FREE ENERGY PREDICTED BY IDOCK:   -6.16 KCAL/MOL
REMARK 924 INTRA-LIGAND FREE ENERGY PREDICTED BY IDOCK:   -0.95 KCAL/MOL
REMARK 927      BINDING AFFINITY PREDICTED BY RF-SCORE:    0.00 PKD
ROOT
HETATM    1  C   UNL     1     -11.572   5.770  72.811  1.00  0.00    -0.266 C  
HETATM    2  C   UNL     1     -11.054   7.200  72.810  1.00  0.00    -0.339 C  
ENDROOT
BRANCH   2   3
HETATM    3  C   UNL     1     -12.061   8.158  72.239  1.00  0.00    -0.419 C  
HETATM    4  C   UNL     1     -11.786   9.183  71.417  1.00  0.00    -0.415 C  
BRANCH   4   5
HETATM    5  C   UNL     1     -10.405   9.561  70.961  1.00  0.00    -0.353 C  
BRANCH   5   6
HETATM    6  C   UNL     1      -9.954   8.762  69.772  1.00  0.00    -0.193 C  
HETATM    7  C   UNL     1     -10.172   9.093  68.487  1.00  0.00    -0.223 C  
BRANCH   7   8
HETATM    8  C   UNL     1     -10.947  10.306  68.058  1.00  0.00    -0.345 C  
BRANCH   8   9
HETATM    9  C   UNL     1     -10.839  10.560  66.583  1.00  0.00    -0.166 C  
HETATM   10  C   UNL     1     -10.425  11.714  66.030  1.00  0.00    -0.294 C  
BRANCH  10  11
HETATM   11  C   UNL     1      -9.944  12.889  66.833  1.00  0.00    -0.238 C  
BRANCH  11  12
HETATM   12  C   UNL     1     -10.561  14.207  66.375  1.00  0.00    -0.280 C  
BRANCH  12  13
HETATM   13  C   UNL     1     -11.770  14.557  67.243  1.00  0.00    -0.429 C  
BRANCH  13  14
HETATM   14  C   UNL     1     -11.499  15.809  68.071  1.00  0.00    -0.264 C  
BRANCH  14  15
HETATM   15  C   UNL     1     -10.025  16.210  68.015  1.00  0.00    -0.238 C  
BRANCH  15  16
HETATM   16  C   UNL     1      -9.778  17.453  68.867  1.00  0.00    -0.251 C  
BRANCH  16  17
HETATM   17  C   UNL     1      -8.937  18.488  68.125  1.00  0.00    -0.326 C  
HETATM   18  C   UNL     1      -9.802  19.464  67.360  1.00  0.00    -0.345 C  
HETATM   19  O   UNL     1     -11.023  19.455  67.326  1.00  0.00    -0.491 OA 
HETATM   20  O   UNL     1      -9.069  20.383  66.690  1.00  0.00    -0.287 OA 
ENDBRANCH  16  17
ENDBRANCH  15  16
ENDBRANCH  14  15
ENDBRANCH  13  14
ENDBRANCH  12  13
ENDBRANCH  11  12
ENDBRANCH  10  11
ENDBRANCH   8   9
ENDBRANCH   7   8
ENDBRANCH   5   6
ENDBRANCH   4   5
ENDBRANCH   2   3
TORSDOF 12
ENDMDL
MODEL      347
REMARK 921   NORMALIZED FREE ENERGY PREDICTED BY IDOCK:   -3.08 KCAL/MOL
REMARK 922        TOTAL FREE ENERGY PREDICTED BY IDOCK:   -7.09 KCAL/MOL
REMARK 923 INTER-LIGAND FREE ENERGY PREDICTED BY IDOCK:   -5.93 KCAL/MOL
REMARK 924 INTRA-LIGAND FREE ENERGY PREDICTED BY IDOCK:   -1.16 KCAL/MOL
REMARK 927      BINDING AFFINITY PREDICTED BY RF-SCORE:    0.00 PKD
ROOT
HETATM    1  C   UNL     1     -10.347   6.050  71.591  1.00  0.00    -0.260 C  
HETATM    2  C   UNL     1     -11.345   6.943  70.870  1.00  0.00    -0.348 C  
ENDROOT
BRANCH   2   3
HETATM    3  C   UNL     1     -11.617   6.460  69.473  1.00  0.00    -0.303 C  
HETATM    4  C   UNL     1     -10.896   6.771  68.383  1.00  0.00    -0.284 C  
BRANCH   4   5
HETATM    5  C   UNL     1      -9.709   7.692  68.384  1.00  0.00    -0.164 C  
BRANCH   5   6
HETATM    6  C   UNL     1     -10.092   9.122  68.635  1.00  0.00    -0.212 C  
HETATM    7  C   UNL     1     -10.323  10.041  67.681  1.00  0.00    -0.272 C  
BRANCH   7   8
HETATM    8  C   UNL     1     -10.187   9.771  66.210  1.00  0.00    -0.282 C  
BRANCH   8   9
HETATM    9  C   UNL     1      -9.588  10.930  65.469  1.00  0.00    -0.266 C  
HETATM   10  C   UNL     1     -10.279  11.988  65.008  1.00  0.00    -0.308 C  
BRANCH  10  11
HETATM   11  C   UNL     1     -11.750  12.179  65.244  1.00  0.00    -0.364 C  
BRANCH  11  12
HETATM   12  C   UNL     1     -12.207  13.610  64.978  1.00  0.00    -0.450 C  
BRANCH  12  13
HETATM   13  C   UNL     1     -11.774  14.526  66.123  1.00  0.00    -0.355 C  
BRANCH  13  14
HETATM   14  C   UNL     1     -12.150  13.923  67.473  1.00  0.00    -0.366 C  
BRANCH  14  15
HETATM   15  C   UNL     1     -11.109  14.251  68.543  1.00  0.00    -0.276 C  
BRANCH  15  16
HETATM   16  C   UNL     1     -11.539  13.688  69.896  1.00  0.00    -0.281 C  
BRANCH  16  17
HETATM   17  C   UNL     1     -11.206  14.644  71.037  1.00  0.00    -0.022 C  
HETATM   18  C   UNL     1     -12.449  15.078  71.781  1.00  0.00    -0.339 C  
HETATM   19  O   UNL     1     -13.588  14.721  71.529  1.00  0.00    -0.365 OA 
HETATM   20  O   UNL     1     -12.168  15.934  72.792  1.00  0.00    -0.410 OA 
ENDBRANCH  16  17
ENDBRANCH  15  16
ENDBRANCH  14  15
ENDBRANCH  13  14
ENDBRANCH  12  13
ENDBRANCH  11  12
ENDBRANCH  10  11
ENDBRANCH   8   9
ENDBRANCH   7   8
ENDBRANCH   5   6
ENDBRANCH   4   5
ENDBRANCH   2   3
TORSDOF 12
ENDMDL
MODEL      348
REMARK 921   NORMALIZED FREE ENERGY PREDICTED BY IDOCK:   -3.08 KCAL/MOL
REMARK 922        TOTAL FREE ENERGY PREDICTED BY IDOCK:   -7.08 KCAL/MOL
REMARK 923 INTER-LIGAND FREE ENERGY PREDICTED BY IDOCK:   -5.30 KCAL/MOL
REMARK 924 INTRA-LIGAND FREE ENERGY PREDICTED BY IDOCK:   -1.78 KCAL/MOL
REMARK 927      BINDING AFFINITY PREDICTED BY RF-SCORE:    0.00 PKD
ROOT
HETATM    1  C   UNL     1      -9.516   9.808  65.223  1.00  0.00    -0.343 C  
HETATM    2  C   UNL     1      -9.819   8.892  66.398  1.00  0.00    -0.353 C  
ENDROOT
BRANCH   2   3
HETATM    3  C   UNL     1      -9.080   7.588  66.293  1.00  0.00    -0.198 C  
HETATM    4  C   UNL     1      -9.454   6.429  66.860  1.00  0.00    -0.166 C  
BRANCH   4   5
HETATM    5  C   UNL     1     -10.668   6.260  67.729  1.00  0.00    -0.383 C  
BRANCH   5   6
HETATM    6  C   UNL     1     -10.331   5.706  69.084  1.00  0.00    -0.328 C  
HETATM    7  C   UNL     1     -10.789   6.188  70.253  1.00  0.00    -0.385 C  
BRANCH   7   8
HETATM    8  C   UNL     1     -11.680   7.391  70.369  1.00  0.00    -0.163 C  
BRANCH   8   9
HETATM    9  C   UNL     1     -10.957   8.586  70.916  1.00  0.00    -0.292 C  
HETATM   10  C   UNL     1     -11.551   9.711  71.354  1.00  0.00    -0.472 C  
BRANCH  10  11
HETATM   11  C   UNL     1     -13.042   9.886  71.418  1.00  0.00    -0.500 C  
BRANCH  11  12
HETATM   12  C   UNL     1     -13.451  11.311  71.776  1.00  0.00    -0.223 C  
BRANCH  12  13
HETATM   13  C   UNL     1     -12.355  12.296  71.368  1.00  0.00    -0.055 C  
BRANCH  13  14
HETATM   14  C   UNL     1     -12.782  13.108  70.150  1.00  0.00     0.060 C  
BRANCH  14  15
HETATM   15  C   UNL     1     -11.574  13.587  69.345  1.00  0.00    -0.369 C  
BRANCH  15  16
HETATM   16  C   UNL     1     -11.296  12.636  68.182  1.00  0.00    -0.334 C  
BRANCH  16  17
HETATM   17  C   UNL     1      -9.892  12.044  68.260  1.00  0.00    -0.204 C  
HETATM   18  C   UNL     1      -8.920  12.802  67.384  1.00  0.00    -0.195 C  
HETATM   19  O   UNL     1      -9.191  13.773  66.696  1.00  0.00    -0.256 OA 
HETATM   20  O   UNL     1      -7.671  12.282  67.436  1.00  0.00    -0.146 OA 
ENDBRANCH  16  17
ENDBRANCH  15  16
ENDBRANCH  14  15
ENDBRANCH  13  14
ENDBRANCH  12  13
ENDBRANCH  11  12
ENDBRANCH  10  11
ENDBRANCH   8   9
ENDBRANCH   7   8
ENDBRANCH   5   6
ENDBRANCH   4   5
ENDBRANCH   2   3
TORSDOF 12
ENDMDL
MODEL      349
REMARK 921   NORMALIZED FREE ENERGY PREDICTED BY IDOCK:   -3.08 KCAL/MOL
REMARK 922        TOTAL FREE ENERGY PREDICTED BY IDOCK:   -7.08 KCAL/MOL
REMARK 923 INTER-LIGAND FREE ENERGY PREDICTED BY IDOCK:   -5.02 KCAL/MOL
REMARK 924 INTRA-LIGAND FREE ENERGY PREDICTED BY IDOCK:   -2.06 KCAL/MOL
REMARK 927      BINDING AFFINITY PREDICTED BY RF-SCORE:    0.00 PKD
ROOT
HETATM    1  C   UNL     1      -8.822  15.638  67.290  1.00  0.00    -0.215 C  
HETATM    2  C   UNL     1     -10.325  15.474  67.123  1.00  0.00    -0.272 C  
ENDROOT
BRANCH   2   3
HETATM    3  C   UNL     1     -11.090  16.446  67.976  1.00  0.00    -0.292 C  
HETATM    4  C   UNL     1     -11.291  16.336  69.300  1.00  0.00    -0.288 C  
BRANCH   4   5
HETATM    5  C   UNL     1     -10.806  15.190  70.141  1.00  0.00    -0.265 C  
BRANCH   5   6
HETATM    6  C   UNL     1     -11.893  14.197  70.439  1.00  0.00    -0.367 C  
HETATM    7  C   UNL     1     -11.973  12.958  69.923  1.00  0.00    -0.377 C  
BRANCH   7   8
HETATM    8  C   UNL     1     -10.994  12.403  68.928  1.00  0.00    -0.268 C  
BRANCH   8   9
HETATM    9  C   UNL     1     -11.575  12.307  67.548  1.00  0.00    -0.422 C  
HETATM   10  C   UNL     1     -10.910  11.873  66.462  1.00  0.00    -0.317 C  
BRANCH  10  11
HETATM   11  C   UNL     1      -9.501  11.355  66.509  1.00  0.00    -0.218 C  
BRANCH  11  12
HETATM   12  C   UNL     1      -9.390   9.909  66.036  1.00  0.00    -0.240 C  
BRANCH  12  13
HETATM   13  C   UNL     1     -10.346   9.017  66.828  1.00  0.00    -0.310 C  
BRANCH  13  14
HETATM   14  C   UNL     1      -9.666   7.710  67.224  1.00  0.00    -0.221 C  
BRANCH  14  15
HETATM   15  C   UNL     1      -8.415   7.962  68.065  1.00  0.00    -0.123 C  
BRANCH  15  16
HETATM   16  C   UNL     1      -8.799   8.461  69.457  1.00  0.00    -0.145 C  
BRANCH  16  17
HETATM   17  C   UNL     1      -8.287   9.876  69.711  1.00  0.00    -0.196 C  
HETATM   18  C   UNL     1      -6.941   9.865  70.401  1.00  0.00    -0.141 C  
HETATM   19  O   UNL     1      -6.314   8.867  70.720  1.00  0.00    -0.039 OA 
HETATM   20  O   UNL     1      -6.478  11.114  70.640  1.00  0.00    -0.309 OA 
ENDBRANCH  16  17
ENDBRANCH  15  16
ENDBRANCH  14  15
ENDBRANCH  13  14
ENDBRANCH  12  13
ENDBRANCH  11  12
ENDBRANCH  10  11
ENDBRANCH   8   9
ENDBRANCH   7   8
ENDBRANCH   5   6
ENDBRANCH   4   5
ENDBRANCH   2   3
TORSDOF 12
ENDMDL
MODEL      350
REMARK 921   NORMALIZED FREE ENERGY PREDICTED BY IDOCK:   -3.08 KCAL/MOL
REMARK 922        TOTAL FREE ENERGY PREDICTED BY IDOCK:   -7.08 KCAL/MOL
REMARK 923 INTER-LIGAND FREE ENERGY PREDICTED BY IDOCK:   -5.53 KCAL/MOL
REMARK 924 INTRA-LIGAND FREE ENERGY PREDICTED BY IDOCK:   -1.55 KCAL/MOL
REMARK 927      BINDING AFFINITY PREDICTED BY RF-SCORE:    0.00 PKD
ROOT
HETATM    1  C   UNL     1     -12.918  12.976  71.429  1.00  0.00    -0.373 C  
HETATM    2  C   UNL     1     -12.860  14.222  70.559  1.00  0.00    -0.336 C  
ENDROOT
BRANCH   2   3
HETATM    3  C   UNL     1     -11.481  14.456  70.011  1.00  0.00    -0.295 C  
HETATM    4  C   UNL     1     -11.076  14.170  68.763  1.00  0.00    -0.283 C  
BRANCH   4   5
HETATM    5  C   UNL     1     -11.941  13.528  67.715  1.00  0.00    -0.369 C  
BRANCH   5   6
HETATM    6  C   UNL     1     -12.172  14.425  66.532  1.00  0.00    -0.358 C  
HETATM    7  C   UNL     1     -12.550  14.012  65.310  1.00  0.00    -0.495 C  
BRANCH   7   8
HETATM    8  C   UNL     1     -12.755  12.571  64.941  1.00  0.00    -0.371 C  
BRANCH   8   9
HETATM    9  C   UNL     1     -12.109  12.219  63.633  1.00  0.00    -0.648 C  
HETATM   10  C   UNL     1     -10.792  12.013  63.457  1.00  0.00    -0.509 C  
BRANCH  10  11
HETATM   11  C   UNL     1      -9.794  12.040  64.579  1.00  0.00    -0.179 C  
BRANCH  11  12
HETATM   12  C   UNL     1      -8.983  10.752  64.677  1.00  0.00    -0.191 C  
BRANCH  12  13
HETATM   13  C   UNL     1      -9.870   9.602  65.158  1.00  0.00    -0.209 C  
BRANCH  13  14
HETATM   14  C   UNL     1      -9.738   9.411  66.666  1.00  0.00    -0.280 C  
BRANCH  14  15
HETATM   15  C   UNL     1      -9.678  10.751  67.398  1.00  0.00    -0.194 C  
BRANCH  15  16
HETATM   16  C   UNL     1      -8.600  10.720  68.479  1.00  0.00    -0.148 C  
BRANCH  16  17
HETATM   17  C   UNL     1      -7.882  12.061  68.599  1.00  0.00    -0.091 C  
HETATM   18  C   UNL     1      -6.429  11.883  68.978  1.00  0.00    -0.086 C  
HETATM   19  O   UNL     1      -5.870  10.813  69.164  1.00  0.00    -0.041 OA 
HETATM   20  O   UNL     1      -5.781  13.065  69.096  1.00  0.00    -0.071 OA 
ENDBRANCH  16  17
ENDBRANCH  15  16
ENDBRANCH  14  15
ENDBRANCH  13  14
ENDBRANCH  12  13
ENDBRANCH  11  12
ENDBRANCH  10  11
ENDBRANCH   8   9
ENDBRANCH   7   8
ENDBRANCH   5   6
ENDBRANCH   4   5
ENDBRANCH   2   3
TORSDOF 12
ENDMDL
MODEL      351
REMARK 921   NORMALIZED FREE ENERGY PREDICTED BY IDOCK:   -3.08 KCAL/MOL
REMARK 922        TOTAL FREE ENERGY PREDICTED BY IDOCK:   -7.08 KCAL/MOL
REMARK 923 INTER-LIGAND FREE ENERGY PREDICTED BY IDOCK:   -4.76 KCAL/MOL
REMARK 924 INTRA-LIGAND FREE ENERGY PREDICTED BY IDOCK:   -2.32 KCAL/MOL
REMARK 927      BINDING AFFINITY PREDICTED BY RF-SCORE:    0.00 PKD
ROOT
HETATM    1  C   UNL     1      -6.482   6.451  70.705  1.00  0.00    -0.048 C  
HETATM    2  C   UNL     1      -7.262   6.908  69.482  1.00  0.00    -0.081 C  
ENDROOT
BRANCH   2   3
HETATM    3  C   UNL     1      -6.875   6.135  68.253  1.00  0.00    -0.074 C  
HETATM    4  C   UNL     1      -7.642   5.228  67.625  1.00  0.00    -0.088 C  
BRANCH   4   5
HETATM    5  C   UNL     1      -9.012   4.813  68.079  1.00  0.00    -0.126 C  
BRANCH   5   6
HETATM    6  C   UNL     1     -10.018   4.834  66.964  1.00  0.00    -0.235 C  
HETATM    7  C   UNL     1     -10.758   5.899  66.609  1.00  0.00    -0.323 C  
BRANCH   7   8
HETATM    8  C   UNL     1     -10.712   7.222  67.317  1.00  0.00    -0.391 C  
BRANCH   8   9
HETATM    9  C   UNL     1      -9.806   8.204  66.633  1.00  0.00    -0.331 C  
HETATM   10  C   UNL     1      -9.992   9.536  66.613  1.00  0.00    -0.314 C  
BRANCH  10  11
HETATM   11  C   UNL     1     -11.108  10.226  67.344  1.00  0.00    -0.261 C  
BRANCH  11  12
HETATM   12  C   UNL     1     -10.611  11.333  68.268  1.00  0.00    -0.228 C  
BRANCH  12  13
HETATM   13  C   UNL     1     -11.541  11.476  69.473  1.00  0.00    -0.400 C  
BRANCH  13  14
HETATM   14  C   UNL     1     -12.005  10.108  69.965  1.00  0.00    -0.210 C  
BRANCH  14  15
HETATM   15  C   UNL     1     -11.346   9.737  71.293  1.00  0.00    -0.445 C  
BRANCH  15  16
HETATM   16  C   UNL     1     -10.046   8.975  71.049  1.00  0.00    -0.352 C  
BRANCH  16  17
HETATM   17  C   UNL     1      -9.684   8.081  72.232  1.00  0.00    -0.294 C  
HETATM   18  C   UNL     1     -10.092   6.645  71.990  1.00  0.00    -0.183 C  
HETATM   19  O   UNL     1     -10.638   6.221  70.983  1.00  0.00    -0.220 OA 
HETATM   20  O   UNL     1      -9.785   5.842  73.036  1.00  0.00    -0.154 OA 
ENDBRANCH  16  17
ENDBRANCH  15  16
ENDBRANCH  14  15
ENDBRANCH  13  14
ENDBRANCH  12  13
ENDBRANCH  11  12
ENDBRANCH  10  11
ENDBRANCH   8   9
ENDBRANCH   7   8
ENDBRANCH   5   6
ENDBRANCH   4   5
ENDBRANCH   2   3
TORSDOF 12
ENDMDL
MODEL      352
REMARK 921   NORMALIZED FREE ENERGY PREDICTED BY IDOCK:   -3.07 KCAL/MOL
REMARK 922        TOTAL FREE ENERGY PREDICTED BY IDOCK:   -7.07 KCAL/MOL
REMARK 923 INTER-LIGAND FREE ENERGY PREDICTED BY IDOCK:   -4.79 KCAL/MOL
REMARK 924 INTRA-LIGAND FREE ENERGY PREDICTED BY IDOCK:   -2.28 KCAL/MOL
REMARK 927      BINDING AFFINITY PREDICTED BY RF-SCORE:    0.00 PKD
ROOT
HETATM    1  C   UNL     1     -11.788  12.754  65.640  1.00  0.00    -0.472 C  
HETATM    2  C   UNL     1     -11.496  11.846  66.824  1.00  0.00    -0.384 C  
ENDROOT
BRANCH   2   3
HETATM    3  C   UNL     1     -10.168  12.160  67.453  1.00  0.00    -0.211 C  
HETATM    4  C   UNL     1      -9.661  11.569  68.547  1.00  0.00    -0.180 C  
BRANCH   4   5
HETATM    5  C   UNL     1     -10.367  10.511  69.346  1.00  0.00    -0.258 C  
BRANCH   5   6
HETATM    6  C   UNL     1      -9.467   9.857  70.356  1.00  0.00    -0.088 C  
HETATM    7  C   UNL     1      -9.843   8.903  71.225  1.00  0.00    -0.361 C  
BRANCH   7   8
HETATM    8  C   UNL     1     -11.247   8.380  71.336  1.00  0.00    -0.316 C  
BRANCH   8   9
HETATM    9  C   UNL     1     -11.288   6.922  71.686  1.00  0.00    -0.296 C  
HETATM   10  C   UNL     1     -10.879   5.926  70.879  1.00  0.00    -0.347 C  
BRANCH  10  11
HETATM   11  C   UNL     1     -10.254   6.157  69.533  1.00  0.00    -0.250 C  
BRANCH  11  12
HETATM   12  C   UNL     1     -11.279   6.171  68.404  1.00  0.00    -0.215 C  
BRANCH  12  13
HETATM   13  C   UNL     1     -10.629   6.647  67.104  1.00  0.00    -0.401 C  
BRANCH  13  14
HETATM   14  C   UNL     1     -10.659   8.168  67.008  1.00  0.00    -0.346 C  
BRANCH  14  15
HETATM   15  C   UNL     1      -9.468   8.704  66.214  1.00  0.00    -0.307 C  
BRANCH  15  16
HETATM   16  C   UNL     1      -8.197   7.940  66.581  1.00  0.00    -0.119 C  
BRANCH  16  17
HETATM   17  C   UNL     1      -7.493   8.560  67.784  1.00  0.00    -0.097 C  
HETATM   18  C   UNL     1      -6.720   7.526  68.572  1.00  0.00    -0.057 C  
HETATM   19  O   UNL     1      -6.643   6.338  68.300  1.00  0.00    -0.056 OA 
HETATM   20  O   UNL     1      -6.097   8.061  69.648  1.00  0.00    -0.029 OA 
ENDBRANCH  16  17
ENDBRANCH  15  16
ENDBRANCH  14  15
ENDBRANCH  13  14
ENDBRANCH  12  13
ENDBRANCH  11  12
ENDBRANCH  10  11
ENDBRANCH   8   9
ENDBRANCH   7   8
ENDBRANCH   5   6
ENDBRANCH   4   5
ENDBRANCH   2   3
TORSDOF 12
ENDMDL
MODEL      353
REMARK 921   NORMALIZED FREE ENERGY PREDICTED BY IDOCK:   -3.07 KCAL/MOL
REMARK 922        TOTAL FREE ENERGY PREDICTED BY IDOCK:   -7.06 KCAL/MOL
REMARK 923 INTER-LIGAND FREE ENERGY PREDICTED BY IDOCK:   -5.58 KCAL/MOL
REMARK 924 INTRA-LIGAND FREE ENERGY PREDICTED BY IDOCK:   -1.48 KCAL/MOL
REMARK 927      BINDING AFFINITY PREDICTED BY RF-SCORE:    0.00 PKD
ROOT
HETATM    1  C   UNL     1     -10.850   5.798  70.860  1.00  0.00    -0.326 C  
HETATM    2  C   UNL     1     -11.804   6.982  70.889  1.00  0.00    -0.401 C  
ENDROOT
BRANCH   2   3
HETATM    3  C   UNL     1     -11.423   7.979  71.947  1.00  0.00    -0.341 C  
HETATM    4  C   UNL     1     -11.503   9.315  71.828  1.00  0.00    -0.448 C  
BRANCH   4   5
HETATM    5  C   UNL     1     -11.958  10.033  70.590  1.00  0.00    -0.401 C  
BRANCH   5   6
HETATM    6  C   UNL     1     -10.810  10.569  69.782  1.00  0.00    -0.335 C  
HETATM    7  C   UNL     1     -10.800  11.750  69.140  1.00  0.00    -0.221 C  
BRANCH   7   8
HETATM    8  C   UNL     1     -11.970  12.691  69.105  1.00  0.00    -0.293 C  
BRANCH   8   9
HETATM    9  C   UNL     1     -11.805  13.843  70.053  1.00  0.00    -0.384 C  
HETATM   10  C   UNL     1     -11.390  15.074  69.703  1.00  0.00    -0.309 C  
BRANCH  10  11
HETATM   11  C   UNL     1     -11.103  15.476  68.284  1.00  0.00    -0.322 C  
BRANCH  11  12
HETATM   12  C   UNL     1     -10.901  16.980  68.129  1.00  0.00    -0.338 C  
BRANCH  12  13
HETATM   13  C   UNL     1     -10.507  17.317  66.690  1.00  0.00    -0.257 C  
BRANCH  13  14
HETATM   14  C   UNL     1      -8.992  17.271  66.517  1.00  0.00    -0.294 C  
BRANCH  14  15
HETATM   15  C   UNL     1      -8.269  17.666  67.805  1.00  0.00    -0.225 C  
BRANCH  15  16
HETATM   16  C   UNL     1      -7.321  16.554  68.247  1.00  0.00    -0.169 C  
BRANCH  16  17
HETATM   17  C   UNL     1      -7.368  15.361  67.297  1.00  0.00    -0.239 C  
HETATM   18  C   UNL     1      -7.771  14.092  68.016  1.00  0.00    -0.147 C  
HETATM   19  O   UNL     1      -8.038  14.003  69.204  1.00  0.00     0.017 OA 
HETATM   20  O   UNL     1      -7.808  13.023  67.186  1.00  0.00    -0.151 OA 
ENDBRANCH  16  17
ENDBRANCH  15  16
ENDBRANCH  14  15
ENDBRANCH  13  14
ENDBRANCH  12  13
ENDBRANCH  11  12
ENDBRANCH  10  11
ENDBRANCH   8   9
ENDBRANCH   7   8
ENDBRANCH   5   6
ENDBRANCH   4   5
ENDBRANCH   2   3
TORSDOF 12
ENDMDL
MODEL      354
REMARK 921   NORMALIZED FREE ENERGY PREDICTED BY IDOCK:   -3.05 KCAL/MOL
REMARK 922        TOTAL FREE ENERGY PREDICTED BY IDOCK:   -7.04 KCAL/MOL
REMARK 923 INTER-LIGAND FREE ENERGY PREDICTED BY IDOCK:   -6.02 KCAL/MOL
REMARK 924 INTRA-LIGAND FREE ENERGY PREDICTED BY IDOCK:   -1.02 KCAL/MOL
REMARK 927      BINDING AFFINITY PREDICTED BY RF-SCORE:    0.00 PKD
ROOT
HETATM    1  C   UNL     1     -11.624  11.524  66.174  1.00  0.00     0.014 C  
HETATM    2  C   UNL     1     -10.740  10.995  67.292  1.00  0.00    -0.312 C  
ENDROOT
BRANCH   2   3
HETATM    3  C   UNL     1     -11.520  10.755  68.553  1.00  0.00    -0.362 C  
HETATM    4  C   UNL     1     -11.905  11.700  69.428  1.00  0.00    -0.408 C  
BRANCH   4   5
HETATM    5  C   UNL     1     -11.579  13.160  69.298  1.00  0.00    -0.370 C  
BRANCH   5   6
HETATM    6  C   UNL     1     -12.362  14.010  70.258  1.00  0.00    -0.425 C  
HETATM    7  C   UNL     1     -12.108  15.302  70.533  1.00  0.00    -0.395 C  
BRANCH   7   8
HETATM    8  C   UNL     1     -10.964  16.073  69.939  1.00  0.00    -0.353 C  
BRANCH   8   9
HETATM    9  C   UNL     1     -11.296  16.640  68.590  1.00  0.00    -0.155 C  
HETATM   10  C   UNL     1     -10.895  17.843  68.142  1.00  0.00    -0.178 C  
BRANCH  10  11
HETATM   11  C   UNL     1      -9.990  18.755  68.921  1.00  0.00    -0.423 C  
BRANCH  11  12
HETATM   12  C   UNL     1      -9.297  19.789  68.039  1.00  0.00    -0.444 C  
BRANCH  12  13
HETATM   13  C   UNL     1      -8.930  19.174  66.688  1.00  0.00    -0.349 C  
BRANCH  13  14
HETATM   14  C   UNL     1      -7.431  18.907  66.603  1.00  0.00    -0.242 C  
BRANCH  14  15
HETATM   15  C   UNL     1      -7.141  17.499  66.083  1.00  0.00    -0.341 C  
BRANCH  15  16
HETATM   16  C   UNL     1      -8.119  16.495  66.690  1.00  0.00    -0.314 C  
BRANCH  16  17
HETATM   17  C   UNL     1      -9.191  16.075  65.689  1.00  0.00    -0.070 C  
HETATM   18  C   UNL     1      -9.612  14.637  65.895  1.00  0.00    -0.268 C  
HETATM   19  O   UNL     1      -9.174  13.884  66.750  1.00  0.00    -0.252 OA 
HETATM   20  O   UNL     1     -10.558  14.248  65.008  1.00  0.00    -0.375 OA 
ENDBRANCH  16  17
ENDBRANCH  15  16
ENDBRANCH  14  15
ENDBRANCH  13  14
ENDBRANCH  12  13
ENDBRANCH  11  12
ENDBRANCH  10  11
ENDBRANCH   8   9
ENDBRANCH   7   8
ENDBRANCH   5   6
ENDBRANCH   4   5
ENDBRANCH   2   3
TORSDOF 12
ENDMDL
MODEL      355
REMARK 921   NORMALIZED FREE ENERGY PREDICTED BY IDOCK:   -3.05 KCAL/MOL
REMARK 922        TOTAL FREE ENERGY PREDICTED BY IDOCK:   -7.02 KCAL/MOL
REMARK 923 INTER-LIGAND FREE ENERGY PREDICTED BY IDOCK:   -5.17 KCAL/MOL
REMARK 924 INTRA-LIGAND FREE ENERGY PREDICTED BY IDOCK:   -1.85 KCAL/MOL
REMARK 927      BINDING AFFINITY PREDICTED BY RF-SCORE:    0.00 PKD
ROOT
HETATM    1  C   UNL     1     -12.682  12.461  64.282  1.00  0.00    -0.437 C  
HETATM    2  C   UNL     1     -11.281  12.090  64.743  1.00  0.00    -0.373 C  
ENDROOT
BRANCH   2   3
HETATM    3  C   UNL     1     -10.808  12.977  65.860  1.00  0.00    -0.291 C  
HETATM    4  C   UNL     1      -9.756  12.734  66.659  1.00  0.00    -0.252 C  
BRANCH   4   5
HETATM    5  C   UNL     1      -8.897  11.504  66.585  1.00  0.00    -0.187 C  
BRANCH   5   6
HETATM    6  C   UNL     1      -8.432  11.045  67.937  1.00  0.00    -0.128 C  
HETATM    7  C   UNL     1      -7.402  11.573  68.622  1.00  0.00    -0.106 C  
BRANCH   7   8
HETATM    8  C   UNL     1      -6.534  12.683  68.102  1.00  0.00    -0.080 C  
BRANCH   8   9
HETATM    9  C   UNL     1      -6.242  13.717  69.148  1.00  0.00    -0.100 C  
HETATM   10  C   UNL     1      -7.024  14.777  69.422  1.00  0.00    -0.167 C  
BRANCH  10  11
HETATM   11  C   UNL     1      -8.347  15.022  68.752  1.00  0.00    -0.174 C  
BRANCH  11  12
HETATM   12  C   UNL     1      -8.765  16.488  68.796  1.00  0.00    -0.259 C  
BRANCH  12  13
HETATM   13  C   UNL     1     -10.191  16.617  69.333  1.00  0.00    -0.251 C  
BRANCH  13  14
HETATM   14  C   UNL     1     -11.042  15.425  68.905  1.00  0.00    -0.275 C  
BRANCH  14  15
HETATM   15  C   UNL     1     -12.218  15.207  69.855  1.00  0.00    -0.353 C  
BRANCH  15  16
HETATM   16  C   UNL     1     -12.122  13.833  70.517  1.00  0.00    -0.416 C  
BRANCH  16  17
HETATM   17  C   UNL     1     -11.808  12.738  69.502  1.00  0.00    -0.379 C  
HETATM   18  C   UNL     1     -12.040  11.360  70.080  1.00  0.00    -0.357 C  
HETATM   19  O   UNL     1     -12.435  11.121  71.211  1.00  0.00    -0.376 OA 
HETATM   20  O   UNL     1     -11.757  10.378  69.193  1.00  0.00    -0.213 OA 
ENDBRANCH  16  17
ENDBRANCH  15  16
ENDBRANCH  14  15
ENDBRANCH  13  14
ENDBRANCH  12  13
ENDBRANCH  11  12
ENDBRANCH  10  11
ENDBRANCH   8   9
ENDBRANCH   7   8
ENDBRANCH   5   6
ENDBRANCH   4   5
ENDBRANCH   2   3
TORSDOF 12
ENDMDL
MODEL      356
REMARK 921   NORMALIZED FREE ENERGY PREDICTED BY IDOCK:   -3.04 KCAL/MOL
REMARK 922        TOTAL FREE ENERGY PREDICTED BY IDOCK:   -7.01 KCAL/MOL
REMARK 923 INTER-LIGAND FREE ENERGY PREDICTED BY IDOCK:   -5.15 KCAL/MOL
REMARK 924 INTRA-LIGAND FREE ENERGY PREDICTED BY IDOCK:   -1.86 KCAL/MOL
REMARK 927      BINDING AFFINITY PREDICTED BY RF-SCORE:    0.00 PKD
ROOT
HETATM    1  C   UNL     1      -6.337   5.178  72.545  1.00  0.00    -0.039 C  
HETATM    2  C   UNL     1      -6.423   6.640  72.957  1.00  0.00    -0.063 C  
ENDROOT
BRANCH   2   3
HETATM    3  C   UNL     1      -6.838   7.518  71.811  1.00  0.00    -0.057 C  
HETATM    4  C   UNL     1      -8.092   7.923  71.549  1.00  0.00    -0.117 C  
BRANCH   4   5
HETATM    5  C   UNL     1      -9.299   7.525  72.351  1.00  0.00    -0.192 C  
BRANCH   5   6
HETATM    6  C   UNL     1      -9.808   6.161  71.982  1.00  0.00    -0.174 C  
HETATM    7  C   UNL     1     -10.673   5.900  70.986  1.00  0.00    -0.331 C  
BRANCH   7   8
HETATM    8  C   UNL     1     -11.290   6.959  70.118  1.00  0.00    -0.364 C  
BRANCH   8   9
HETATM    9  C   UNL     1     -10.504   7.199  68.863  1.00  0.00    -0.218 C  
HETATM   10  C   UNL     1     -10.120   8.408  68.415  1.00  0.00    -0.224 C  
BRANCH  10  11
HETATM   11  C   UNL     1     -10.373   9.685  69.165  1.00  0.00    -0.219 C  
BRANCH  11  12
HETATM   12  C   UNL     1      -9.220  10.676  69.043  1.00  0.00    -0.177 C  
BRANCH  12  13
HETATM   13  C   UNL     1      -8.697  10.708  67.607  1.00  0.00    -0.121 C  
BRANCH  13  14
HETATM   14  C   UNL     1      -8.955  12.068  66.966  1.00  0.00    -0.198 C  
BRANCH  14  15
HETATM   15  C   UNL     1      -9.558  13.053  67.966  1.00  0.00    -0.224 C  
BRANCH  15  16
HETATM   16  C   UNL     1     -10.739  13.793  67.340  1.00  0.00    -0.279 C  
BRANCH  16  17
HETATM   17  C   UNL     1     -11.725  12.830  66.686  1.00  0.00    -0.459 C  
HETATM   18  C   UNL     1     -12.242  13.370  65.371  1.00  0.00    -0.452 C  
HETATM   19  O   UNL     1     -11.922  14.435  64.866  1.00  0.00    -0.387 OA 
HETATM   20  O   UNL     1     -13.125  12.530  64.783  1.00  0.00    -0.853 OA 
ENDBRANCH  16  17
ENDBRANCH  15  16
ENDBRANCH  14  15
ENDBRANCH  13  14
ENDBRANCH  12  13
ENDBRANCH  11  12
ENDBRANCH  10  11
ENDBRANCH   8   9
ENDBRANCH   7   8
ENDBRANCH   5   6
ENDBRANCH   4   5
ENDBRANCH   2   3
TORSDOF 12
ENDMDL
MODEL      357
REMARK 921   NORMALIZED FREE ENERGY PREDICTED BY IDOCK:   -3.03 KCAL/MOL
REMARK 922        TOTAL FREE ENERGY PREDICTED BY IDOCK:   -7.01 KCAL/MOL
REMARK 923 INTER-LIGAND FREE ENERGY PREDICTED BY IDOCK:   -4.60 KCAL/MOL
REMARK 924 INTRA-LIGAND FREE ENERGY PREDICTED BY IDOCK:   -2.41 KCAL/MOL
REMARK 927      BINDING AFFINITY PREDICTED BY RF-SCORE:    0.00 PKD
ROOT
HETATM    1  C   UNL     1      -7.070   3.339  64.709  1.00  0.00    -0.061 C  
HETATM    2  C   UNL     1      -7.460   2.506  65.920  1.00  0.00    -0.068 C  
ENDROOT
BRANCH   2   3
HETATM    3  C   UNL     1      -8.868   2.787  66.360  1.00  0.00    -0.150 C  
HETATM    4  C   UNL     1      -9.227   3.335  67.533  1.00  0.00    -0.233 C  
BRANCH   4   5
HETATM    5  C   UNL     1      -8.265   3.725  68.619  1.00  0.00    -0.084 C  
BRANCH   5   6
HETATM    6  C   UNL     1      -8.855   3.568  69.992  1.00  0.00    -0.149 C  
HETATM    7  C   UNL     1      -9.504   4.531  70.670  1.00  0.00    -0.240 C  
BRANCH   7   8
HETATM    8  C   UNL     1      -9.695   5.929  70.158  1.00  0.00    -0.211 C  
BRANCH   8   9
HETATM    9  C   UNL     1     -11.009   6.106  69.455  1.00  0.00    -0.463 C  
HETATM   10  C   UNL     1     -11.150   6.484  68.172  1.00  0.00    -0.332 C  
BRANCH  10  11
HETATM   11  C   UNL     1      -9.989   6.713  67.246  1.00  0.00    -0.199 C  
BRANCH  11  12
HETATM   12  C   UNL     1      -9.926   8.144  66.724  1.00  0.00    -0.349 C  
BRANCH  12  13
HETATM   13  C   UNL     1      -8.641   8.825  67.196  1.00  0.00    -0.119 C  
BRANCH  13  14
HETATM   14  C   UNL     1      -8.922   9.760  68.369  1.00  0.00    -0.123 C  
BRANCH  14  15
HETATM   15  C   UNL     1      -8.144   9.342  69.617  1.00  0.00    -0.123 C  
BRANCH  15  16
HETATM   16  C   UNL     1      -9.060   9.333  70.838  1.00  0.00    -0.288 C  
BRANCH  16  17
HETATM   17  C   UNL     1     -10.501   9.669  70.466  1.00  0.00    -0.367 C  
HETATM   18  C   UNL     1     -11.481   9.121  71.480  1.00  0.00    -0.367 C  
HETATM   19  O   UNL     1     -11.186   8.492  72.485  1.00  0.00    -0.357 OA 
HETATM   20  O   UNL     1     -12.764   9.404  71.158  1.00  0.00    -0.315 OA 
ENDBRANCH  16  17
ENDBRANCH  15  16
ENDBRANCH  14  15
ENDBRANCH  13  14
ENDBRANCH  12  13
ENDBRANCH  11  12
ENDBRANCH  10  11
ENDBRANCH   8   9
ENDBRANCH   7   8
ENDBRANCH   5   6
ENDBRANCH   4   5
ENDBRANCH   2   3
TORSDOF 12
ENDMDL
MODEL      358
REMARK 921   NORMALIZED FREE ENERGY PREDICTED BY IDOCK:   -3.01 KCAL/MOL
REMARK 922        TOTAL FREE ENERGY PREDICTED BY IDOCK:   -6.97 KCAL/MOL
REMARK 923 INTER-LIGAND FREE ENERGY PREDICTED BY IDOCK:   -5.40 KCAL/MOL
REMARK 924 INTRA-LIGAND FREE ENERGY PREDICTED BY IDOCK:   -1.57 KCAL/MOL
REMARK 927      BINDING AFFINITY PREDICTED BY RF-SCORE:    0.00 PKD
ROOT
HETATM    1  C   UNL     1      -9.059  10.151  65.000  1.00  0.00    -0.245 C  
HETATM    2  C   UNL     1      -8.973   9.044  66.039  1.00  0.00    -0.227 C  
ENDROOT
BRANCH   2   3
HETATM    3  C   UNL     1      -7.929   8.024  65.682  1.00  0.00    -0.114 C  
HETATM    4  C   UNL     1      -8.056   6.693  65.818  1.00  0.00    -0.122 C  
BRANCH   4   5
HETATM    5  C   UNL     1      -9.265   6.008  66.389  1.00  0.00    -0.163 C  
BRANCH   5   6
HETATM    6  C   UNL     1      -8.953   5.246  67.646  1.00  0.00    -0.109 C  
HETATM    7  C   UNL     1      -9.383   5.574  68.877  1.00  0.00    -0.154 C  
BRANCH   7   8
HETATM    8  C   UNL     1     -10.211   6.790  69.176  1.00  0.00    -0.195 C  
BRANCH   8   9
HETATM    9  C   UNL     1      -9.791   7.469  70.446  1.00  0.00    -0.183 C  
HETATM   10  C   UNL     1     -10.378   8.563  70.965  1.00  0.00    -0.261 C  
BRANCH  10  11
HETATM   11  C   UNL     1     -11.594   9.210  70.365  1.00  0.00    -0.181 C  
BRANCH  11  12
HETATM   12  C   UNL     1     -11.987  10.498  71.079  1.00  0.00    -0.466 C  
BRANCH  12  13
HETATM   13  C   UNL     1     -12.254  11.609  70.063  1.00  0.00    -0.338 C  
BRANCH  13  14
HETATM   14  C   UNL     1     -11.421  11.402  68.802  1.00  0.00    -0.354 C  
BRANCH  14  15
HETATM   15  C   UNL     1     -10.331  12.466  68.670  1.00  0.00    -0.198 C  
BRANCH  15  16
HETATM   16  C   UNL     1     -10.312  13.036  67.253  1.00  0.00    -0.238 C  
BRANCH  16  17
HETATM   17  C   UNL     1     -11.680  13.569  66.840  1.00  0.00    -0.424 C  
HETATM   18  C   UNL     1     -11.803  13.682  65.337  1.00  0.00    -0.353 C  
HETATM   19  O   UNL     1     -10.936  13.386  64.529  1.00  0.00    -0.353 OA 
HETATM   20  O   UNL     1     -13.010  14.162  64.955  1.00  0.00    -0.721 OA 
ENDBRANCH  16  17
ENDBRANCH  15  16
ENDBRANCH  14  15
ENDBRANCH  13  14
ENDBRANCH  12  13
ENDBRANCH  11  12
ENDBRANCH  10  11
ENDBRANCH   8   9
ENDBRANCH   7   8
ENDBRANCH   5   6
ENDBRANCH   4   5
ENDBRANCH   2   3
TORSDOF 12
ENDMDL
MODEL      359
REMARK 921   NORMALIZED FREE ENERGY PREDICTED BY IDOCK:   -2.99 KCAL/MOL
REMARK 922        TOTAL FREE ENERGY PREDICTED BY IDOCK:   -6.93 KCAL/MOL
REMARK 923 INTER-LIGAND FREE ENERGY PREDICTED BY IDOCK:   -5.10 KCAL/MOL
REMARK 924 INTRA-LIGAND FREE ENERGY PREDICTED BY IDOCK:   -1.83 KCAL/MOL
REMARK 927      BINDING AFFINITY PREDICTED BY RF-SCORE:    0.00 PKD
ROOT
HETATM    1  C   UNL     1     -12.537  13.061  65.251  1.00  0.00    -0.516 C  
HETATM    2  C   UNL     1     -12.001  12.946  66.669  1.00  0.00    -0.436 C  
ENDROOT
BRANCH   2   3
HETATM    3  C   UNL     1     -11.310  11.632  66.899  1.00  0.00    -0.364 C  
HETATM    4  C   UNL     1     -11.067  11.074  68.097  1.00  0.00    -0.329 C  
BRANCH   4   5
HETATM    5  C   UNL     1     -11.421  11.702  69.415  1.00  0.00    -0.372 C  
BRANCH   5   6
HETATM    6  C   UNL     1     -12.657  11.104  70.023  1.00  0.00    -0.213 C  
HETATM    7  C   UNL     1     -12.670  10.149  70.969  1.00  0.00    -0.481 C  
BRANCH   7   8
HETATM    8  C   UNL     1     -11.431   9.509  71.526  1.00  0.00    -0.466 C  
BRANCH   8   9
HETATM    9  C   UNL     1     -10.843   8.493  70.591  1.00  0.00    -0.255 C  
HETATM   10  C   UNL     1      -9.560   8.473  70.186  1.00  0.00    -0.174 C  
BRANCH  10  11
HETATM   11  C   UNL     1      -8.522   9.439  70.681  1.00  0.00    -0.239 C  
BRANCH  11  12
HETATM   12  C   UNL     1      -7.662  10.007  69.557  1.00  0.00    -0.146 C  
BRANCH  12  13
HETATM   13  C   UNL     1      -6.908   8.882  68.846  1.00  0.00    -0.061 C  
BRANCH  13  14
HETATM   14  C   UNL     1      -5.793   9.445  67.971  1.00  0.00    -0.041 C  
BRANCH  14  15
HETATM   15  C   UNL     1      -6.201  10.771  67.329  1.00  0.00    -0.061 C  
BRANCH  15  16
HETATM   16  C   UNL     1      -6.653  10.549  65.887  1.00  0.00    -0.129 C  
BRANCH  16  17
HETATM   17  C   UNL     1      -8.165  10.380  65.789  1.00  0.00    -0.156 C  
HETATM   18  C   UNL     1      -8.633  10.365  64.351  1.00  0.00    -0.179 C  
HETATM   19  O   UNL     1      -7.913  10.466  63.369  1.00  0.00    -0.154 OA 
HETATM   20  O   UNL     1      -9.975  10.224  64.249  1.00  0.00    -0.328 OA 
ENDBRANCH  16  17
ENDBRANCH  15  16
ENDBRANCH  14  15
ENDBRANCH  13  14
ENDBRANCH  12  13
ENDBRANCH  11  12
ENDBRANCH  10  11
ENDBRANCH   8   9
ENDBRANCH   7   8
ENDBRANCH   5   6
ENDBRANCH   4   5
ENDBRANCH   2   3
TORSDOF 12
ENDMDL
MODEL      360
REMARK 921   NORMALIZED FREE ENERGY PREDICTED BY IDOCK:   -2.99 KCAL/MOL
REMARK 922        TOTAL FREE ENERGY PREDICTED BY IDOCK:   -6.93 KCAL/MOL
REMARK 923 INTER-LIGAND FREE ENERGY PREDICTED BY IDOCK:   -6.05 KCAL/MOL
REMARK 924 INTRA-LIGAND FREE ENERGY PREDICTED BY IDOCK:   -0.88 KCAL/MOL
REMARK 927      BINDING AFFINITY PREDICTED BY RF-SCORE:    0.00 PKD
ROOT
HETATM    1  C   UNL     1      -8.120   2.621  70.874  1.00  0.00    -0.060 C  
HETATM    2  C   UNL     1      -9.513   2.978  70.379  1.00  0.00    -0.218 C  
ENDROOT
BRANCH   2   3
HETATM    3  C   UNL     1      -9.523   4.281  69.632  1.00  0.00    -0.258 C  
HETATM    4  C   UNL     1      -9.688   5.496  70.180  1.00  0.00    -0.242 C  
BRANCH   4   5
HETATM    5  C   UNL     1      -9.928   5.744  71.642  1.00  0.00    -0.218 C  
BRANCH   5   6
HETATM    6  C   UNL     1     -11.388   5.721  71.996  1.00  0.00    -0.289 C  
HETATM    7  C   UNL     1     -12.241   6.746  71.830  1.00  0.00    -0.377 C  
BRANCH   7   8
HETATM    8  C   UNL     1     -11.837   8.092  71.300  1.00  0.00    -0.321 C  
BRANCH   8   9
HETATM    9  C   UNL     1     -12.411   9.220  72.106  1.00  0.00    -0.398 C  
HETATM   10  C   UNL     1     -12.795  10.407  71.604  1.00  0.00    -0.579 C  
BRANCH  10  11
HETATM   11  C   UNL     1     -12.763  10.733  70.137  1.00  0.00    -0.232 C  
BRANCH  11  12
HETATM   12  C   UNL     1     -11.595  11.639  69.762  1.00  0.00    -0.389 C  
BRANCH  12  13
HETATM   13  C   UNL     1     -11.733  12.109  68.313  1.00  0.00    -0.401 C  
BRANCH  13  14
HETATM   14  C   UNL     1     -11.865  13.627  68.246  1.00  0.00    -0.404 C  
BRANCH  14  15
HETATM   15  C   UNL     1     -11.615  14.149  66.831  1.00  0.00    -0.410 C  
BRANCH  15  16
HETATM   16  C   UNL     1     -10.846  15.467  66.876  1.00  0.00    -0.301 C  
BRANCH  16  17
HETATM   17  C   UNL     1      -9.477  15.300  67.529  1.00  0.00    -0.202 C  
HETATM   18  C   UNL     1      -9.212  16.383  68.551  1.00  0.00    -0.226 C  
HETATM   19  O   UNL     1      -9.980  17.285  68.845  1.00  0.00    -0.296 OA 
HETATM   20  O   UNL     1      -7.997  16.252  69.133  1.00  0.00    -0.234 OA 
ENDBRANCH  16  17
ENDBRANCH  15  16
ENDBRANCH  14  15
ENDBRANCH  13  14
ENDBRANCH  12  13
ENDBRANCH  11  12
ENDBRANCH  10  11
ENDBRANCH   8   9
ENDBRANCH   7   8
ENDBRANCH   5   6
ENDBRANCH   4   5
ENDBRANCH   2   3
TORSDOF 12
ENDMDL
MODEL      361
REMARK 921   NORMALIZED FREE ENERGY PREDICTED BY IDOCK:   -2.98 KCAL/MOL
REMARK 922        TOTAL FREE ENERGY PREDICTED BY IDOCK:   -6.92 KCAL/MOL
REMARK 923 INTER-LIGAND FREE ENERGY PREDICTED BY IDOCK:   -5.64 KCAL/MOL
REMARK 924 INTRA-LIGAND FREE ENERGY PREDICTED BY IDOCK:   -1.27 KCAL/MOL
REMARK 927      BINDING AFFINITY PREDICTED BY RF-SCORE:    0.00 PKD
ROOT
HETATM    1  C   UNL     1     -10.776   4.913  73.950  1.00  0.00    -0.363 C  
HETATM    2  C   UNL     1      -9.875   6.128  73.793  1.00  0.00    -0.198 C  
ENDROOT
BRANCH   2   3
HETATM    3  C   UNL     1     -10.637   7.328  73.309  1.00  0.00    -0.428 C  
HETATM    4  C   UNL     1     -10.523   7.891  72.094  1.00  0.00    -0.308 C  
BRANCH   4   5
HETATM    5  C   UNL     1      -9.576   7.423  71.027  1.00  0.00    -0.161 C  
BRANCH   5   6
HETATM    6  C   UNL     1     -10.241   6.526  70.022  1.00  0.00    -0.219 C  
HETATM    7  C   UNL     1     -10.701   6.916  68.820  1.00  0.00    -0.255 C  
BRANCH   7   8
HETATM    8  C   UNL     1     -10.651   8.333  68.327  1.00  0.00    -0.157 C  
BRANCH   8   9
HETATM    9  C   UNL     1      -9.584   8.541  67.293  1.00  0.00    -0.220 C  
HETATM   10  C   UNL     1      -9.061   9.734  66.957  1.00  0.00    -0.157 C  
BRANCH  10  11
HETATM   11  C   UNL     1      -9.434  11.021  67.637  1.00  0.00    -0.173 C  
BRANCH  11  12
HETATM   12  C   UNL     1     -10.326  11.905  66.772  1.00  0.00    -0.238 C  
BRANCH  12  13
HETATM   13  C   UNL     1     -11.657  12.168  67.478  1.00  0.00    -0.413 C  
BRANCH  13  14
HETATM   14  C   UNL     1     -12.034  13.643  67.392  1.00  0.00    -0.413 C  
BRANCH  14  15
HETATM   15  C   UNL     1     -11.189  14.378  66.352  1.00  0.00    -0.345 C  
BRANCH  15  16
HETATM   16  C   UNL     1     -10.479  15.571  66.989  1.00  0.00    -0.304 C  
BRANCH  16  17
HETATM   17  C   UNL     1      -8.968  15.364  67.046  1.00  0.00    -0.253 C  
HETATM   18  C   UNL     1      -8.222  16.538  66.452  1.00  0.00    -0.329 C  
HETATM   19  O   UNL     1      -8.735  17.542  65.984  1.00  0.00    -0.497 OA 
HETATM   20  O   UNL     1      -6.880  16.364  66.488  1.00  0.00    -0.213 OA 
ENDBRANCH  16  17
ENDBRANCH  15  16
ENDBRANCH  14  15
ENDBRANCH  13  14
ENDBRANCH  12  13
ENDBRANCH  11  12
ENDBRANCH  10  11
ENDBRANCH   8   9
ENDBRANCH   7   8
ENDBRANCH   5   6
ENDBRANCH   4   5
ENDBRANCH   2   3
TORSDOF 12
ENDMDL
MODEL      362
REMARK 921   NORMALIZED FREE ENERGY PREDICTED BY IDOCK:   -2.97 KCAL/MOL
REMARK 922        TOTAL FREE ENERGY PREDICTED BY IDOCK:   -6.90 KCAL/MOL
REMARK 923 INTER-LIGAND FREE ENERGY PREDICTED BY IDOCK:   -4.76 KCAL/MOL
REMARK 924 INTRA-LIGAND FREE ENERGY PREDICTED BY IDOCK:   -2.14 KCAL/MOL
REMARK 927      BINDING AFFINITY PREDICTED BY RF-SCORE:    0.00 PKD
ROOT
HETATM    1  C   UNL     1      -5.955   8.293  70.386  1.00  0.00    -0.028 C  
HETATM    2  C   UNL     1      -6.906   8.103  69.216  1.00  0.00    -0.051 C  
ENDROOT
BRANCH   2   3
HETATM    3  C   UNL     1      -8.152   8.928  69.370  1.00  0.00    -0.105 C  
HETATM    4  C   UNL     1      -8.524   9.942  68.570  1.00  0.00    -0.112 C  
BRANCH   4   5
HETATM    5  C   UNL     1      -7.723  10.439  67.401  1.00  0.00    -0.095 C  
BRANCH   5   6
HETATM    6  C   UNL     1      -6.493  11.189  67.825  1.00  0.00    -0.063 C  
HETATM    7  C   UNL     1      -6.402  12.526  67.941  1.00  0.00    -0.103 C  
BRANCH   7   8
HETATM    8  C   UNL     1      -7.524  13.470  67.617  1.00  0.00    -0.187 C  
BRANCH   8   9
HETATM    9  C   UNL     1      -7.807  14.428  68.737  1.00  0.00    -0.138 C  
HETATM   10  C   UNL     1      -8.908  15.194  68.834  1.00  0.00    -0.205 C  
BRANCH  10  11
HETATM   11  C   UNL     1     -10.045  15.134  67.854  1.00  0.00    -0.222 C  
BRANCH  11  12
HETATM   12  C   UNL     1     -11.261  14.398  68.408  1.00  0.00    -0.294 C  
BRANCH  12  13
HETATM   13  C   UNL     1     -11.075  12.887  68.268  1.00  0.00    -0.294 C  
BRANCH  13  14
HETATM   14  C   UNL     1     -11.667  12.386  66.955  1.00  0.00    -0.432 C  
BRANCH  14  15
HETATM   15  C   UNL     1     -10.573  11.991  65.962  1.00  0.00    -0.303 C  
BRANCH  15  16
HETATM   16  C   UNL     1     -10.363  13.098  64.931  1.00  0.00    -0.352 C  
BRANCH  16  17
HETATM   17  C   UNL     1     -11.689  13.681  64.450  1.00  0.00    -0.444 C  
HETATM   18  C   UNL     1     -11.604  15.179  64.265  1.00  0.00    -0.184 C  
HETATM   19  O   UNL     1     -10.612  15.864  64.459  1.00  0.00    -0.449 OA 
HETATM   20  O   UNL     1     -12.776  15.711  63.846  1.00  0.00    -0.697 OA 
ENDBRANCH  16  17
ENDBRANCH  15  16
ENDBRANCH  14  15
ENDBRANCH  13  14
ENDBRANCH  12  13
ENDBRANCH  11  12
ENDBRANCH  10  11
ENDBRANCH   8   9
ENDBRANCH   7   8
ENDBRANCH   5   6
ENDBRANCH   4   5
ENDBRANCH   2   3
TORSDOF 12
ENDMDL
MODEL      363
REMARK 921   NORMALIZED FREE ENERGY PREDICTED BY IDOCK:   -2.95 KCAL/MOL
REMARK 922        TOTAL FREE ENERGY PREDICTED BY IDOCK:   -6.87 KCAL/MOL
REMARK 923 INTER-LIGAND FREE ENERGY PREDICTED BY IDOCK:   -5.01 KCAL/MOL
REMARK 924 INTRA-LIGAND FREE ENERGY PREDICTED BY IDOCK:   -1.86 KCAL/MOL
REMARK 927      BINDING AFFINITY PREDICTED BY RF-SCORE:    0.00 PKD
ROOT
HETATM    1  C   UNL     1     -11.243  15.290  65.006  1.00  0.00    -0.409 C  
HETATM    2  C   UNL     1     -12.301  14.234  64.730  1.00  0.00    -0.440 C  
ENDROOT
BRANCH   2   3
HETATM    3  C   UNL     1     -11.963  13.409  63.521  1.00  0.00    -0.467 C  
HETATM    4  C   UNL     1     -11.520  12.140  63.537  1.00  0.00    -0.544 C  
BRANCH   4   5
HETATM    5  C   UNL     1     -11.256  11.349  64.786  1.00  0.00    -0.197 C  
BRANCH   5   6
HETATM    6  C   UNL     1      -9.925  10.652  64.754  1.00  0.00    -0.391 C  
HETATM    7  C   UNL     1      -8.889  10.924  65.568  1.00  0.00    -0.199 C  
BRANCH   7   8
HETATM    8  C   UNL     1      -8.906  12.007  66.608  1.00  0.00    -0.191 C  
BRANCH   8   9
HETATM    9  C   UNL     1      -8.211  11.596  67.873  1.00  0.00    -0.141 C  
HETATM   10  C   UNL     1      -8.778  10.886  68.865  1.00  0.00    -0.144 C  
BRANCH  10  11
HETATM   11  C   UNL     1     -10.179  10.346  68.799  1.00  0.00    -0.201 C  
BRANCH  11  12
HETATM   12  C   UNL     1     -10.228   8.825  68.894  1.00  0.00    -0.221 C  
BRANCH  12  13
HETATM   13  C   UNL     1     -10.630   8.222  67.548  1.00  0.00    -0.291 C  
BRANCH  13  14
HETATM   14  C   UNL     1      -9.449   7.504  66.901  1.00  0.00    -0.219 C  
BRANCH  14  15
HETATM   15  C   UNL     1      -8.986   6.316  67.743  1.00  0.00    -0.112 C  
BRANCH  15  16
HETATM   16  C   UNL     1     -10.071   5.243  67.794  1.00  0.00    -0.205 C  
BRANCH  16  17
HETATM   17  C   UNL     1      -9.486   3.860  68.063  1.00  0.00    -0.221 C  
HETATM   18  C   UNL     1      -9.234   3.102  66.779  1.00  0.00    -0.154 C  
HETATM   19  O   UNL     1      -9.453   3.520  65.653  1.00  0.00    -0.161 OA 
HETATM   20  O   UNL     1      -8.722   1.869  67.003  1.00  0.00    -0.102 OA 
ENDBRANCH  16  17
ENDBRANCH  15  16
ENDBRANCH  14  15
ENDBRANCH  13  14
ENDBRANCH  12  13
ENDBRANCH  11  12
ENDBRANCH  10  11
ENDBRANCH   8   9
ENDBRANCH   7   8
ENDBRANCH   5   6
ENDBRANCH   4   5
ENDBRANCH   2   3
TORSDOF 12
ENDMDL
MODEL      364
REMARK 921   NORMALIZED FREE ENERGY PREDICTED BY IDOCK:   -2.95 KCAL/MOL
REMARK 922        TOTAL FREE ENERGY PREDICTED BY IDOCK:   -6.86 KCAL/MOL
REMARK 923 INTER-LIGAND FREE ENERGY PREDICTED BY IDOCK:   -5.86 KCAL/MOL
REMARK 924 INTRA-LIGAND FREE ENERGY PREDICTED BY IDOCK:   -1.00 KCAL/MOL
REMARK 927      BINDING AFFINITY PREDICTED BY RF-SCORE:    0.00 PKD
ROOT
HETATM    1  C   UNL     1      -7.765   6.879  67.203  1.00  0.00    -0.108 C  
HETATM    2  C   UNL     1      -8.668   7.648  66.252  1.00  0.00    -0.170 C  
ENDROOT
BRANCH   2   3
HETATM    3  C   UNL     1      -8.231   7.497  64.823  1.00  0.00    -0.068 C  
HETATM    4  C   UNL     1      -8.142   8.490  63.922  1.00  0.00    -0.155 C  
BRANCH   4   5
HETATM    5  C   UNL     1      -8.504   9.922  64.196  1.00  0.00    -0.179 C  
BRANCH   5   6
HETATM    6  C   UNL     1      -9.736  10.354  63.454  1.00  0.00    -0.318 C  
HETATM    7  C   UNL     1     -10.525  11.387  63.800  1.00  0.00    -0.456 C  
BRANCH   7   8
HETATM    8  C   UNL     1     -10.304  12.237  65.018  1.00  0.00    -0.321 C  
BRANCH   8   9
HETATM    9  C   UNL     1     -11.590  12.618  65.690  1.00  0.00    -0.418 C  
HETATM   10  C   UNL     1     -12.358  13.666  65.342  1.00  0.00    -0.510 C  
BRANCH  10  11
HETATM   11  C   UNL     1     -12.057  14.559  64.172  1.00  0.00    -0.377 C  
BRANCH  11  12
HETATM   12  C   UNL     1     -11.572  15.941  64.597  1.00  0.00    -0.200 C  
BRANCH  12  13
HETATM   13  C   UNL     1     -10.247  15.830  65.351  1.00  0.00    -0.380 C  
BRANCH  13  14
HETATM   14  C   UNL     1     -10.173  16.859  66.474  1.00  0.00    -0.320 C  
BRANCH  14  15
HETATM   15  C   UNL     1     -10.528  18.260  65.975  1.00  0.00    -0.380 C  
BRANCH  15  16
HETATM   16  C   UNL     1      -9.615  19.302  66.617  1.00  0.00    -0.411 C  
BRANCH  16  17
HETATM   17  C   UNL     1      -8.149  18.887  66.552  1.00  0.00    -0.298 C  
HETATM   18  C   UNL     1      -7.467  19.033  67.894  1.00  0.00    -0.251 C  
HETATM   19  O   UNL     1      -7.999  19.424  68.921  1.00  0.00    -0.358 OA 
HETATM   20  O   UNL     1      -6.163  18.676  67.848  1.00  0.00    -0.186 OA 
ENDBRANCH  16  17
ENDBRANCH  15  16
ENDBRANCH  14  15
ENDBRANCH  13  14
ENDBRANCH  12  13
ENDBRANCH  11  12
ENDBRANCH  10  11
ENDBRANCH   8   9
ENDBRANCH   7   8
ENDBRANCH   5   6
ENDBRANCH   4   5
ENDBRANCH   2   3
TORSDOF 12
ENDMDL
MODEL      365
REMARK 921   NORMALIZED FREE ENERGY PREDICTED BY IDOCK:   -2.93 KCAL/MOL
REMARK 922        TOTAL FREE ENERGY PREDICTED BY IDOCK:   -6.83 KCAL/MOL
REMARK 923 INTER-LIGAND FREE ENERGY PREDICTED BY IDOCK:   -5.87 KCAL/MOL
REMARK 924 INTRA-LIGAND FREE ENERGY PREDICTED BY IDOCK:   -0.96 KCAL/MOL
REMARK 927      BINDING AFFINITY PREDICTED BY RF-SCORE:    0.00 PKD
ROOT
HETATM    1  C   UNL     1      -7.851   3.135  64.707  1.00  0.00    -0.078 C  
HETATM    2  C   UNL     1      -9.267   3.427  65.178  1.00  0.00    -0.149 C  
ENDROOT
BRANCH   2   3
HETATM    3  C   UNL     1      -9.319   3.692  66.656  1.00  0.00    -0.206 C  
HETATM    4  C   UNL     1      -9.511   4.892  67.229  1.00  0.00    -0.157 C  
BRANCH   4   5
HETATM    5  C   UNL     1      -9.670   6.180  66.473  1.00  0.00    -0.184 C  
BRANCH   5   6
HETATM    6  C   UNL     1      -8.649   7.208  66.867  1.00  0.00    -0.124 C  
HETATM    7  C   UNL     1      -8.927   8.447  67.308  1.00  0.00    -0.142 C  
BRANCH   7   8
HETATM    8  C   UNL     1     -10.320   8.997  67.429  1.00  0.00    -0.335 C  
BRANCH   8   9
HETATM    9  C   UNL     1     -10.484  10.300  66.701  1.00  0.00    -0.260 C  
HETATM   10  C   UNL     1     -11.141  11.371  67.181  1.00  0.00    -0.366 C  
BRANCH  10  11
HETATM   11  C   UNL     1     -11.742  11.423  68.557  1.00  0.00    -0.386 C  
BRANCH  11  12
HETATM   12  C   UNL     1     -11.900  12.848  69.076  1.00  0.00    -0.352 C  
BRANCH  12  13
HETATM   13  C   UNL     1     -10.713  13.707  68.636  1.00  0.00    -0.272 C  
BRANCH  13  14
HETATM   14  C   UNL     1     -11.119  15.173  68.518  1.00  0.00    -0.281 C  
BRANCH  14  15
HETATM   15  C   UNL     1     -12.107  15.571  69.614  1.00  0.00    -0.352 C  
BRANCH  15  16
HETATM   16  C   UNL     1     -11.368  15.858  70.920  1.00  0.00    -0.428 C  
BRANCH  16  17
HETATM   17  C   UNL     1     -11.792  14.902  72.030  1.00  0.00    -0.404 C  
HETATM   18  C   UNL     1     -12.045  15.635  73.329  1.00  0.00    -0.488 C  
HETATM   19  O   UNL     1     -11.938  16.839  73.498  1.00  0.00    -0.416 OA 
HETATM   20  O   UNL     1     -12.414  14.798  74.327  1.00  0.00    -0.491 OA 
ENDBRANCH  16  17
ENDBRANCH  15  16
ENDBRANCH  14  15
ENDBRANCH  13  14
ENDBRANCH  12  13
ENDBRANCH  11  12
ENDBRANCH  10  11
ENDBRANCH   8   9
ENDBRANCH   7   8
ENDBRANCH   5   6
ENDBRANCH   4   5
ENDBRANCH   2   3
TORSDOF 12
ENDMDL
MODEL      366
REMARK 921   NORMALIZED FREE ENERGY PREDICTED BY IDOCK:   -2.93 KCAL/MOL
REMARK 922        TOTAL FREE ENERGY PREDICTED BY IDOCK:   -6.82 KCAL/MOL
REMARK 923 INTER-LIGAND FREE ENERGY PREDICTED BY IDOCK:   -5.69 KCAL/MOL
REMARK 924 INTRA-LIGAND FREE ENERGY PREDICTED BY IDOCK:   -1.14 KCAL/MOL
REMARK 927      BINDING AFFINITY PREDICTED BY RF-SCORE:    0.00 PKD
ROOT
HETATM    1  C   UNL     1      -6.558   5.832  71.857  1.00  0.00    -0.058 C  
HETATM    2  C   UNL     1      -7.824   5.229  72.444  1.00  0.00    -0.102 C  
ENDROOT
BRANCH   2   3
HETATM    3  C   UNL     1      -8.683   4.597  71.387  1.00  0.00    -0.138 C  
HETATM    4  C   UNL     1      -9.973   4.886  71.149  1.00  0.00    -0.278 C  
BRANCH   4   5
HETATM    5  C   UNL     1     -10.781   5.876  71.939  1.00  0.00    -0.290 C  
BRANCH   5   6
HETATM    6  C   UNL     1     -11.637   6.748  71.064  1.00  0.00    -0.388 C  
HETATM    7  C   UNL     1     -11.485   8.075  70.908  1.00  0.00    -0.291 C  
BRANCH   7   8
HETATM    8  C   UNL     1     -10.449   8.888  71.631  1.00  0.00    -0.408 C  
BRANCH   8   9
HETATM    9  C   UNL     1      -9.146   8.943  70.889  1.00  0.00    -0.283 C  
HETATM   10  C   UNL     1      -8.931   9.651  69.766  1.00  0.00    -0.226 C  
BRANCH  10  11
HETATM   11  C   UNL     1      -9.964  10.545  69.141  1.00  0.00    -0.236 C  
BRANCH  11  12
HETATM   12  C   UNL     1     -10.564   9.952  67.871  1.00  0.00    -0.303 C  
BRANCH  12  13
HETATM   13  C   UNL     1     -11.406  11.000  67.143  1.00  0.00    -0.214 C  
BRANCH  13  14
HETATM   14  C   UNL     1     -10.719  12.361  67.168  1.00  0.00    -0.264 C  
BRANCH  14  15
HETATM   15  C   UNL     1     -11.526  13.411  66.404  1.00  0.00    -0.359 C  
BRANCH  15  16
HETATM   16  C   UNL     1     -11.459  14.759  67.117  1.00  0.00    -0.375 C  
BRANCH  16  17
HETATM   17  C   UNL     1     -10.090  15.414  66.959  1.00  0.00    -0.249 C  
HETATM   18  C   UNL     1      -9.963  16.126  65.631  1.00  0.00    -0.297 C  
HETATM   19  O   UNL     1     -10.831  16.192  64.775  1.00  0.00    -0.634 OA 
HETATM   20  O   UNL     1      -8.750  16.705  65.473  1.00  0.00    -0.295 OA 
ENDBRANCH  16  17
ENDBRANCH  15  16
ENDBRANCH  14  15
ENDBRANCH  13  14
ENDBRANCH  12  13
ENDBRANCH  11  12
ENDBRANCH  10  11
ENDBRANCH   8   9
ENDBRANCH   7   8
ENDBRANCH   5   6
ENDBRANCH   4   5
ENDBRANCH   2   3
TORSDOF 12
ENDMDL
MODEL      367
REMARK 921   NORMALIZED FREE ENERGY PREDICTED BY IDOCK:   -2.92 KCAL/MOL
REMARK 922        TOTAL FREE ENERGY PREDICTED BY IDOCK:   -6.82 KCAL/MOL
REMARK 923 INTER-LIGAND FREE ENERGY PREDICTED BY IDOCK:   -5.28 KCAL/MOL
REMARK 924 INTRA-LIGAND FREE ENERGY PREDICTED BY IDOCK:   -1.53 KCAL/MOL
REMARK 927      BINDING AFFINITY PREDICTED BY RF-SCORE:    0.00 PKD
ROOT
HETATM    1  C   UNL     1     -11.114   9.730  70.559  1.00  0.00    -0.384 C  
HETATM    2  C   UNL     1     -12.578  10.140  70.529  1.00  0.00    -0.289 C  
ENDROOT
BRANCH   2   3
HETATM    3  C   UNL     1     -13.051  10.621  71.871  1.00  0.00    -0.563 C  
HETATM    4  C   UNL     1     -13.339  11.893  72.190  1.00  0.00    -0.361 C  
BRANCH   4   5
HETATM    5  C   UNL     1     -13.198  13.058  71.252  1.00  0.00    -0.186 C  
BRANCH   5   6
HETATM    6  C   UNL     1     -13.225  14.378  71.967  1.00  0.00    -0.453 C  
HETATM    7  C   UNL     1     -12.371  15.394  71.748  1.00  0.00    -0.453 C  
BRANCH   7   8
HETATM    8  C   UNL     1     -11.229  15.332  70.775  1.00  0.00    -0.353 C  
BRANCH   8   9
HETATM    9  C   UNL     1     -11.523  16.070  69.502  1.00  0.00    -0.326 C  
HETATM   10  C   UNL     1     -11.960  15.499  68.365  1.00  0.00    -0.123 C  
BRANCH  10  11
HETATM   11  C   UNL     1     -12.283  14.036  68.247  1.00  0.00    -0.195 C  
BRANCH  11  12
HETATM   12  C   UNL     1     -11.041  13.154  68.301  1.00  0.00    -0.295 C  
BRANCH  12  13
HETATM   13  C   UNL     1     -11.011  12.205  67.102  1.00  0.00    -0.316 C  
BRANCH  13  14
HETATM   14  C   UNL     1     -10.852  12.983  65.799  1.00  0.00    -0.292 C  
BRANCH  14  15
HETATM   15  C   UNL     1      -9.408  13.439  65.592  1.00  0.00     0.231 C  
BRANCH  15  16
HETATM   16  C   UNL     1      -9.237  14.889  66.041  1.00  0.00    -0.210 C  
BRANCH  16  17
HETATM   17  C   UNL     1      -8.429  14.990  67.331  1.00  0.00    -0.202 C  
HETATM   18  C   UNL     1      -7.680  16.301  67.418  1.00  0.00    -0.160 C  
HETATM   19  O   UNL     1      -7.705  17.190  66.582  1.00  0.00    -0.210 OA 
HETATM   20  O   UNL     1      -6.952  16.400  68.555  1.00  0.00    -0.142 OA 
ENDBRANCH  16  17
ENDBRANCH  15  16
ENDBRANCH  14  15
ENDBRANCH  13  14
ENDBRANCH  12  13
ENDBRANCH  11  12
ENDBRANCH  10  11
ENDBRANCH   8   9
ENDBRANCH   7   8
ENDBRANCH   5   6
ENDBRANCH   4   5
ENDBRANCH   2   3
TORSDOF 12
ENDMDL
MODEL      368
REMARK 921   NORMALIZED FREE ENERGY PREDICTED BY IDOCK:   -2.92 KCAL/MOL
REMARK 922        TOTAL FREE ENERGY PREDICTED BY IDOCK:   -6.81 KCAL/MOL
REMARK 923 INTER-LIGAND FREE ENERGY PREDICTED BY IDOCK:   -5.23 KCAL/MOL
REMARK 924 INTRA-LIGAND FREE ENERGY PREDICTED BY IDOCK:   -1.58 KCAL/MOL
REMARK 927      BINDING AFFINITY PREDICTED BY RF-SCORE:    0.00 PKD
ROOT
HETATM    1  C   UNL     1     -11.731  12.987  68.208  1.00  0.00    -0.390 C  
HETATM    2  C   UNL     1     -10.474  13.825  68.386  1.00  0.00    -0.256 C  
ENDROOT
BRANCH   2   3
HETATM    3  C   UNL     1     -10.783  15.295  68.411  1.00  0.00    -0.250 C  
HETATM    4  C   UNL     1     -10.728  16.124  67.356  1.00  0.00    -0.291 C  
BRANCH   4   5
HETATM    5  C   UNL     1     -10.308  15.714  65.973  1.00  0.00    -0.351 C  
BRANCH   5   6
HETATM    6  C   UNL     1     -11.455  15.194  65.155  1.00  0.00    -0.304 C  
HETATM    7  C   UNL     1     -11.565  13.939  64.684  1.00  0.00    -0.398 C  
BRANCH   7   8
HETATM    8  C   UNL     1     -10.518  12.880  64.878  1.00  0.00    -0.351 C  
BRANCH   8   9
HETATM    9  C   UNL     1     -10.924  11.561  64.290  1.00  0.00    -0.406 C  
HETATM   10  C   UNL     1     -10.136  10.472  64.225  1.00  0.00    -0.380 C  
BRANCH  10  11
HETATM   11  C   UNL     1      -8.752  10.419  64.806  1.00  0.00    -0.198 C  
BRANCH  11  12
HETATM   12  C   UNL     1      -8.684   9.596  66.088  1.00  0.00    -0.152 C  
BRANCH  12  13
HETATM   13  C   UNL     1      -9.568   8.354  65.969  1.00  0.00    -0.196 C  
BRANCH  13  14
HETATM   14  C   UNL     1      -9.119   7.273  66.946  1.00  0.00    -0.162 C  
BRANCH  14  15
HETATM   15  C   UNL     1     -10.242   6.278  67.236  1.00  0.00    -0.237 C  
BRANCH  15  16
HETATM   16  C   UNL     1     -11.031   6.708  68.472  1.00  0.00    -0.314 C  
BRANCH  16  17
HETATM   17  C   UNL     1     -10.138   7.393  69.501  1.00  0.00    -0.187 C  
HETATM   18  C   UNL     1     -10.580   8.815  69.765  1.00  0.00    -0.224 C  
HETATM   19  O   UNL     1     -11.532   9.371  69.241  1.00  0.00     0.058 OA 
HETATM   20  O   UNL     1      -9.791   9.438  70.671  1.00  0.00    -0.245 OA 
ENDBRANCH  16  17
ENDBRANCH  15  16
ENDBRANCH  14  15
ENDBRANCH  13  14
ENDBRANCH  12  13
ENDBRANCH  11  12
ENDBRANCH  10  11
ENDBRANCH   8   9
ENDBRANCH   7   8
ENDBRANCH   5   6
ENDBRANCH   4   5
ENDBRANCH   2   3
TORSDOF 12
ENDMDL
MODEL      369
REMARK 921   NORMALIZED FREE ENERGY PREDICTED BY IDOCK:   -2.91 KCAL/MOL
REMARK 922        TOTAL FREE ENERGY PREDICTED BY IDOCK:   -6.80 KCAL/MOL
REMARK 923 INTER-LIGAND FREE ENERGY PREDICTED BY IDOCK:   -4.96 KCAL/MOL
REMARK 924 INTRA-LIGAND FREE ENERGY PREDICTED BY IDOCK:   -1.84 KCAL/MOL
REMARK 927      BINDING AFFINITY PREDICTED BY RF-SCORE:    0.00 PKD
ROOT
HETATM    1  C   UNL     1     -12.309  14.210  64.596  1.00  0.00    -0.432 C  
HETATM    2  C   UNL     1     -12.363  13.157  65.691  1.00  0.00    -0.519 C  
ENDROOT
BRANCH   2   3
HETATM    3  C   UNL     1     -11.522  13.541  66.876  1.00  0.00    -0.374 C  
HETATM    4  C   UNL     1     -10.417  12.902  67.292  1.00  0.00    -0.236 C  
BRANCH   4   5
HETATM    5  C   UNL     1      -9.860  11.662  66.651  1.00  0.00    -0.223 C  
BRANCH   5   6
HETATM    6  C   UNL     1     -10.572  10.417  67.094  1.00  0.00    -0.319 C  
HETATM    7  C   UNL     1     -10.361   9.776  68.257  1.00  0.00    -0.231 C  
BRANCH   7   8
HETATM    8  C   UNL     1      -9.338  10.200  69.271  1.00  0.00    -0.227 C  
BRANCH   8   9
HETATM    9  C   UNL     1      -8.687   9.031  69.950  1.00  0.00    -0.160 C  
HETATM   10  C   UNL     1      -7.810   8.194  69.367  1.00  0.00    -0.105 C  
BRANCH  10  11
HETATM   11  C   UNL     1      -7.310   8.369  67.961  1.00  0.00    -0.096 C  
BRANCH  11  12
HETATM   12  C   UNL     1      -6.755   7.078  67.369  1.00  0.00    -0.067 C  
BRANCH  12  13
HETATM   13  C   UNL     1      -7.743   5.930  67.581  1.00  0.00    -0.097 C  
BRANCH  13  14
HETATM   14  C   UNL     1      -8.732   5.845  66.422  1.00  0.00    -0.131 C  
BRANCH  14  15
HETATM   15  C   UNL     1     -10.129   5.457  66.905  1.00  0.00    -0.240 C  
BRANCH  15  16
HETATM   16  C   UNL     1     -10.157   5.351  68.429  1.00  0.00    -0.235 C  
BRANCH  16  17
HETATM   17  C   UNL     1     -11.078   6.396  69.051  1.00  0.00    -0.424 C  
HETATM   18  C   UNL     1     -11.083   6.305  70.561  1.00  0.00    -0.335 C  
HETATM   19  O   UNL     1     -10.436   5.512  71.227  1.00  0.00    -0.225 OA 
HETATM   20  O   UNL     1     -11.903   7.222  71.126  1.00  0.00    -0.288 OA 
ENDBRANCH  16  17
ENDBRANCH  15  16
ENDBRANCH  14  15
ENDBRANCH  13  14
ENDBRANCH  12  13
ENDBRANCH  11  12
ENDBRANCH  10  11
ENDBRANCH   8   9
ENDBRANCH   7   8
ENDBRANCH   5   6
ENDBRANCH   4   5
ENDBRANCH   2   3
TORSDOF 12
ENDMDL
MODEL      370
REMARK 921   NORMALIZED FREE ENERGY PREDICTED BY IDOCK:   -2.91 KCAL/MOL
REMARK 922        TOTAL FREE ENERGY PREDICTED BY IDOCK:   -6.79 KCAL/MOL
REMARK 923 INTER-LIGAND FREE ENERGY PREDICTED BY IDOCK:   -5.62 KCAL/MOL
REMARK 924 INTRA-LIGAND FREE ENERGY PREDICTED BY IDOCK:   -1.17 KCAL/MOL
REMARK 927      BINDING AFFINITY PREDICTED BY RF-SCORE:    0.00 PKD
ROOT
HETATM    1  C   UNL     1     -12.438   7.409  71.317  1.00  0.00    -0.381 C  
HETATM    2  C   UNL     1     -10.944   7.150  71.201  1.00  0.00    -0.272 C  
ENDROOT
BRANCH   2   3
HETATM    3  C   UNL     1     -10.650   5.962  70.330  1.00  0.00    -0.353 C  
HETATM    4  C   UNL     1     -10.715   5.939  68.989  1.00  0.00    -0.379 C  
BRANCH   4   5
HETATM    5  C   UNL     1     -11.133   7.105  68.138  1.00  0.00    -0.027 C  
BRANCH   5   6
HETATM    6  C   UNL     1     -10.452   7.112  66.799  1.00  0.00    -0.300 C  
HETATM    7  C   UNL     1     -10.150   8.214  66.090  1.00  0.00     0.096 C  
BRANCH   7   8
HETATM    8  C   UNL     1     -10.497   9.609  66.526  1.00  0.00    -0.213 C  
BRANCH   8   9
HETATM    9  C   UNL     1      -9.377  10.577  66.285  1.00  0.00    -0.202 C  
HETATM   10  C   UNL     1      -9.318  11.445  65.259  1.00  0.00    -0.192 C  
BRANCH  10  11
HETATM   11  C   UNL     1     -10.417  11.606  64.248  1.00  0.00    -0.383 C  
BRANCH  11  12
HETATM   12  C   UNL     1     -10.882  13.051  64.109  1.00  0.00    -0.433 C  
BRANCH  12  13
HETATM   13  C   UNL     1     -12.130  13.292  64.959  1.00  0.00    -0.447 C  
BRANCH  13  14
HETATM   14  C   UNL     1     -11.933  14.488  65.885  1.00  0.00    -0.315 C  
BRANCH  14  15
HETATM   15  C   UNL     1     -11.054  14.131  67.083  1.00  0.00    -0.315 C  
BRANCH  15  16
HETATM   16  C   UNL     1     -11.461  12.776  67.657  1.00  0.00    -0.387 C  
BRANCH  16  17
HETATM   17  C   UNL     1     -12.044  12.909  69.061  1.00  0.00    -0.198 C  
HETATM   18  C   UNL     1     -11.858  11.641  69.864  1.00  0.00    -0.358 C  
HETATM   19  O   UNL     1     -11.309  10.625  69.470  1.00  0.00    -0.237 OA 
HETATM   20  O   UNL     1     -12.378  11.743  71.110  1.00  0.00    -0.324 OA 
ENDBRANCH  16  17
ENDBRANCH  15  16
ENDBRANCH  14  15
ENDBRANCH  13  14
ENDBRANCH  12  13
ENDBRANCH  11  12
ENDBRANCH  10  11
ENDBRANCH   8   9
ENDBRANCH   7   8
ENDBRANCH   5   6
ENDBRANCH   4   5
ENDBRANCH   2   3
TORSDOF 12
ENDMDL
MODEL      371
REMARK 921   NORMALIZED FREE ENERGY PREDICTED BY IDOCK:   -2.90 KCAL/MOL
REMARK 922        TOTAL FREE ENERGY PREDICTED BY IDOCK:   -6.78 KCAL/MOL
REMARK 923 INTER-LIGAND FREE ENERGY PREDICTED BY IDOCK:   -4.98 KCAL/MOL
REMARK 924 INTRA-LIGAND FREE ENERGY PREDICTED BY IDOCK:   -1.81 KCAL/MOL
REMARK 927      BINDING AFFINITY PREDICTED BY RF-SCORE:    0.00 PKD
ROOT
HETATM    1  C   UNL     1      -9.301   2.625  63.022  1.00  0.00    -0.094 C  
HETATM    2  C   UNL     1      -9.909   3.397  64.182  1.00  0.00    -0.172 C  
ENDROOT
BRANCH   2   3
HETATM    3  C   UNL     1      -9.073   3.284  65.426  1.00  0.00    -0.149 C  
HETATM    4  C   UNL     1      -9.003   4.199  66.407  1.00  0.00    -0.124 C  
BRANCH   4   5
HETATM    5  C   UNL     1      -9.730   5.513  66.398  1.00  0.00    -0.182 C  
BRANCH   5   6
HETATM    6  C   UNL     1     -10.231   5.902  67.760  1.00  0.00    -0.223 C  
HETATM    7  C   UNL     1     -10.697   7.118  68.095  1.00  0.00    -0.214 C  
BRANCH   7   8
HETATM    8  C   UNL     1     -10.742   8.285  67.151  1.00  0.00    -0.240 C  
BRANCH   8   9
HETATM    9  C   UNL     1      -9.437   9.023  67.092  1.00  0.00    -0.196 C  
HETATM   10  C   UNL     1      -9.106   9.926  66.152  1.00  0.00    -0.193 C  
BRANCH  10  11
HETATM   11  C   UNL     1     -10.044  10.369  65.065  1.00  0.00    -0.379 C  
BRANCH  11  12
HETATM   12  C   UNL     1     -10.374  11.856  65.144  1.00  0.00    -0.318 C  
BRANCH  12  13
HETATM   13  C   UNL     1      -9.913  12.432  66.483  1.00  0.00    -0.242 C  
BRANCH  13  14
HETATM   14  C   UNL     1     -11.061  13.141  67.194  1.00  0.00    -0.305 C  
BRANCH  14  15
HETATM   15  C   UNL     1     -11.899  12.164  68.018  1.00  0.00    -0.351 C  
BRANCH  15  16
HETATM   16  C   UNL     1     -11.063  11.566  69.148  1.00  0.00    -0.316 C  
BRANCH  16  17
HETATM   17  C   UNL     1     -11.899  10.668  70.054  1.00  0.00    -0.403 C  
HETATM   18  C   UNL     1     -11.041   9.654  70.778  1.00  0.00    -0.334 C  
HETATM   19  O   UNL     1      -9.829   9.547  70.676  1.00  0.00    -0.263 OA 
HETATM   20  O   UNL     1     -11.771   8.844  71.580  1.00  0.00    -0.281 OA 
ENDBRANCH  16  17
ENDBRANCH  15  16
ENDBRANCH  14  15
ENDBRANCH  13  14
ENDBRANCH  12  13
ENDBRANCH  11  12
ENDBRANCH  10  11
ENDBRANCH   8   9
ENDBRANCH   7   8
ENDBRANCH   5   6
ENDBRANCH   4   5
ENDBRANCH   2   3
TORSDOF 12
ENDMDL
MODEL      372
REMARK 921   NORMALIZED FREE ENERGY PREDICTED BY IDOCK:   -2.90 KCAL/MOL
REMARK 922        TOTAL FREE ENERGY PREDICTED BY IDOCK:   -6.78 KCAL/MOL
REMARK 923 INTER-LIGAND FREE ENERGY PREDICTED BY IDOCK:   -5.51 KCAL/MOL
REMARK 924 INTRA-LIGAND FREE ENERGY PREDICTED BY IDOCK:   -1.27 KCAL/MOL
REMARK 927      BINDING AFFINITY PREDICTED BY RF-SCORE:    0.00 PKD
ROOT
HETATM    1  C   UNL     1      -8.353  10.947  66.175  1.00  0.00    -0.168 C  
HETATM    2  C   UNL     1      -9.171  10.302  65.068  1.00  0.00    -0.259 C  
ENDROOT
BRANCH   2   3
HETATM    3  C   UNL     1      -8.388   9.249  64.337  1.00  0.00    -0.175 C  
HETATM    4  C   UNL     1      -8.324   7.949  64.669  1.00  0.00    -0.046 C  
BRANCH   4   5
HETATM    5  C   UNL     1      -9.007   7.341  65.861  1.00  0.00    -0.103 C  
BRANCH   5   6
HETATM    6  C   UNL     1      -8.135   7.342  67.084  1.00  0.00    -0.114 C  
HETATM    7  C   UNL     1      -8.307   6.551  68.158  1.00  0.00    -0.116 C  
BRANCH   7   8
HETATM    8  C   UNL     1      -9.437   5.573  68.303  1.00  0.00    -0.137 C  
BRANCH   8   9
HETATM    9  C   UNL     1     -10.768   6.253  68.433  1.00  0.00    -0.356 C  
HETATM   10  C   UNL     1     -11.363   6.562  69.599  1.00  0.00    -0.443 C  
BRANCH  10  11
HETATM   11  C   UNL     1     -10.727   6.325  70.939  1.00  0.00    -0.314 C  
BRANCH  11  12
HETATM   12  C   UNL     1      -9.723   7.410  71.315  1.00  0.00    -0.171 C  
BRANCH  12  13
HETATM   13  C   UNL     1     -10.379   8.445  72.229  1.00  0.00    -0.403 C  
BRANCH  13  14
HETATM   14  C   UNL     1     -11.897   8.411  72.087  1.00  0.00    -0.441 C  
BRANCH  14  15
HETATM   15  C   UNL     1     -12.409   9.587  71.256  1.00  0.00    -0.430 C  
BRANCH  15  16
HETATM   16  C   UNL     1     -11.248  10.292  70.557  1.00  0.00    -0.408 C  
BRANCH  16  17
HETATM   17  C   UNL     1     -11.413  10.282  69.041  1.00  0.00    -0.200 C  
HETATM   18  C   UNL     1     -11.720  11.663  68.505  1.00  0.00    -0.315 C  
HETATM   19  O   UNL     1     -11.822  12.678  69.175  1.00  0.00    -0.298 OA 
HETATM   20  O   UNL     1     -11.877  11.668  67.160  1.00  0.00    -0.608 OA 
ENDBRANCH  16  17
ENDBRANCH  15  16
ENDBRANCH  14  15
ENDBRANCH  13  14
ENDBRANCH  12  13
ENDBRANCH  11  12
ENDBRANCH  10  11
ENDBRANCH   8   9
ENDBRANCH   7   8
ENDBRANCH   5   6
ENDBRANCH   4   5
ENDBRANCH   2   3
TORSDOF 12
ENDMDL
MODEL      373
REMARK 921   NORMALIZED FREE ENERGY PREDICTED BY IDOCK:   -2.88 KCAL/MOL
REMARK 922        TOTAL FREE ENERGY PREDICTED BY IDOCK:   -6.75 KCAL/MOL
REMARK 923 INTER-LIGAND FREE ENERGY PREDICTED BY IDOCK:   -6.27 KCAL/MOL
REMARK 924 INTRA-LIGAND FREE ENERGY PREDICTED BY IDOCK:   -0.48 KCAL/MOL
REMARK 927      BINDING AFFINITY PREDICTED BY RF-SCORE:    0.00 PKD
ROOT
HETATM    1  C   UNL     1      -9.678   3.873  66.537  1.00  0.00    -0.186 C  
HETATM    2  C   UNL     1      -9.389   4.778  67.724  1.00  0.00    -0.163 C  
ENDROOT
BRANCH   2   3
HETATM    3  C   UNL     1     -10.625   5.488  68.199  1.00  0.00    -0.207 C  
HETATM    4  C   UNL     1     -10.868   5.877  69.461  1.00  0.00    -0.442 C  
BRANCH   4   5
HETATM    5  C   UNL     1      -9.945   5.629  70.620  1.00  0.00    -0.260 C  
BRANCH   5   6
HETATM    6  C   UNL     1     -10.685   5.268  71.876  1.00  0.00    -0.252 C  
HETATM    7  C   UNL     1     -11.076   6.140  72.822  1.00  0.00    -0.294 C  
BRANCH   7   8
HETATM    8  C   UNL     1     -10.786   7.613  72.772  1.00  0.00    -0.416 C  
BRANCH   8   9
HETATM    9  C   UNL     1      -9.450   7.911  72.159  1.00  0.00    -0.234 C  
HETATM   10  C   UNL     1      -9.200   8.932  71.318  1.00  0.00    -0.328 C  
BRANCH  10  11
HETATM   11  C   UNL     1     -10.228   9.959  70.938  1.00  0.00    -0.039 C  
BRANCH  11  12
HETATM   12  C   UNL     1     -11.332   9.388  70.055  1.00  0.00    -0.172 C  
BRANCH  12  13
HETATM   13  C   UNL     1     -12.704   9.811  70.582  1.00  0.00    -0.157 C  
BRANCH  13  14
HETATM   14  C   UNL     1     -12.564  10.857  71.683  1.00  0.00    -0.431 C  
BRANCH  14  15
HETATM   15  C   UNL     1     -12.881  12.260  71.166  1.00  0.00    -0.302 C  
BRANCH  15  16
HETATM   16  C   UNL     1     -13.723  13.026  72.184  1.00  0.00    -0.547 C  
BRANCH  16  17
HETATM   17  C   UNL     1     -12.910  14.107  72.890  1.00  0.00    -0.433 C  
HETATM   18  C   UNL     1     -13.157  15.473  72.289  1.00  0.00    -0.430 C  
HETATM   19  O   UNL     1     -13.911  15.713  71.360  1.00  0.00    -0.540 OA 
HETATM   20  O   UNL     1     -12.435  16.440  72.901  1.00  0.00    -0.436 OA 
ENDBRANCH  16  17
ENDBRANCH  15  16
ENDBRANCH  14  15
ENDBRANCH  13  14
ENDBRANCH  12  13
ENDBRANCH  11  12
ENDBRANCH  10  11
ENDBRANCH   8   9
ENDBRANCH   7   8
ENDBRANCH   5   6
ENDBRANCH   4   5
ENDBRANCH   2   3
TORSDOF 12
ENDMDL
MODEL      374
REMARK 921   NORMALIZED FREE ENERGY PREDICTED BY IDOCK:   -2.88 KCAL/MOL
REMARK 922        TOTAL FREE ENERGY PREDICTED BY IDOCK:   -6.74 KCAL/MOL
REMARK 923 INTER-LIGAND FREE ENERGY PREDICTED BY IDOCK:   -4.56 KCAL/MOL
REMARK 924 INTRA-LIGAND FREE ENERGY PREDICTED BY IDOCK:   -2.18 KCAL/MOL
REMARK 927      BINDING AFFINITY PREDICTED BY RF-SCORE:    0.00 PKD
ROOT
HETATM    1  C   UNL     1      -9.228   3.501  67.088  1.00  0.00    -0.217 C  
HETATM    2  C   UNL     1      -9.314   4.829  67.824  1.00  0.00    -0.163 C  
ENDROOT
BRANCH   2   3
HETATM    3  C   UNL     1     -10.739   5.258  68.035  1.00  0.00     0.012 C  
HETATM    4  C   UNL     1     -11.165   6.126  68.967  1.00  0.00    -0.375 C  
BRANCH   4   5
HETATM    5  C   UNL     1     -10.277   6.786  69.983  1.00  0.00    -0.211 C  
BRANCH   5   6
HETATM    6  C   UNL     1     -11.036   7.701  70.901  1.00  0.00    -0.275 C  
HETATM    7  C   UNL     1     -11.008   9.044  70.852  1.00  0.00    -0.332 C  
BRANCH   7   8
HETATM    8  C   UNL     1     -10.168   9.828  69.886  1.00  0.00    -0.291 C  
BRANCH   8   9
HETATM    9  C   UNL     1      -8.710   9.795  70.239  1.00  0.00    -0.172 C  
HETATM   10  C   UNL     1      -7.704   9.728  69.349  1.00  0.00    -0.109 C  
BRANCH  10  11
HETATM   11  C   UNL     1      -7.914   9.749  67.862  1.00  0.00    -0.104 C  
BRANCH  11  12
HETATM   12  C   UNL     1      -8.358   8.397  67.312  1.00  0.00    -0.123 C  
BRANCH  12  13
HETATM   13  C   UNL     1      -9.568   8.570  66.392  1.00  0.00    -0.314 C  
BRANCH  13  14
HETATM   14  C   UNL     1      -9.515   9.914  65.673  1.00  0.00    -0.295 C  
BRANCH  14  15
HETATM   15  C   UNL     1     -10.886  10.589  65.646  1.00  0.00     0.054 C  
BRANCH  15  16
HETATM   16  C   UNL     1     -11.127  11.361  66.942  1.00  0.00    -0.356 C  
BRANCH  16  17
HETATM   17  C   UNL     1     -10.360  12.680  66.964  1.00  0.00    -0.241 C  
HETATM   18  C   UNL     1     -11.227  13.836  66.517  1.00  0.00    -0.312 C  
HETATM   19  O   UNL     1     -12.398  13.757  66.181  1.00  0.00    -0.445 OA 
HETATM   20  O   UNL     1     -10.557  15.012  66.524  1.00  0.00    -0.292 OA 
ENDBRANCH  16  17
ENDBRANCH  15  16
ENDBRANCH  14  15
ENDBRANCH  13  14
ENDBRANCH  12  13
ENDBRANCH  11  12
ENDBRANCH  10  11
ENDBRANCH   8   9
ENDBRANCH   7   8
ENDBRANCH   5   6
ENDBRANCH   4   5
ENDBRANCH   2   3
TORSDOF 12
ENDMDL
MODEL      375
REMARK 921   NORMALIZED FREE ENERGY PREDICTED BY IDOCK:   -2.87 KCAL/MOL
REMARK 922        TOTAL FREE ENERGY PREDICTED BY IDOCK:   -6.73 KCAL/MOL
REMARK 923 INTER-LIGAND FREE ENERGY PREDICTED BY IDOCK:   -5.40 KCAL/MOL
REMARK 924 INTRA-LIGAND FREE ENERGY PREDICTED BY IDOCK:   -1.33 KCAL/MOL
REMARK 927      BINDING AFFINITY PREDICTED BY RF-SCORE:    0.00 PKD
ROOT
HETATM    1  C   UNL     1     -10.768   5.726  70.508  1.00  0.00    -0.361 C  
HETATM    2  C   UNL     1      -9.571   6.615  70.806  1.00  0.00    -0.183 C  
ENDROOT
BRANCH   2   3
HETATM    3  C   UNL     1      -9.877   8.064  70.555  1.00  0.00    -0.184 C  
HETATM    4  C   UNL     1      -9.858   8.673  69.358  1.00  0.00    -0.184 C  
BRANCH   4   5
HETATM    5  C   UNL     1      -9.488   7.998  68.068  1.00  0.00    -0.157 C  
BRANCH   5   6
HETATM    6  C   UNL     1      -8.021   8.106  67.763  1.00  0.00    -0.127 C  
HETATM    7  C   UNL     1      -7.472   8.972  66.893  1.00  0.00    -0.090 C  
BRANCH   7   8
HETATM    8  C   UNL     1      -8.267   9.937  66.062  1.00  0.00    -0.119 C  
BRANCH   8   9
HETATM    9  C   UNL     1      -8.230  11.332  66.613  1.00  0.00    -0.164 C  
HETATM   10  C   UNL     1      -9.295  12.146  66.718  1.00  0.00    -0.212 C  
BRANCH  10  11
HETATM   11  C   UNL     1     -10.693  11.729  66.357  1.00  0.00    -0.306 C  
BRANCH  11  12
HETATM   12  C   UNL     1     -11.643  11.764  67.549  1.00  0.00    -0.361 C  
BRANCH  12  13
HETATM   13  C   UNL     1     -11.706  13.175  68.136  1.00  0.00    -0.391 C  
BRANCH  13  14
HETATM   14  C   UNL     1     -12.387  13.165  69.500  1.00  0.00    -0.087 C  
BRANCH  14  15
HETATM   15  C   UNL     1     -11.855  14.281  70.400  1.00  0.00    -0.375 C  
BRANCH  15  16
HETATM   16  C   UNL     1     -12.982  14.864  71.250  1.00  0.00    -0.431 C  
BRANCH  16  17
HETATM   17  C   UNL     1     -12.509  16.057  72.074  1.00  0.00    -0.498 C  
HETATM   18  C   UNL     1     -12.285  15.680  73.522  1.00  0.00    -0.533 C  
HETATM   19  O   UNL     1     -12.446  14.569  73.999  1.00  0.00    -0.403 OA 
HETATM   20  O   UNL     1     -11.872  16.732  74.267  1.00  0.00    -0.229 OA 
ENDBRANCH  16  17
ENDBRANCH  15  16
ENDBRANCH  14  15
ENDBRANCH  13  14
ENDBRANCH  12  13
ENDBRANCH  11  12
ENDBRANCH  10  11
ENDBRANCH   8   9
ENDBRANCH   7   8
ENDBRANCH   5   6
ENDBRANCH   4   5
ENDBRANCH   2   3
TORSDOF 12
ENDMDL
MODEL      376
REMARK 921   NORMALIZED FREE ENERGY PREDICTED BY IDOCK:   -2.86 KCAL/MOL
REMARK 922        TOTAL FREE ENERGY PREDICTED BY IDOCK:   -6.72 KCAL/MOL
REMARK 923 INTER-LIGAND FREE ENERGY PREDICTED BY IDOCK:   -4.96 KCAL/MOL
REMARK 924 INTRA-LIGAND FREE ENERGY PREDICTED BY IDOCK:   -1.76 KCAL/MOL
REMARK 927      BINDING AFFINITY PREDICTED BY RF-SCORE:    0.00 PKD
ROOT
HETATM    1  C   UNL     1      -9.250  13.672  67.520  1.00  0.00    -0.218 C  
HETATM    2  C   UNL     1     -10.670  13.903  68.011  1.00  0.00    -0.255 C  
ENDROOT
BRANCH   2   3
HETATM    3  C   UNL     1     -11.611  12.840  67.518  1.00  0.00    -0.412 C  
HETATM    4  C   UNL     1     -11.870  11.676  68.136  1.00  0.00    -0.315 C  
BRANCH   4   5
HETATM    5  C   UNL     1     -11.224  11.232  69.417  1.00  0.00    -0.345 C  
BRANCH   5   6
HETATM    6  C   UNL     1     -12.230  10.826  70.457  1.00  0.00    -0.457 C  
HETATM    7  C   UNL     1     -12.207   9.672  71.147  1.00  0.00    -0.437 C  
BRANCH   7   8
HETATM    8  C   UNL     1     -11.182   8.595  70.939  1.00  0.00    -0.311 C  
BRANCH   8   9
HETATM    9  C   UNL     1     -11.732   7.224  71.204  1.00  0.00    -0.334 C  
HETATM   10  C   UNL     1     -11.517   6.512  72.325  1.00  0.00    -0.326 C  
BRANCH  10  11
HETATM   11  C   UNL     1     -10.745   7.038  73.502  1.00  0.00    -0.368 C  
BRANCH  11  12
HETATM   12  C   UNL     1      -9.804   5.998  74.099  1.00  0.00    -0.228 C  
BRANCH  12  13
HETATM   13  C   UNL     1      -8.436   6.620  74.382  1.00  0.00    -0.163 C  
BRANCH  13  14
HETATM   14  C   UNL     1      -7.905   7.346  73.150  1.00  0.00    -0.117 C  
BRANCH  14  15
HETATM   15  C   UNL     1      -7.270   6.374  72.157  1.00  0.00    -0.087 C  
BRANCH  15  16
HETATM   16  C   UNL     1      -7.964   6.468  70.800  1.00  0.00    -0.115 C  
BRANCH  16  17
HETATM   17  C   UNL     1      -7.726   7.821  70.136  1.00  0.00    -0.090 C  
HETATM   18  C   UNL     1      -8.510   7.956  68.850  1.00  0.00    -0.128 C  
HETATM   19  O   UNL     1      -9.254   7.110  68.379  1.00  0.00    -0.135 OA 
HETATM   20  O   UNL     1      -8.301   9.149  68.245  1.00  0.00    -0.118 OA 
ENDBRANCH  16  17
ENDBRANCH  15  16
ENDBRANCH  14  15
ENDBRANCH  13  14
ENDBRANCH  12  13
ENDBRANCH  11  12
ENDBRANCH  10  11
ENDBRANCH   8   9
ENDBRANCH   7   8
ENDBRANCH   5   6
ENDBRANCH   4   5
ENDBRANCH   2   3
TORSDOF 12
ENDMDL
MODEL      377
REMARK 921   NORMALIZED FREE ENERGY PREDICTED BY IDOCK:   -2.85 KCAL/MOL
REMARK 922        TOTAL FREE ENERGY PREDICTED BY IDOCK:   -6.70 KCAL/MOL
REMARK 923 INTER-LIGAND FREE ENERGY PREDICTED BY IDOCK:   -4.75 KCAL/MOL
REMARK 924 INTRA-LIGAND FREE ENERGY PREDICTED BY IDOCK:   -1.94 KCAL/MOL
REMARK 927      BINDING AFFINITY PREDICTED BY RF-SCORE:    0.00 PKD
ROOT
HETATM    1  C   UNL     1     -10.567   8.925  71.688  1.00  0.00    -0.422 C  
HETATM    2  C   UNL     1     -11.783   8.153  71.200  1.00  0.00    -0.309 C  
ENDROOT
BRANCH   2   3
HETATM    3  C   UNL     1     -11.536   6.671  71.189  1.00  0.00    -0.370 C  
HETATM    4  C   UNL     1     -11.265   5.931  70.101  1.00  0.00    -0.338 C  
BRANCH   4   5
HETATM    5  C   UNL     1     -11.203   6.470  68.701  1.00  0.00    -0.302 C  
BRANCH   5   6
HETATM    6  C   UNL     1      -9.826   6.941  68.328  1.00  0.00    -0.141 C  
HETATM    7  C   UNL     1      -9.546   8.103  67.713  1.00  0.00    -0.180 C  
BRANCH   7   8
HETATM    8  C   UNL     1     -10.590   9.087  67.269  1.00  0.00    -0.301 C  
BRANCH   8   9
HETATM    9  C   UNL     1     -10.787  10.197  68.259  1.00  0.00    -0.297 C  
HETATM   10  C   UNL     1     -10.021  11.300  68.340  1.00  0.00    -0.201 C  
BRANCH  10  11
HETATM   11  C   UNL     1      -8.897  11.597  67.388  1.00  0.00    -0.160 C  
BRANCH  11  12
HETATM   12  C   UNL     1      -7.557  11.053  67.873  1.00  0.00    -0.095 C  
BRANCH  12  13
HETATM   13  C   UNL     1      -6.786  12.136  68.627  1.00  0.00    -0.089 C  
BRANCH  13  14
HETATM   14  C   UNL     1      -6.800  13.451  67.853  1.00  0.00    -0.144 C  
BRANCH  14  15
HETATM   15  C   UNL     1      -7.302  14.606  68.719  1.00  0.00    -0.131 C  
BRANCH  15  16
HETATM   16  C   UNL     1      -8.276  15.479  67.932  1.00  0.00    -0.149 C  
BRANCH  16  17
HETATM   17  C   UNL     1      -9.541  15.775  68.731  1.00  0.00    -0.216 C  
HETATM   18  C   UNL     1     -10.771  15.208  68.059  1.00  0.00    -0.264 C  
HETATM   19  O   UNL     1     -10.782  14.580  67.012  1.00  0.00    -0.283 OA 
HETATM   20  O   UNL     1     -11.903  15.471  68.753  1.00  0.00    -0.356 OA 
ENDBRANCH  16  17
ENDBRANCH  15  16
ENDBRANCH  14  15
ENDBRANCH  13  14
ENDBRANCH  12  13
ENDBRANCH  11  12
ENDBRANCH  10  11
ENDBRANCH   8   9
ENDBRANCH   7   8
ENDBRANCH   5   6
ENDBRANCH   4   5
ENDBRANCH   2   3
TORSDOF 12
ENDMDL
MODEL      378
REMARK 921   NORMALIZED FREE ENERGY PREDICTED BY IDOCK:   -2.84 KCAL/MOL
REMARK 922        TOTAL FREE ENERGY PREDICTED BY IDOCK:   -6.68 KCAL/MOL
REMARK 923 INTER-LIGAND FREE ENERGY PREDICTED BY IDOCK:   -5.73 KCAL/MOL
REMARK 924 INTRA-LIGAND FREE ENERGY PREDICTED BY IDOCK:   -0.95 KCAL/MOL
REMARK 927      BINDING AFFINITY PREDICTED BY RF-SCORE:    0.00 PKD
ROOT
HETATM    1  C   UNL     1     -13.688  13.092  72.216  1.00  0.00    -0.647 C  
HETATM    2  C   UNL     1     -14.306  14.432  71.847  1.00  0.00    -0.627 C  
ENDROOT
BRANCH   2   3
HETATM    3  C   UNL     1     -13.280  15.529  71.815  1.00  0.00    -0.567 C  
HETATM    4  C   UNL     1     -12.323  15.679  70.884  1.00  0.00    -0.479 C  
BRANCH   4   5
HETATM    5  C   UNL     1     -12.102  14.740  69.732  1.00  0.00    -0.364 C  
BRANCH   5   6
HETATM    6  C   UNL     1     -11.773  15.462  68.457  1.00  0.00    -0.355 C  
HETATM    7  C   UNL     1     -11.761  14.906  67.233  1.00  0.00    -0.308 C  
BRANCH   7   8
HETATM    8  C   UNL     1     -12.038  13.453  66.973  1.00  0.00    -0.390 C  
BRANCH   8   9
HETATM    9  C   UNL     1     -11.311  12.940  65.765  1.00  0.00    -0.349 C  
HETATM   10  C   UNL     1     -10.121  12.313  65.793  1.00  0.00    -0.274 C  
BRANCH  10  11
HETATM   11  C   UNL     1      -9.392  11.981  67.063  1.00  0.00    -0.191 C  
BRANCH  11  12
HETATM   12  C   UNL     1      -9.186  10.481  67.248  1.00  0.00    -0.156 C  
BRANCH  12  13
HETATM   13  C   UNL     1     -10.399   9.861  67.942  1.00  0.00    -0.256 C  
BRANCH  13  14
HETATM   14  C   UNL     1     -10.017   8.562  68.645  1.00  0.00    -0.197 C  
BRANCH  14  15
HETATM   15  C   UNL     1     -10.082   7.369  67.691  1.00  0.00    -0.240 C  
BRANCH  15  16
HETATM   16  C   UNL     1      -9.049   6.315  68.084  1.00  0.00    -0.112 C  
BRANCH  16  17
HETATM   17  C   UNL     1      -7.624   6.818  67.880  1.00  0.00    -0.107 C  
HETATM   18  C   UNL     1      -6.649   5.674  67.710  1.00  0.00    -0.053 C  
HETATM   19  O   UNL     1      -6.937   4.487  67.723  1.00  0.00    -0.058 OA 
HETATM   20  O   UNL     1      -5.378   6.105  67.536  1.00  0.00    -0.004 OA 
ENDBRANCH  16  17
ENDBRANCH  15  16
ENDBRANCH  14  15
ENDBRANCH  13  14
ENDBRANCH  12  13
ENDBRANCH  11  12
ENDBRANCH  10  11
ENDBRANCH   8   9
ENDBRANCH   7   8
ENDBRANCH   5   6
ENDBRANCH   4   5
ENDBRANCH   2   3
TORSDOF 12
ENDMDL
MODEL      379
REMARK 921   NORMALIZED FREE ENERGY PREDICTED BY IDOCK:   -2.83 KCAL/MOL
REMARK 922        TOTAL FREE ENERGY PREDICTED BY IDOCK:   -6.65 KCAL/MOL
REMARK 923 INTER-LIGAND FREE ENERGY PREDICTED BY IDOCK:   -5.64 KCAL/MOL
REMARK 924 INTRA-LIGAND FREE ENERGY PREDICTED BY IDOCK:   -1.02 KCAL/MOL
REMARK 927      BINDING AFFINITY PREDICTED BY RF-SCORE:    0.00 PKD
ROOT
HETATM    1  C   UNL     1      -5.819   9.179  67.829  1.00  0.00    -0.042 C  
HETATM    2  C   UNL     1      -5.790   8.113  68.912  1.00  0.00    -0.035 C  
ENDROOT
BRANCH   2   3
HETATM    3  C   UNL     1      -6.506   8.560  70.155  1.00  0.00    -0.038 C  
HETATM    4  C   UNL     1      -7.581   7.965  70.697  1.00  0.00    -0.077 C  
BRANCH   4   5
HETATM    5  C   UNL     1      -8.269   6.762  70.116  1.00  0.00    -0.133 C  
BRANCH   5   6
HETATM    6  C   UNL     1      -9.371   7.133  69.166  1.00  0.00    -0.141 C  
HETATM    7  C   UNL     1     -10.682   7.138  69.466  1.00  0.00    -0.255 C  
BRANCH   7   8
HETATM    8  C   UNL     1     -11.236   6.726  70.799  1.00  0.00    -0.352 C  
BRANCH   8   9
HETATM    9  C   UNL     1     -10.934   7.726  71.877  1.00  0.00    -0.294 C  
HETATM   10  C   UNL     1     -11.396   8.989  71.905  1.00  0.00    -0.438 C  
BRANCH  10  11
HETATM   11  C   UNL     1     -12.344   9.545  70.880  1.00  0.00    -0.305 C  
BRANCH  11  12
HETATM   12  C   UNL     1     -11.787  10.775  70.171  1.00  0.00    -0.427 C  
BRANCH  12  13
HETATM   13  C   UNL     1     -11.230  10.390  68.800  1.00  0.00    -0.295 C  
BRANCH  13  14
HETATM   14  C   UNL     1     -10.592  11.595  68.116  1.00  0.00    -0.230 C  
BRANCH  14  15
HETATM   15  C   UNL     1     -11.440  12.854  68.293  1.00  0.00    -0.348 C  
BRANCH  15  16
HETATM   16  C   UNL     1     -11.926  13.364  66.938  1.00  0.00    -0.437 C  
BRANCH  16  17
HETATM   17  C   UNL     1     -11.205  14.644  66.524  1.00  0.00    -0.346 C  
HETATM   18  C   UNL     1     -11.382  14.932  65.050  1.00  0.00    -0.398 C  
HETATM   19  O   UNL     1     -12.021  14.250  64.265  1.00  0.00    -0.446 OA 
HETATM   20  O   UNL     1     -10.740  16.061  64.668  1.00  0.00    -0.601 OA 
ENDBRANCH  16  17
ENDBRANCH  15  16
ENDBRANCH  14  15
ENDBRANCH  13  14
ENDBRANCH  12  13
ENDBRANCH  11  12
ENDBRANCH  10  11
ENDBRANCH   8   9
ENDBRANCH   7   8
ENDBRANCH   5   6
ENDBRANCH   4   5
ENDBRANCH   2   3
TORSDOF 12
ENDMDL
MODEL      380
REMARK 921   NORMALIZED FREE ENERGY PREDICTED BY IDOCK:   -2.82 KCAL/MOL
REMARK 922        TOTAL FREE ENERGY PREDICTED BY IDOCK:   -6.64 KCAL/MOL
REMARK 923 INTER-LIGAND FREE ENERGY PREDICTED BY IDOCK:   -5.91 KCAL/MOL
REMARK 924 INTRA-LIGAND FREE ENERGY PREDICTED BY IDOCK:   -0.73 KCAL/MOL
REMARK 927      BINDING AFFINITY PREDICTED BY RF-SCORE:    0.00 PKD
ROOT
HETATM    1  C   UNL     1      -9.625   6.194  71.653  1.00  0.00    -0.166 C  
HETATM    2  C   UNL     1     -10.517   7.174  70.909  1.00  0.00    -0.225 C  
ENDROOT
BRANCH   2   3
HETATM    3  C   UNL     1     -11.075   6.575  69.649  1.00  0.00    -0.435 C  
HETATM    4  C   UNL     1     -10.549   6.707  68.420  1.00  0.00    -0.289 C  
BRANCH   4   5
HETATM    5  C   UNL     1      -9.324   7.516  68.101  1.00  0.00    -0.137 C  
BRANCH   5   6
HETATM    6  C   UNL     1      -9.445   8.943  68.554  1.00  0.00    -0.152 C  
HETATM    7  C   UNL     1      -9.566  10.006  67.739  1.00  0.00    -0.168 C  
BRANCH   7   8
HETATM    8  C   UNL     1      -9.555   9.915  66.240  1.00  0.00    -0.265 C  
BRANCH   8   9
HETATM    9  C   UNL     1      -9.202  11.221  65.591  1.00  0.00    -0.231 C  
HETATM   10  C   UNL     1     -10.039  12.266  65.462  1.00  0.00    -0.279 C  
BRANCH  10  11
HETATM   11  C   UNL     1     -11.433  12.283  66.023  1.00  0.00    -0.434 C  
BRANCH  11  12
HETATM   12  C   UNL     1     -12.230  13.505  65.581  1.00  0.00    -0.500 C  
BRANCH  12  13
HETATM   13  C   UNL     1     -11.397  14.775  65.761  1.00  0.00    -0.336 C  
BRANCH  13  14
HETATM   14  C   UNL     1     -11.306  15.160  67.235  1.00  0.00    -0.305 C  
BRANCH  14  15
HETATM   15  C   UNL     1      -9.871  15.494  67.639  1.00  0.00    -0.213 C  
BRANCH  15  16
HETATM   16  C   UNL     1      -9.800  16.892  68.248  1.00  0.00    -0.266 C  
BRANCH  16  17
HETATM   17  C   UNL     1      -8.696  17.731  67.610  1.00  0.00    -0.244 C  
HETATM   18  C   UNL     1      -9.196  18.475  66.392  1.00  0.00    -0.277 C  
HETATM   19  O   UNL     1     -10.335  18.436  65.954  1.00  0.00    -0.545 OA 
HETATM   20  O   UNL     1      -8.225  19.217  65.811  1.00  0.00    -0.445 OA 
ENDBRANCH  16  17
ENDBRANCH  15  16
ENDBRANCH  14  15
ENDBRANCH  13  14
ENDBRANCH  12  13
ENDBRANCH  11  12
ENDBRANCH  10  11
ENDBRANCH   8   9
ENDBRANCH   7   8
ENDBRANCH   5   6
ENDBRANCH   4   5
ENDBRANCH   2   3
TORSDOF 12
ENDMDL
MODEL      381
REMARK 921   NORMALIZED FREE ENERGY PREDICTED BY IDOCK:   -2.82 KCAL/MOL
REMARK 922        TOTAL FREE ENERGY PREDICTED BY IDOCK:   -6.64 KCAL/MOL
REMARK 923 INTER-LIGAND FREE ENERGY PREDICTED BY IDOCK:   -4.54 KCAL/MOL
REMARK 924 INTRA-LIGAND FREE ENERGY PREDICTED BY IDOCK:   -2.09 KCAL/MOL
REMARK 927      BINDING AFFINITY PREDICTED BY RF-SCORE:    0.00 PKD
ROOT
HETATM    1  C   UNL     1     -10.587   8.445  68.847  1.00  0.00    -0.162 C  
HETATM    2  C   UNL     1      -9.477   9.448  68.572  1.00  0.00    -0.150 C  
ENDROOT
BRANCH   2   3
HETATM    3  C   UNL     1     -10.019  10.828  68.329  1.00  0.00    -0.182 C  
HETATM    4  C   UNL     1      -9.416  11.791  67.613  1.00  0.00    -0.180 C  
BRANCH   4   5
HETATM    5  C   UNL     1      -8.069  11.650  66.964  1.00  0.00    -0.164 C  
BRANCH   5   6
HETATM    6  C   UNL     1      -6.943  11.991  67.897  1.00  0.00    -0.095 C  
HETATM    7  C   UNL     1      -6.514  13.236  68.171  1.00  0.00    -0.112 C  
BRANCH   7   8
HETATM    8  C   UNL     1      -7.083  14.473  67.539  1.00  0.00    -0.199 C  
BRANCH   8   9
HETATM    9  C   UNL     1      -7.504  15.493  68.556  1.00  0.00    -0.118 C  
HETATM   10  C   UNL     1      -7.350  16.823  68.421  1.00  0.00    -0.198 C  
BRANCH  10  11
HETATM   11  C   UNL     1      -6.792  17.469  67.185  1.00  0.00    -0.196 C  
BRANCH  11  12
HETATM   12  C   UNL     1      -7.847  17.678  66.104  1.00  0.00    -0.269 C  
BRANCH  12  13
HETATM   13  C   UNL     1      -9.010  18.506  66.650  1.00  0.00    -0.298 C  
BRANCH  13  14
HETATM   14  C   UNL     1     -10.348  17.871  66.284  1.00  0.00    -0.364 C  
BRANCH  14  15
HETATM   15  C   UNL     1     -10.181  16.405  65.886  1.00  0.00    -0.379 C  
BRANCH  15  16
HETATM   16  C   UNL     1     -10.772  15.490  66.957  1.00  0.00    -0.321 C  
BRANCH  16  17
HETATM   17  C   UNL     1     -11.282  16.282  68.157  1.00  0.00    -0.298 C  
HETATM   18  C   UNL     1     -11.253  15.455  69.423  1.00  0.00    -0.296 C  
HETATM   19  O   UNL     1     -10.869  14.299  69.507  1.00  0.00    -0.210 OA 
HETATM   20  O   UNL     1     -11.711  16.143  70.495  1.00  0.00    -0.352 OA 
ENDBRANCH  16  17
ENDBRANCH  15  16
ENDBRANCH  14  15
ENDBRANCH  13  14
ENDBRANCH  12  13
ENDBRANCH  11  12
ENDBRANCH  10  11
ENDBRANCH   8   9
ENDBRANCH   7   8
ENDBRANCH   5   6
ENDBRANCH   4   5
ENDBRANCH   2   3
TORSDOF 12
ENDMDL
MODEL      382
REMARK 921   NORMALIZED FREE ENERGY PREDICTED BY IDOCK:   -2.81 KCAL/MOL
REMARK 922        TOTAL FREE ENERGY PREDICTED BY IDOCK:   -6.63 KCAL/MOL
REMARK 923 INTER-LIGAND FREE ENERGY PREDICTED BY IDOCK:   -5.87 KCAL/MOL
REMARK 924 INTRA-LIGAND FREE ENERGY PREDICTED BY IDOCK:   -0.76 KCAL/MOL
REMARK 927      BINDING AFFINITY PREDICTED BY RF-SCORE:    0.00 PKD
ROOT
HETATM    1  C   UNL     1      -9.971  19.879  67.610  1.00  0.00    -0.553 C  
HETATM    2  C   UNL     1     -10.708  18.608  67.220  1.00  0.00    -0.449 C  
ENDROOT
BRANCH   2   3
HETATM    3  C   UNL     1      -9.888  17.747  66.301  1.00  0.00    -0.301 C  
HETATM    4  C   UNL     1      -9.995  16.414  66.173  1.00  0.00    -0.360 C  
BRANCH   4   5
HETATM    5  C   UNL     1     -10.939  15.557  66.968  1.00  0.00    -0.283 C  
BRANCH   5   6
HETATM    6  C   UNL     1     -11.701  14.592  66.106  1.00  0.00    -0.355 C  
HETATM    7  C   UNL     1     -12.109  13.368  66.488  1.00  0.00    -0.444 C  
BRANCH   7   8
HETATM    8  C   UNL     1     -11.817  12.774  67.836  1.00  0.00    -0.392 C  
BRANCH   8   9
HETATM    9  C   UNL     1     -10.994  11.523  67.742  1.00  0.00    -0.291 C  
HETATM   10  C   UNL     1     -10.869  10.609  68.721  1.00  0.00    -0.269 C  
BRANCH  10  11
HETATM   11  C   UNL     1     -11.606  10.692  70.028  1.00  0.00    -0.406 C  
BRANCH  11  12
HETATM   12  C   UNL     1     -11.328   9.500  70.937  1.00  0.00    -0.410 C  
BRANCH  12  13
HETATM   13  C   UNL     1     -10.100   8.733  70.445  1.00  0.00    -0.223 C  
BRANCH  13  14
HETATM   14  C   UNL     1     -10.440   7.267  70.193  1.00  0.00    -0.229 C  
BRANCH  14  15
HETATM   15  C   UNL     1      -9.361   6.576  69.360  1.00  0.00    -0.143 C  
BRANCH  15  16
HETATM   16  C   UNL     1      -9.997   5.640  68.335  1.00  0.00    -0.201 C  
BRANCH  16  17
HETATM   17  C   UNL     1      -9.593   4.188  68.569  1.00  0.00    -0.192 C  
HETATM   18  C   UNL     1      -9.629   3.386  67.287  1.00  0.00    -0.089 C  
HETATM   19  O   UNL     1      -9.933   3.819  66.187  1.00  0.00    -0.124 OA 
HETATM   20  O   UNL     1      -9.281   2.092  67.482  1.00  0.00    -0.156 OA 
ENDBRANCH  16  17
ENDBRANCH  15  16
ENDBRANCH  14  15
ENDBRANCH  13  14
ENDBRANCH  12  13
ENDBRANCH  11  12
ENDBRANCH  10  11
ENDBRANCH   8   9
ENDBRANCH   7   8
ENDBRANCH   5   6
ENDBRANCH   4   5
ENDBRANCH   2   3
TORSDOF 12
ENDMDL
MODEL      383
REMARK 921   NORMALIZED FREE ENERGY PREDICTED BY IDOCK:   -2.81 KCAL/MOL
REMARK 922        TOTAL FREE ENERGY PREDICTED BY IDOCK:   -6.62 KCAL/MOL
REMARK 923 INTER-LIGAND FREE ENERGY PREDICTED BY IDOCK:   -5.88 KCAL/MOL
REMARK 924 INTRA-LIGAND FREE ENERGY PREDICTED BY IDOCK:   -0.75 KCAL/MOL
REMARK 927      BINDING AFFINITY PREDICTED BY RF-SCORE:    0.00 PKD
ROOT
HETATM    1  C   UNL     1     -12.800  13.347  71.655  1.00  0.00    -0.414 C  
HETATM    2  C   UNL     1     -13.462  14.676  71.326  1.00  0.00    -0.451 C  
ENDROOT
BRANCH   2   3
HETATM    3  C   UNL     1     -12.473  15.676  70.798  1.00  0.00    -0.484 C  
HETATM    4  C   UNL     1     -11.779  15.561  69.653  1.00  0.00    -0.371 C  
BRANCH   4   5
HETATM    5  C   UNL     1     -11.856  14.381  68.727  1.00  0.00    -0.360 C  
BRANCH   5   6
HETATM    6  C   UNL     1     -11.649  14.765  67.290  1.00  0.00    -0.385 C  
HETATM    7  C   UNL     1     -11.689  13.915  66.248  1.00  0.00    -0.402 C  
BRANCH   7   8
HETATM    8  C   UNL     1     -11.906  12.435  66.385  1.00  0.00    -0.421 C  
BRANCH   8   9
HETATM    9  C   UNL     1     -11.241  11.656  65.289  1.00  0.00    -0.263 C  
HETATM   10  C   UNL     1     -10.109  10.943  65.430  1.00  0.00    -0.336 C  
BRANCH  10  11
HETATM   11  C   UNL     1      -9.395  10.777  66.741  1.00  0.00    -0.182 C  
BRANCH  11  12
HETATM   12  C   UNL     1      -9.247   9.315  67.149  1.00  0.00    -0.157 C  
BRANCH  12  13
HETATM   13  C   UNL     1     -10.499   8.841  67.887  1.00  0.00    -0.275 C  
BRANCH  13  14
HETATM   14  C   UNL     1     -10.394   7.360  68.238  1.00  0.00    -0.231 C  
BRANCH  14  15
HETATM   15  C   UNL     1     -10.928   6.478  67.110  1.00  0.00    -0.480 C  
BRANCH  15  16
HETATM   16  C   UNL     1     -10.206   5.132  67.098  1.00  0.00    -0.254 C  
BRANCH  16  17
HETATM   17  C   UNL     1      -9.992   4.593  68.509  1.00  0.00    -0.130 C  
HETATM   18  C   UNL     1      -9.020   3.434  68.521  1.00  0.00    -0.134 C  
HETATM   19  O   UNL     1      -8.456   2.970  67.543  1.00  0.00    -0.081 OA 
HETATM   20  O   UNL     1      -8.827   2.940  69.767  1.00  0.00    -0.068 OA 
ENDBRANCH  16  17
ENDBRANCH  15  16
ENDBRANCH  14  15
ENDBRANCH  13  14
ENDBRANCH  12  13
ENDBRANCH  11  12
ENDBRANCH  10  11
ENDBRANCH   8   9
ENDBRANCH   7   8
ENDBRANCH   5   6
ENDBRANCH   4   5
ENDBRANCH   2   3
TORSDOF 12
ENDMDL
MODEL      384
REMARK 921   NORMALIZED FREE ENERGY PREDICTED BY IDOCK:   -2.80 KCAL/MOL
REMARK 922        TOTAL FREE ENERGY PREDICTED BY IDOCK:   -6.60 KCAL/MOL
REMARK 923 INTER-LIGAND FREE ENERGY PREDICTED BY IDOCK:   -5.49 KCAL/MOL
REMARK 924 INTRA-LIGAND FREE ENERGY PREDICTED BY IDOCK:   -1.11 KCAL/MOL
REMARK 927      BINDING AFFINITY PREDICTED BY RF-SCORE:    0.00 PKD
ROOT
HETATM    1  C   UNL     1     -11.243   9.809  70.409  1.00  0.00    -0.362 C  
HETATM    2  C   UNL     1     -12.515  10.609  70.172  1.00  0.00    -0.342 C  
ENDROOT
BRANCH   2   3
HETATM    3  C   UNL     1     -12.876  11.447  71.365  1.00  0.00    -0.502 C  
HETATM    4  C   UNL     1     -12.833  12.789  71.421  1.00  0.00    -0.371 C  
BRANCH   4   5
HETATM    5  C   UNL     1     -12.377  13.672  70.295  1.00  0.00    -0.392 C  
BRANCH   5   6
HETATM    6  C   UNL     1     -12.389  15.128  70.666  1.00  0.00    -0.420 C  
HETATM    7  C   UNL     1     -11.466  16.031  70.289  1.00  0.00    -0.369 C  
BRANCH   7   8
HETATM    8  C   UNL     1     -10.254  15.694  69.469  1.00  0.00    -0.277 C  
BRANCH   8   9
HETATM    9  C   UNL     1     -10.309  16.295  68.096  1.00  0.00    -0.277 C  
HETATM   10  C   UNL     1     -10.595  15.617  66.970  1.00  0.00    -0.311 C  
BRANCH  10  11
HETATM   11  C   UNL     1     -10.972  14.162  66.955  1.00  0.00    -0.302 C  
BRANCH  11  12
HETATM   12  C   UNL     1      -9.895  13.270  67.563  1.00  0.00    -0.220 C  
BRANCH  12  13
HETATM   13  C   UNL     1     -10.229  11.797  67.322  1.00  0.00    -0.226 C  
BRANCH  13  14
HETATM   14  C   UNL     1      -9.999  11.420  65.862  1.00  0.00    -0.274 C  
BRANCH  14  15
HETATM   15  C   UNL     1      -9.979   9.904  65.672  1.00  0.00    -0.353 C  
BRANCH  15  16
HETATM   16  C   UNL     1      -8.803   9.286  66.424  1.00  0.00    -0.169 C  
BRANCH  16  17
HETATM   17  C   UNL     1      -7.608  10.233  66.480  1.00  0.00    -0.113 C  
HETATM   18  C   UNL     1      -7.148  10.468  67.901  1.00  0.00    -0.083 C  
HETATM   19  O   UNL     1      -7.645   9.971  68.900  1.00  0.00    -0.078 OA 
HETATM   20  O   UNL     1      -6.093  11.313  67.966  1.00  0.00    -0.049 OA 
ENDBRANCH  16  17
ENDBRANCH  15  16
ENDBRANCH  14  15
ENDBRANCH  13  14
ENDBRANCH  12  13
ENDBRANCH  11  12
ENDBRANCH  10  11
ENDBRANCH   8   9
ENDBRANCH   7   8
ENDBRANCH   5   6
ENDBRANCH   4   5
ENDBRANCH   2   3
TORSDOF 12
ENDMDL
MODEL      385
REMARK 921   NORMALIZED FREE ENERGY PREDICTED BY IDOCK:   -2.79 KCAL/MOL
REMARK 922        TOTAL FREE ENERGY PREDICTED BY IDOCK:   -6.58 KCAL/MOL
REMARK 923 INTER-LIGAND FREE ENERGY PREDICTED BY IDOCK:   -4.61 KCAL/MOL
REMARK 924 INTRA-LIGAND FREE ENERGY PREDICTED BY IDOCK:   -1.97 KCAL/MOL
REMARK 927      BINDING AFFINITY PREDICTED BY RF-SCORE:    0.00 PKD
ROOT
HETATM    1  C   UNL     1      -7.598   3.651  65.077  1.00  0.00    -0.074 C  
HETATM    2  C   UNL     1      -7.543   2.753  66.303  1.00  0.00    -0.076 C  
ENDROOT
BRANCH   2   3
HETATM    3  C   UNL     1      -8.917   2.387  66.788  1.00  0.00    -0.142 C  
HETATM    4  C   UNL     1      -9.363   2.519  68.048  1.00  0.00    -0.254 C  
BRANCH   4   5
HETATM    5  C   UNL     1      -8.535   3.027  69.194  1.00  0.00    -0.098 C  
BRANCH   5   6
HETATM    6  C   UNL     1      -9.323   3.132  70.469  1.00  0.00    -0.227 C  
HETATM    7  C   UNL     1      -9.884   4.259  70.942  1.00  0.00    -0.259 C  
BRANCH   7   8
HETATM    8  C   UNL     1      -9.763   5.597  70.272  1.00  0.00    -0.232 C  
BRANCH   8   9
HETATM    9  C   UNL     1     -10.926   5.891  69.370  1.00  0.00    -0.421 C  
HETATM   10  C   UNL     1     -10.835   6.117  68.047  1.00  0.00    -0.398 C  
BRANCH  10  11
HETATM   11  C   UNL     1      -9.545   6.032  67.281  1.00  0.00    -0.124 C  
BRANCH  11  12
HETATM   12  C   UNL     1      -9.193   7.337  66.575  1.00  0.00    -0.195 C  
BRANCH  12  13
HETATM   13  C   UNL     1      -8.650   8.353  67.581  1.00  0.00    -0.130 C  
BRANCH  13  14
HETATM   14  C   UNL     1      -9.090   9.767  67.215  1.00  0.00    -0.150 C  
BRANCH  14  15
HETATM   15  C   UNL     1     -10.353  10.174  67.973  1.00  0.00    -0.227 C  
BRANCH  15  16
HETATM   16  C   UNL     1     -11.129  11.230  67.188  1.00  0.00    -0.364 C  
BRANCH  16  17
HETATM   17  C   UNL     1     -10.794  11.187  65.700  1.00  0.00    -0.206 C  
HETATM   18  C   UNL     1     -11.184  12.472  65.004  1.00  0.00    -0.306 C  
HETATM   19  O   UNL     1     -11.697  13.443  65.540  1.00  0.00    -0.319 OA 
HETATM   20  O   UNL     1     -10.901  12.445  63.681  1.00  0.00    -0.411 OA 
ENDBRANCH  16  17
ENDBRANCH  15  16
ENDBRANCH  14  15
ENDBRANCH  13  14
ENDBRANCH  12  13
ENDBRANCH  11  12
ENDBRANCH  10  11
ENDBRANCH   8   9
ENDBRANCH   7   8
ENDBRANCH   5   6
ENDBRANCH   4   5
ENDBRANCH   2   3
TORSDOF 12
ENDMDL
MODEL      386
REMARK 921   NORMALIZED FREE ENERGY PREDICTED BY IDOCK:   -2.77 KCAL/MOL
REMARK 922        TOTAL FREE ENERGY PREDICTED BY IDOCK:   -6.56 KCAL/MOL
REMARK 923 INTER-LIGAND FREE ENERGY PREDICTED BY IDOCK:   -5.03 KCAL/MOL
REMARK 924 INTRA-LIGAND FREE ENERGY PREDICTED BY IDOCK:   -1.53 KCAL/MOL
REMARK 927      BINDING AFFINITY PREDICTED BY RF-SCORE:    0.00 PKD
ROOT
HETATM    1  C   UNL     1     -10.588   5.633  70.517  1.00  0.00    -0.354 C  
HETATM    2  C   UNL     1      -9.263   6.361  70.680  1.00  0.00    -0.162 C  
ENDROOT
BRANCH   2   3
HETATM    3  C   UNL     1      -9.389   7.825  70.366  1.00  0.00    -0.160 C  
HETATM    4  C   UNL     1      -9.382   8.365  69.136  1.00  0.00    -0.151 C  
BRANCH   4   5
HETATM    5  C   UNL     1      -9.210   7.583  67.865  1.00  0.00    -0.137 C  
BRANCH   5   6
HETATM    6  C   UNL     1      -7.787   7.573  67.385  1.00  0.00    -0.118 C  
HETATM    7  C   UNL     1      -7.321   8.263  66.329  1.00  0.00    -0.078 C  
BRANCH   7   8
HETATM    8  C   UNL     1      -8.181   9.118  65.444  1.00  0.00    -0.131 C  
BRANCH   8   9
HETATM    9  C   UNL     1      -8.086  10.575  65.789  1.00  0.00    -0.158 C  
HETATM   10  C   UNL     1      -9.138  11.381  66.023  1.00  0.00    -0.218 C  
BRANCH  10  11
HETATM   11  C   UNL     1     -10.561  10.899  66.037  1.00  0.00    -0.254 C  
BRANCH  11  12
HETATM   12  C   UNL     1     -11.172  10.912  67.434  1.00  0.00    -0.345 C  
BRANCH  12  13
HETATM   13  C   UNL     1     -11.571  12.336  67.824  1.00  0.00    -0.416 C  
BRANCH  13  14
HETATM   14  C   UNL     1     -11.668  12.475  69.340  1.00  0.00    -0.383 C  
BRANCH  14  15
HETATM   15  C   UNL     1     -11.735  13.942  69.764  1.00  0.00    -0.372 C  
BRANCH  15  16
HETATM   16  C   UNL     1     -10.867  14.803  68.849  1.00  0.00    -0.259 C  
BRANCH  16  17
HETATM   17  C   UNL     1     -10.599  16.178  69.454  1.00  0.00    -0.300 C  
HETATM   18  C   UNL     1     -10.530  17.250  68.390  1.00  0.00    -0.381 C  
HETATM   19  O   UNL     1     -10.673  17.071  67.190  1.00  0.00    -0.282 OA 
HETATM   20  O   UNL     1     -10.284  18.475  68.911  1.00  0.00    -0.374 OA 
ENDBRANCH  16  17
ENDBRANCH  15  16
ENDBRANCH  14  15
ENDBRANCH  13  14
ENDBRANCH  12  13
ENDBRANCH  11  12
ENDBRANCH  10  11
ENDBRANCH   8   9
ENDBRANCH   7   8
ENDBRANCH   5   6
ENDBRANCH   4   5
ENDBRANCH   2   3
TORSDOF 12
ENDMDL
MODEL      387
REMARK 921   NORMALIZED FREE ENERGY PREDICTED BY IDOCK:   -2.77 KCAL/MOL
REMARK 922        TOTAL FREE ENERGY PREDICTED BY IDOCK:   -6.55 KCAL/MOL
REMARK 923 INTER-LIGAND FREE ENERGY PREDICTED BY IDOCK:   -4.97 KCAL/MOL
REMARK 924 INTRA-LIGAND FREE ENERGY PREDICTED BY IDOCK:   -1.58 KCAL/MOL
REMARK 927      BINDING AFFINITY PREDICTED BY RF-SCORE:    0.00 PKD
ROOT
HETATM    1  C   UNL     1      -7.181  11.060  69.007  1.00  0.00    -0.111 C  
HETATM    2  C   UNL     1      -7.070  12.370  68.244  1.00  0.00    -0.098 C  
ENDROOT
BRANCH   2   3
HETATM    3  C   UNL     1      -5.735  13.027  68.455  1.00  0.00    -0.068 C  
HETATM    4  C   UNL     1      -5.458  14.324  68.237  1.00  0.00    -0.114 C  
BRANCH   4   5
HETATM    5  C   UNL     1      -6.442  15.326  67.706  1.00  0.00    -0.179 C  
BRANCH   5   6
HETATM    6  C   UNL     1      -7.145  16.076  68.801  1.00  0.00    -0.146 C  
HETATM    7  C   UNL     1      -8.353  15.762  69.303  1.00  0.00    -0.249 C  
BRANCH   7   8
HETATM    8  C   UNL     1      -9.197  14.626  68.800  1.00  0.00    -0.184 C  
BRANCH   8   9
HETATM    9  C   UNL     1     -10.636  15.014  68.633  1.00  0.00    -0.237 C  
HETATM   10  C   UNL     1     -11.139  15.664  67.567  1.00  0.00    -0.289 C  
BRANCH  10  11
HETATM   11  C   UNL     1     -10.322  16.026  66.359  1.00  0.00    -0.312 C  
BRANCH  11  12
HETATM   12  C   UNL     1     -10.285  17.529  66.103  1.00  0.00    -0.339 C  
BRANCH  12  13
HETATM   13  C   UNL     1     -10.888  18.284  67.289  1.00  0.00    -0.269 C  
BRANCH  13  14
HETATM   14  C   UNL     1     -10.783  19.791  67.082  1.00  0.00    -0.547 C  
BRANCH  14  15
HETATM   15  C   UNL     1      -9.402  20.316  67.475  1.00  0.00    -0.513 C  
BRANCH  15  16
HETATM   16  C   UNL     1      -8.691  19.316  68.384  1.00  0.00    -0.395 C  
BRANCH  16  17
HETATM   17  C   UNL     1      -7.193  19.594  68.468  1.00  0.00    -0.363 C  
HETATM   18  C   UNL     1      -6.477  19.173  67.204  1.00  0.00    -0.188 C  
HETATM   19  O   UNL     1      -7.004  18.677  66.221  1.00  0.00    -0.209 OA 
HETATM   20  O   UNL     1      -5.145  19.407  67.267  1.00  0.00    -0.159 OA 
ENDBRANCH  16  17
ENDBRANCH  15  16
ENDBRANCH  14  15
ENDBRANCH  13  14
ENDBRANCH  12  13
ENDBRANCH  11  12
ENDBRANCH  10  11
ENDBRANCH   8   9
ENDBRANCH   7   8
ENDBRANCH   5   6
ENDBRANCH   4   5
ENDBRANCH   2   3
TORSDOF 12
ENDMDL
MODEL      388
REMARK 921   NORMALIZED FREE ENERGY PREDICTED BY IDOCK:   -2.76 KCAL/MOL
REMARK 922        TOTAL FREE ENERGY PREDICTED BY IDOCK:   -6.54 KCAL/MOL
REMARK 923 INTER-LIGAND FREE ENERGY PREDICTED BY IDOCK:   -4.81 KCAL/MOL
REMARK 924 INTRA-LIGAND FREE ENERGY PREDICTED BY IDOCK:   -1.74 KCAL/MOL
REMARK 927      BINDING AFFINITY PREDICTED BY RF-SCORE:    0.00 PKD
ROOT
HETATM    1  C   UNL     1      -7.305   4.539  63.526  1.00  0.00    -0.054 C  
HETATM    2  C   UNL     1      -8.176   5.475  64.350  1.00  0.00    -0.127 C  
ENDROOT
BRANCH   2   3
HETATM    3  C   UNL     1      -7.780   6.912  64.165  1.00  0.00    -0.116 C  
HETATM    4  C   UNL     1      -8.109   7.926  64.982  1.00  0.00    -0.144 C  
BRANCH   4   5
HETATM    5  C   UNL     1      -8.968   7.787  66.207  1.00  0.00    -0.209 C  
BRANCH   5   6
HETATM    6  C   UNL     1      -8.315   8.353  67.435  1.00  0.00    -0.124 C  
HETATM    7  C   UNL     1      -8.418   9.629  67.848  1.00  0.00    -0.122 C  
BRANCH   7   8
HETATM    8  C   UNL     1      -9.178  10.689  67.105  1.00  0.00    -0.161 C  
BRANCH   8   9
HETATM    9  C   UNL     1      -8.794  12.074  67.534  1.00  0.00    -0.172 C  
HETATM   10  C   UNL     1      -9.542  13.175  67.338  1.00  0.00    -0.219 C  
BRANCH  10  11
HETATM   11  C   UNL     1     -10.910  13.145  66.717  1.00  0.00    -0.289 C  
BRANCH  11  12
HETATM   12  C   UNL     1     -12.005  12.809  67.724  1.00  0.00    -0.316 C  
BRANCH  12  13
HETATM   13  C   UNL     1     -11.694  13.447  69.079  1.00  0.00    -0.368 C  
BRANCH  13  14
HETATM   14  C   UNL     1     -11.959  12.464  70.215  1.00  0.00    -0.371 C  
BRANCH  14  15
HETATM   15  C   UNL     1     -12.017  11.024  69.707  1.00  0.00    -0.428 C  
BRANCH  15  16
HETATM   16  C   UNL     1     -11.352  10.079  70.707  1.00  0.00    -0.439 C  
BRANCH  16  17
HETATM   17  C   UNL     1     -11.142   8.688  70.116  1.00  0.00    -0.199 C  
HETATM   18  C   UNL     1     -11.852   7.626  70.926  1.00  0.00    -0.250 C  
HETATM   19  O   UNL     1     -12.522   7.826  71.927  1.00  0.00    -0.304 OA 
HETATM   20  O   UNL     1     -11.667   6.385  70.417  1.00  0.00    -0.396 OA 
ENDBRANCH  16  17
ENDBRANCH  15  16
ENDBRANCH  14  15
ENDBRANCH  13  14
ENDBRANCH  12  13
ENDBRANCH  11  12
ENDBRANCH  10  11
ENDBRANCH   8   9
ENDBRANCH   7   8
ENDBRANCH   5   6
ENDBRANCH   4   5
ENDBRANCH   2   3
TORSDOF 12
ENDMDL
MODEL      389
REMARK 921   NORMALIZED FREE ENERGY PREDICTED BY IDOCK:   -2.76 KCAL/MOL
REMARK 922        TOTAL FREE ENERGY PREDICTED BY IDOCK:   -6.54 KCAL/MOL
REMARK 923 INTER-LIGAND FREE ENERGY PREDICTED BY IDOCK:   -4.08 KCAL/MOL
REMARK 924 INTRA-LIGAND FREE ENERGY PREDICTED BY IDOCK:   -2.46 KCAL/MOL
REMARK 927      BINDING AFFINITY PREDICTED BY RF-SCORE:    0.00 PKD
ROOT
HETATM    1  C   UNL     1      -5.638   5.941  70.083  1.00  0.00    -0.013 C  
HETATM    2  C   UNL     1      -6.704   6.996  69.834  1.00  0.00    -0.049 C  
ENDROOT
BRANCH   2   3
HETATM    3  C   UNL     1      -6.487   7.713  68.532  1.00  0.00    -0.048 C  
HETATM    4  C   UNL     1      -7.192   7.520  67.405  1.00  0.00    -0.087 C  
BRANCH   4   5
HETATM    5  C   UNL     1      -8.301   6.518  67.257  1.00  0.00    -0.113 C  
BRANCH   5   6
HETATM    6  C   UNL     1      -9.486   7.077  66.524  1.00  0.00    -0.199 C  
HETATM    7  C   UNL     1     -10.520   7.718  67.097  1.00  0.00    -0.413 C  
BRANCH   7   8
HETATM    8  C   UNL     1     -10.654   7.929  68.578  1.00  0.00    -0.146 C  
BRANCH   8   9
HETATM    9  C   UNL     1     -10.041   9.222  69.029  1.00  0.00    -0.207 C  
HETATM   10  C   UNL     1     -10.153   9.736  70.267  1.00  0.00    -0.323 C  
BRANCH  10  11
HETATM   11  C   UNL     1     -10.860   9.034  71.392  1.00  0.00    -0.400 C  
BRANCH  11  12
HETATM   12  C   UNL     1      -9.908   8.585  72.495  1.00  0.00    -0.324 C  
BRANCH  12  13
HETATM   13  C   UNL     1     -10.488   7.382  73.240  1.00  0.00    -0.424 C  
BRANCH  13  14
HETATM   14  C   UNL     1     -11.410   6.575  72.332  1.00  0.00    -0.314 C  
BRANCH  14  15
HETATM   15  C   UNL     1     -10.768   5.252  71.916  1.00  0.00    -0.252 C  
BRANCH  15  16
HETATM   16  C   UNL     1      -9.807   5.469  70.749  1.00  0.00    -0.247 C  
BRANCH  16  17
HETATM   17  C   UNL     1      -9.985   4.410  69.666  1.00  0.00    -0.209 C  
HETATM   18  C   UNL     1      -9.082   3.219  69.898  1.00  0.00    -0.128 C  
HETATM   19  O   UNL     1      -8.303   3.089  70.829  1.00  0.00    -0.052 OA 
HETATM   20  O   UNL     1      -9.223   2.274  68.939  1.00  0.00    -0.129 OA 
ENDBRANCH  16  17
ENDBRANCH  15  16
ENDBRANCH  14  15
ENDBRANCH  13  14
ENDBRANCH  12  13
ENDBRANCH  11  12
ENDBRANCH  10  11
ENDBRANCH   8   9
ENDBRANCH   7   8
ENDBRANCH   5   6
ENDBRANCH   4   5
ENDBRANCH   2   3
TORSDOF 12
ENDMDL
MODEL      390
REMARK 921   NORMALIZED FREE ENERGY PREDICTED BY IDOCK:   -2.74 KCAL/MOL
REMARK 922        TOTAL FREE ENERGY PREDICTED BY IDOCK:   -6.51 KCAL/MOL
REMARK 923 INTER-LIGAND FREE ENERGY PREDICTED BY IDOCK:   -4.74 KCAL/MOL
REMARK 924 INTRA-LIGAND FREE ENERGY PREDICTED BY IDOCK:   -1.77 KCAL/MOL
REMARK 927      BINDING AFFINITY PREDICTED BY RF-SCORE:    0.00 PKD
ROOT
HETATM    1  C   UNL     1     -11.592  16.063  64.362  1.00  0.00    -0.212 C  
HETATM    2  C   UNL     1     -10.894  16.163  65.710  1.00  0.00    -0.206 C  
ENDROOT
BRANCH   2   3
HETATM    3  C   UNL     1      -9.821  15.122  65.861  1.00  0.00    -0.372 C  
HETATM    4  C   UNL     1      -8.550  15.356  66.224  1.00  0.00    -0.148 C  
BRANCH   4   5
HETATM    5  C   UNL     1      -7.983  16.718  66.506  1.00  0.00    -0.334 C  
BRANCH   5   6
HETATM    6  C   UNL     1      -6.502  16.683  66.758  1.00  0.00    -0.186 C  
HETATM    7  C   UNL     1      -5.596  17.472  66.154  1.00  0.00    -0.219 C  
BRANCH   7   8
HETATM    8  C   UNL     1      -5.939  18.482  65.097  1.00  0.00    -0.270 C  
BRANCH   8   9
HETATM    9  C   UNL     1      -5.788  19.893  65.585  1.00  0.00    -0.199 C  
HETATM   10  C   UNL     1      -6.809  20.731  65.841  1.00  0.00    -0.149 C  
BRANCH  10  11
HETATM   11  C   UNL     1      -8.253  20.330  65.736  1.00  0.00     0.038 C  
BRANCH  11  12
HETATM   12  C   UNL     1      -8.950  20.284  67.092  1.00  0.00    -0.469 C  
BRANCH  12  13
HETATM   13  C   UNL     1     -10.449  20.042  66.909  1.00  0.00    -0.523 C  
BRANCH  13  14
HETATM   14  C   UNL     1     -10.955  19.000  67.901  1.00  0.00    -0.157 C  
BRANCH  14  15
HETATM   15  C   UNL     1      -9.874  18.618  68.913  1.00  0.00    -0.394 C  
BRANCH  15  16
HETATM   16  C   UNL     1      -9.739  17.099  69.002  1.00  0.00    -0.212 C  
BRANCH  16  17
HETATM   17  C   UNL     1     -10.525  16.530  70.179  1.00  0.00     0.035 C  
HETATM   18  C   UNL     1     -11.810  15.873  69.726  1.00  0.00    -0.295 C  
HETATM   19  O   UNL     1     -12.194  15.787  68.570  1.00  0.00    -0.108 OA 
HETATM   20  O   UNL     1     -12.522  15.371  70.761  1.00  0.00    -0.360 OA 
ENDBRANCH  16  17
ENDBRANCH  15  16
ENDBRANCH  14  15
ENDBRANCH  13  14
ENDBRANCH  12  13
ENDBRANCH  11  12
ENDBRANCH  10  11
ENDBRANCH   8   9
ENDBRANCH   7   8
ENDBRANCH   5   6
ENDBRANCH   4   5
ENDBRANCH   2   3
TORSDOF 12
ENDMDL
MODEL      391
REMARK 921   NORMALIZED FREE ENERGY PREDICTED BY IDOCK:   -2.73 KCAL/MOL
REMARK 922        TOTAL FREE ENERGY PREDICTED BY IDOCK:   -6.50 KCAL/MOL
REMARK 923 INTER-LIGAND FREE ENERGY PREDICTED BY IDOCK:   -4.83 KCAL/MOL
REMARK 924 INTRA-LIGAND FREE ENERGY PREDICTED BY IDOCK:   -1.67 KCAL/MOL
REMARK 927      BINDING AFFINITY PREDICTED BY RF-SCORE:    0.00 PKD
ROOT
HETATM    1  C   UNL     1      -9.679  12.122  68.081  1.00  0.00    -0.208 C  
HETATM    2  C   UNL     1      -8.379  12.765  67.624  1.00  0.00    -0.175 C  
ENDROOT
BRANCH   2   3
HETATM    3  C   UNL     1      -8.150  14.093  68.289  1.00  0.00    -0.146 C  
HETATM    4  C   UNL     1      -8.458  15.293  67.770  1.00  0.00    -0.158 C  
BRANCH   4   5
HETATM    5  C   UNL     1      -9.056  15.501  66.407  1.00  0.00    -0.351 C  
BRANCH   5   6
HETATM    6  C   UNL     1     -10.552  15.624  66.449  1.00  0.00    -0.308 C  
HETATM    7  C   UNL     1     -11.405  14.984  65.630  1.00  0.00    -0.297 C  
BRANCH   7   8
HETATM    8  C   UNL     1     -10.970  14.075  64.516  1.00  0.00    -0.361 C  
BRANCH   8   9
HETATM    9  C   UNL     1     -12.005  13.041  64.186  1.00  0.00    -0.494 C  
HETATM   10  C   UNL     1     -11.752  11.866  63.581  1.00  0.00    -0.572 C  
BRANCH  10  11
HETATM   11  C   UNL     1     -10.370  11.404  63.218  1.00  0.00    -0.422 C  
BRANCH  11  12
HETATM   12  C   UNL     1      -9.860  10.298  64.136  1.00  0.00    -0.319 C  
BRANCH  12  13
HETATM   13  C   UNL     1      -8.359  10.458  64.376  1.00  0.00    -0.142 C  
BRANCH  13  14
HETATM   14  C   UNL     1      -7.948   9.809  65.694  1.00  0.00    -0.117 C  
BRANCH  14  15
HETATM   15  C   UNL     1      -8.514   8.395  65.823  1.00  0.00    -0.169 C  
BRANCH  15  16
HETATM   16  C   UNL     1      -8.035   7.744  67.119  1.00  0.00    -0.117 C  
BRANCH  16  17
HETATM   17  C   UNL     1      -9.035   6.716  67.638  1.00  0.00    -0.111 C  
HETATM   18  C   UNL     1      -8.737   5.331  67.109  1.00  0.00    -0.107 C  
HETATM   19  O   UNL     1      -7.816   5.039  66.363  1.00  0.00    -0.098 OA 
HETATM   20  O   UNL     1      -9.623   4.410  67.555  1.00  0.00    -0.158 OA 
ENDBRANCH  16  17
ENDBRANCH  15  16
ENDBRANCH  14  15
ENDBRANCH  13  14
ENDBRANCH  12  13
ENDBRANCH  11  12
ENDBRANCH  10  11
ENDBRANCH   8   9
ENDBRANCH   7   8
ENDBRANCH   5   6
ENDBRANCH   4   5
ENDBRANCH   2   3
TORSDOF 12
ENDMDL
MODEL      392
REMARK 921   NORMALIZED FREE ENERGY PREDICTED BY IDOCK:   -2.73 KCAL/MOL
REMARK 922        TOTAL FREE ENERGY PREDICTED BY IDOCK:   -6.48 KCAL/MOL
REMARK 923 INTER-LIGAND FREE ENERGY PREDICTED BY IDOCK:   -4.94 KCAL/MOL
REMARK 924 INTRA-LIGAND FREE ENERGY PREDICTED BY IDOCK:   -1.55 KCAL/MOL
REMARK 927      BINDING AFFINITY PREDICTED BY RF-SCORE:    0.00 PKD
ROOT
HETATM    1  C   UNL     1     -10.341  16.122  69.069  1.00  0.00    -0.258 C  
HETATM    2  C   UNL     1     -11.170  15.216  68.173  1.00  0.00    -0.326 C  
ENDROOT
BRANCH   2   3
HETATM    3  C   UNL     1     -11.184  13.799  68.671  1.00  0.00    -0.308 C  
HETATM    4  C   UNL     1     -11.648  12.735  67.994  1.00  0.00    -0.388 C  
BRANCH   4   5
HETATM    5  C   UNL     1     -12.266  12.802  66.626  1.00  0.00    -0.162 C  
BRANCH   5   6
HETATM    6  C   UNL     1     -11.281  13.211  65.570  1.00  0.00    -0.305 C  
HETATM    7  C   UNL     1     -10.194  12.506  65.209  1.00  0.00    -0.302 C  
BRANCH   7   8
HETATM    8  C   UNL     1      -9.787  11.212  65.853  1.00  0.00    -0.275 C  
BRANCH   8   9
HETATM    9  C   UNL     1      -8.302  11.000  65.820  1.00  0.00    -0.092 C  
HETATM   10  C   UNL     1      -7.457  11.319  66.817  1.00  0.00    -0.146 C  
BRANCH  10  11
HETATM   11  C   UNL     1      -7.910  11.870  68.139  1.00  0.00    -0.134 C  
BRANCH  11  12
HETATM   12  C   UNL     1      -7.497  10.992  69.315  1.00  0.00    -0.100 C  
BRANCH  12  13
HETATM   13  C   UNL     1      -7.833   9.528  69.028  1.00  0.00    -0.077 C  
BRANCH  13  14
HETATM   14  C   UNL     1      -9.338   9.292  69.105  1.00  0.00    -0.157 C  
BRANCH  14  15
HETATM   15  C   UNL     1      -9.878   9.571  70.507  1.00  0.00    -0.331 C  
BRANCH  15  16
HETATM   16  C   UNL     1     -11.393   9.762  70.468  1.00  0.00    -0.382 C  
BRANCH  16  17
HETATM   17  C   UNL     1     -12.061   9.242  71.736  1.00  0.00    -0.457 C  
HETATM   18  C   UNL     1     -13.568   9.236  71.610  1.00  0.00    -0.381 C  
HETATM   19  O   UNL     1     -14.200   9.589  70.627  1.00  0.00     0.165 OA 
HETATM   20  O   UNL     1     -14.175   8.784  72.732  1.00  0.00    -0.520 OA 
ENDBRANCH  16  17
ENDBRANCH  15  16
ENDBRANCH  14  15
ENDBRANCH  13  14
ENDBRANCH  12  13
ENDBRANCH  11  12
ENDBRANCH  10  11
ENDBRANCH   8   9
ENDBRANCH   7   8
ENDBRANCH   5   6
ENDBRANCH   4   5
ENDBRANCH   2   3
TORSDOF 12
ENDMDL
MODEL      393
REMARK 921   NORMALIZED FREE ENERGY PREDICTED BY IDOCK:   -2.72 KCAL/MOL
REMARK 922        TOTAL FREE ENERGY PREDICTED BY IDOCK:   -6.47 KCAL/MOL
REMARK 923 INTER-LIGAND FREE ENERGY PREDICTED BY IDOCK:   -3.52 KCAL/MOL
REMARK 924 INTRA-LIGAND FREE ENERGY PREDICTED BY IDOCK:   -2.95 KCAL/MOL
REMARK 927      BINDING AFFINITY PREDICTED BY RF-SCORE:    0.00 PKD
ROOT
HETATM    1  C   UNL     1      -6.856   5.650  72.440  1.00  0.00    -0.077 C  
HETATM    2  C   UNL     1      -7.649   6.702  73.200  1.00  0.00    -0.088 C  
ENDROOT
BRANCH   2   3
HETATM    3  C   UNL     1      -8.162   7.780  72.288  1.00  0.00    -0.149 C  
HETATM    4  C   UNL     1      -9.371   7.800  71.702  1.00  0.00    -0.174 C  
BRANCH   4   5
HETATM    5  C   UNL     1     -10.400   6.714  71.839  1.00  0.00    -0.219 C  
BRANCH   5   6
HETATM    6  C   UNL     1     -10.112   5.535  70.955  1.00  0.00    -0.276 C  
HETATM    7  C   UNL     1     -10.531   5.399  69.684  1.00  0.00    -0.361 C  
BRANCH   7   8
HETATM    8  C   UNL     1     -11.394   6.405  68.978  1.00  0.00    -0.332 C  
BRANCH   8   9
HETATM    9  C   UNL     1     -11.156   6.422  67.497  1.00  0.00    -0.401 C  
HETATM   10  C   UNL     1     -10.358   7.296  66.856  1.00  0.00    -0.358 C  
BRANCH  10  11
HETATM   11  C   UNL     1      -9.537   8.337  67.563  1.00  0.00    -0.194 C  
BRANCH  11  12
HETATM   12  C   UNL     1      -8.038   8.100  67.420  1.00  0.00    -0.122 C  
BRANCH  12  13
HETATM   13  C   UNL     1      -7.503   7.340  68.635  1.00  0.00    -0.102 C  
BRANCH  13  14
HETATM   14  C   UNL     1      -7.124   5.912  68.259  1.00  0.00    -0.078 C  
BRANCH  14  15
HETATM   15  C   UNL     1      -6.803   5.792  66.769  1.00  0.00    -0.063 C  
BRANCH  15  16
HETATM   16  C   UNL     1      -7.262   4.437  66.233  1.00  0.00    -0.076 C  
BRANCH  16  17
HETATM   17  C   UNL     1      -8.543   3.964  66.914  1.00  0.00    -0.107 C  
HETATM   18  C   UNL     1      -8.437   2.523  67.360  1.00  0.00    -0.096 C  
HETATM   19  O   UNL     1      -7.460   1.804  67.214  1.00  0.00    -0.057 OA 
HETATM   20  O   UNL     1      -9.569   2.087  67.959  1.00  0.00    -0.194 OA 
ENDBRANCH  16  17
ENDBRANCH  15  16
ENDBRANCH  14  15
ENDBRANCH  13  14
ENDBRANCH  12  13
ENDBRANCH  11  12
ENDBRANCH  10  11
ENDBRANCH   8   9
ENDBRANCH   7   8
ENDBRANCH   5   6
ENDBRANCH   4   5
ENDBRANCH   2   3
TORSDOF 12
ENDMDL
MODEL      394
REMARK 921   NORMALIZED FREE ENERGY PREDICTED BY IDOCK:   -2.72 KCAL/MOL
REMARK 922        TOTAL FREE ENERGY PREDICTED BY IDOCK:   -6.47 KCAL/MOL
REMARK 923 INTER-LIGAND FREE ENERGY PREDICTED BY IDOCK:   -4.53 KCAL/MOL
REMARK 924 INTRA-LIGAND FREE ENERGY PREDICTED BY IDOCK:   -1.94 KCAL/MOL
REMARK 927      BINDING AFFINITY PREDICTED BY RF-SCORE:    0.00 PKD
ROOT
HETATM    1  C   UNL     1      -9.184   9.387  70.266  1.00  0.00    -0.285 C  
HETATM    2  C   UNL     1     -10.552   9.016  69.714  1.00  0.00    -0.236 C  
ENDROOT
BRANCH   2   3
HETATM    3  C   UNL     1     -10.488   7.793  68.844  1.00  0.00    -0.208 C  
HETATM    4  C   UNL     1     -10.389   7.789  67.504  1.00  0.00    -0.333 C  
BRANCH   4   5
HETATM    5  C   UNL     1     -10.361   9.025  66.651  1.00  0.00    -0.289 C  
BRANCH   5   6
HETATM    6  C   UNL     1      -9.022   9.252  66.011  1.00  0.00    -0.215 C  
HETATM    7  C   UNL     1      -8.405  10.442  65.905  1.00  0.00    -0.152 C  
BRANCH   7   8
HETATM    8  C   UNL     1      -9.000  11.736  66.382  1.00  0.00    -0.201 C  
BRANCH   8   9
HETATM    9  C   UNL     1      -8.665  12.025  67.816  1.00  0.00    -0.161 C  
HETATM   10  C   UNL     1      -7.481  12.491  68.250  1.00  0.00    -0.122 C  
BRANCH  10  11
HETATM   11  C   UNL     1      -6.349  12.855  67.331  1.00  0.00    -0.119 C  
BRANCH  11  12
HETATM   12  C   UNL     1      -5.183  13.509  68.065  1.00  0.00    -0.110 C  
BRANCH  12  13
HETATM   13  C   UNL     1      -5.614  14.851  68.657  1.00  0.00    -0.092 C  
BRANCH  13  14
HETATM   14  C   UNL     1      -5.267  15.997  67.713  1.00  0.00    -0.148 C  
BRANCH  14  15
HETATM   15  C   UNL     1      -6.461  16.926  67.498  1.00  0.00    -0.170 C  
BRANCH  15  16
HETATM   16  C   UNL     1      -7.766  16.203  67.826  1.00  0.00    -0.155 C  
BRANCH  16  17
HETATM   17  C   UNL     1      -8.573  15.895  66.569  1.00  0.00    -0.345 C  
HETATM   18  C   UNL     1      -9.585  16.979  66.276  1.00  0.00    -0.267 C  
HETATM   19  O   UNL     1      -9.755  17.990  66.939  1.00  0.00    -0.289 OA 
HETATM   20  O   UNL     1     -10.314  16.714  65.167  1.00  0.00    -0.630 OA 
ENDBRANCH  16  17
ENDBRANCH  15  16
ENDBRANCH  14  15
ENDBRANCH  13  14
ENDBRANCH  12  13
ENDBRANCH  11  12
ENDBRANCH  10  11
ENDBRANCH   8   9
ENDBRANCH   7   8
ENDBRANCH   5   6
ENDBRANCH   4   5
ENDBRANCH   2   3
TORSDOF 12
ENDMDL
MODEL      395
REMARK 921   NORMALIZED FREE ENERGY PREDICTED BY IDOCK:   -2.72 KCAL/MOL
REMARK 922        TOTAL FREE ENERGY PREDICTED BY IDOCK:   -6.47 KCAL/MOL
REMARK 923 INTER-LIGAND FREE ENERGY PREDICTED BY IDOCK:   -4.88 KCAL/MOL
REMARK 924 INTRA-LIGAND FREE ENERGY PREDICTED BY IDOCK:   -1.59 KCAL/MOL
REMARK 927      BINDING AFFINITY PREDICTED BY RF-SCORE:    0.00 PKD
ROOT
HETATM    1  C   UNL     1     -11.270  14.877  64.873  1.00  0.00    -0.415 C  
HETATM    2  C   UNL     1     -12.251  13.816  64.400  1.00  0.00    -0.440 C  
ENDROOT
BRANCH   2   3
HETATM    3  C   UNL     1     -11.687  13.000  63.271  1.00  0.00    -0.349 C  
HETATM    4  C   UNL     1     -11.173  11.764  63.379  1.00  0.00    -0.440 C  
BRANCH   4   5
HETATM    5  C   UNL     1     -11.045  11.006  64.670  1.00  0.00    -0.041 C  
BRANCH   5   6
HETATM    6  C   UNL     1      -9.737  10.275  64.779  1.00  0.00    -0.397 C  
HETATM    7  C   UNL     1      -8.712  10.635  65.571  1.00  0.00    -0.199 C  
BRANCH   7   8
HETATM    8  C   UNL     1      -8.717  11.862  66.437  1.00  0.00    -0.118 C  
BRANCH   8   9
HETATM    9  C   UNL     1      -8.260  11.575  67.837  1.00  0.00    -0.134 C  
HETATM   10  C   UNL     1      -9.076  11.379  68.888  1.00  0.00    -0.022 C  
BRANCH  10  11
HETATM   11  C   UNL     1     -10.574  11.352  68.777  1.00  0.00    -0.235 C  
BRANCH  11  12
HETATM   12  C   UNL     1     -11.166   9.994  69.139  1.00  0.00    -0.197 C  
BRANCH  12  13
HETATM   13  C   UNL     1     -10.469   9.424  70.374  1.00  0.00    -0.311 C  
BRANCH  13  14
HETATM   14  C   UNL     1     -11.278   8.278  70.974  1.00  0.00    -0.291 C  
BRANCH  14  15
HETATM   15  C   UNL     1     -11.521   7.169  69.951  1.00  0.00    -0.154 C  
BRANCH  15  16
HETATM   16  C   UNL     1     -10.196   6.677  69.372  1.00  0.00    -0.207 C  
BRANCH  16  17
HETATM   17  C   UNL     1     -10.406   5.586  68.327  1.00  0.00    -0.237 C  
HETATM   18  C   UNL     1     -10.338   6.140  66.921  1.00  0.00    -0.248 C  
HETATM   19  O   UNL     1     -10.135   7.307  66.627  1.00  0.00    -0.217 OA 
HETATM   20  O   UNL     1     -10.531   5.183  65.983  1.00  0.00    -0.231 OA 
ENDBRANCH  16  17
ENDBRANCH  15  16
ENDBRANCH  14  15
ENDBRANCH  13  14
ENDBRANCH  12  13
ENDBRANCH  11  12
ENDBRANCH  10  11
ENDBRANCH   8   9
ENDBRANCH   7   8
ENDBRANCH   5   6
ENDBRANCH   4   5
ENDBRANCH   2   3
TORSDOF 12
ENDMDL
MODEL      396
REMARK 921   NORMALIZED FREE ENERGY PREDICTED BY IDOCK:   -2.71 KCAL/MOL
REMARK 922        TOTAL FREE ENERGY PREDICTED BY IDOCK:   -6.45 KCAL/MOL
REMARK 923 INTER-LIGAND FREE ENERGY PREDICTED BY IDOCK:   -5.48 KCAL/MOL
REMARK 924 INTRA-LIGAND FREE ENERGY PREDICTED BY IDOCK:   -0.97 KCAL/MOL
REMARK 927      BINDING AFFINITY PREDICTED BY RF-SCORE:    0.00 PKD
ROOT
HETATM    1  C   UNL     1     -11.752  12.616  66.889  1.00  0.00    -0.453 C  
HETATM    2  C   UNL     1     -11.276  11.218  67.252  1.00  0.00    -0.364 C  
ENDROOT
BRANCH   2   3
HETATM    3  C   UNL     1     -11.563  10.887  68.689  1.00  0.00    -0.373 C  
HETATM    4  C   UNL     1     -11.865  11.774  69.652  1.00  0.00    -0.407 C  
BRANCH   4   5
HETATM    5  C   UNL     1     -11.928  13.261  69.448  1.00  0.00    -0.356 C  
BRANCH   5   6
HETATM    6  C   UNL     1     -12.621  13.967  70.578  1.00  0.00    -0.382 C  
HETATM    7  C   UNL     1     -12.351  15.218  70.991  1.00  0.00    -0.426 C  
BRANCH   7   8
HETATM    8  C   UNL     1     -11.273  16.079  70.398  1.00  0.00    -0.401 C  
BRANCH   8   9
HETATM    9  C   UNL     1     -11.469  16.309  68.929  1.00  0.00    -0.282 C  
HETATM   10  C   UNL     1     -10.850  17.262  68.210  1.00  0.00    -0.287 C  
BRANCH  10  11
HETATM   11  C   UNL     1      -9.814  18.187  68.783  1.00  0.00    -0.362 C  
BRANCH  11  12
HETATM   12  C   UNL     1      -8.499  18.148  68.011  1.00  0.00    -0.268 C  
BRANCH  12  13
HETATM   13  C   UNL     1      -8.234  16.737  67.486  1.00  0.00    -0.187 C  
BRANCH  13  14
HETATM   14  C   UNL     1      -7.100  16.074  68.260  1.00  0.00    -0.122 C  
BRANCH  14  15
HETATM   15  C   UNL     1      -7.628  15.028  69.242  1.00  0.00    -0.187 C  
BRANCH  15  16
HETATM   16  C   UNL     1      -8.626  14.103  68.549  1.00  0.00    -0.163 C  
BRANCH  16  17
HETATM   17  C   UNL     1      -7.947  13.211  67.515  1.00  0.00    -0.179 C  
HETATM   18  C   UNL     1      -7.688  11.824  68.060  1.00  0.00    -0.123 C  
HETATM   19  O   UNL     1      -7.981  11.435  69.180  1.00  0.00    -0.071 OA 
HETATM   20  O   UNL     1      -7.077  11.023  67.155  1.00  0.00    -0.091 OA 
ENDBRANCH  16  17
ENDBRANCH  15  16
ENDBRANCH  14  15
ENDBRANCH  13  14
ENDBRANCH  12  13
ENDBRANCH  11  12
ENDBRANCH  10  11
ENDBRANCH   8   9
ENDBRANCH   7   8
ENDBRANCH   5   6
ENDBRANCH   4   5
ENDBRANCH   2   3
TORSDOF 12
ENDMDL
MODEL      397
REMARK 921   NORMALIZED FREE ENERGY PREDICTED BY IDOCK:   -2.69 KCAL/MOL
REMARK 922        TOTAL FREE ENERGY PREDICTED BY IDOCK:   -6.42 KCAL/MOL
REMARK 923 INTER-LIGAND FREE ENERGY PREDICTED BY IDOCK:   -5.61 KCAL/MOL
REMARK 924 INTRA-LIGAND FREE ENERGY PREDICTED BY IDOCK:   -0.81 KCAL/MOL
REMARK 927      BINDING AFFINITY PREDICTED BY RF-SCORE:    0.00 PKD
ROOT
HETATM    1  C   UNL     1      -7.720   1.791  64.940  1.00  0.00    -0.068 C  
HETATM    2  C   UNL     1      -9.093   1.963  65.571  1.00  0.00    -0.079 C  
ENDROOT
BRANCH   2   3
HETATM    3  C   UNL     1      -9.000   2.211  67.050  1.00  0.00    -0.150 C  
HETATM    4  C   UNL     1      -8.814   3.406  67.633  1.00  0.00    -0.152 C  
BRANCH   4   5
HETATM    5  C   UNL     1      -8.632   4.697  66.887  1.00  0.00    -0.104 C  
BRANCH   5   6
HETATM    6  C   UNL     1      -7.605   5.589  67.525  1.00  0.00    -0.089 C  
HETATM    7  C   UNL     1      -7.865   6.769  68.116  1.00  0.00    -0.113 C  
BRANCH   7   8
HETATM    8  C   UNL     1      -9.232   7.387  68.182  1.00  0.00    -0.133 C  
BRANCH   8   9
HETATM    9  C   UNL     1      -9.641   8.010  66.880  1.00  0.00    -0.265 C  
HETATM   10  C   UNL     1     -10.441   9.084  66.759  1.00  0.00    -0.270 C  
BRANCH  10  11
HETATM   11  C   UNL     1     -10.977   9.852  67.934  1.00  0.00    -0.281 C  
BRANCH  11  12
HETATM   12  C   UNL     1     -11.137  11.340  67.641  1.00  0.00    -0.336 C  
BRANCH  12  13
HETATM   13  C   UNL     1     -10.694  11.649  66.210  1.00  0.00    -0.317 C  
BRANCH  13  14
HETATM   14  C   UNL     1     -11.900  11.901  65.311  1.00  0.00    -0.160 C  
BRANCH  14  15
HETATM   15  C   UNL     1     -12.191  13.394  65.169  1.00  0.00    -0.473 C  
BRANCH  15  16
HETATM   16  C   UNL     1     -10.963  14.128  64.631  1.00  0.00    -0.393 C  
BRANCH  16  17
HETATM   17  C   UNL     1     -10.492  15.217  65.590  1.00  0.00    -0.378 C  
HETATM   18  C   UNL     1     -10.850  16.597  65.085  1.00  0.00    -0.186 C  
HETATM   19  O   UNL     1     -11.447  16.841  64.049  1.00  0.00    -1.198 OA 
HETATM   20  O   UNL     1     -10.429  17.574  65.922  1.00  0.00    -0.461 OA 
ENDBRANCH  16  17
ENDBRANCH  15  16
ENDBRANCH  14  15
ENDBRANCH  13  14
ENDBRANCH  12  13
ENDBRANCH  11  12
ENDBRANCH  10  11
ENDBRANCH   8   9
ENDBRANCH   7   8
ENDBRANCH   5   6
ENDBRANCH   4   5
ENDBRANCH   2   3
TORSDOF 12
ENDMDL
MODEL      398
REMARK 921   NORMALIZED FREE ENERGY PREDICTED BY IDOCK:   -2.69 KCAL/MOL
REMARK 922        TOTAL FREE ENERGY PREDICTED BY IDOCK:   -6.41 KCAL/MOL
REMARK 923 INTER-LIGAND FREE ENERGY PREDICTED BY IDOCK:   -4.56 KCAL/MOL
REMARK 924 INTRA-LIGAND FREE ENERGY PREDICTED BY IDOCK:   -1.85 KCAL/MOL
REMARK 927      BINDING AFFINITY PREDICTED BY RF-SCORE:    0.00 PKD
ROOT
HETATM    1  C   UNL     1     -10.116  13.316  68.325  1.00  0.00    -0.250 C  
HETATM    2  C   UNL     1     -11.485  12.680  68.508  1.00  0.00    -0.349 C  
ENDROOT
BRANCH   2   3
HETATM    3  C   UNL     1     -11.502  11.251  68.044  1.00  0.00    -0.369 C  
HETATM    4  C   UNL     1     -11.218  10.178  68.802  1.00  0.00    -0.217 C  
BRANCH   4   5
HETATM    5  C   UNL     1     -10.799  10.243  70.243  1.00  0.00    -0.349 C  
BRANCH   5   6
HETATM    6  C   UNL     1     -11.807   9.615  71.163  1.00  0.00    -0.448 C  
HETATM    7  C   UNL     1     -11.815   8.323  71.536  1.00  0.00    -0.335 C  
BRANCH   7   8
HETATM    8  C   UNL     1     -10.827   7.305  71.044  1.00  0.00    -0.258 C  
BRANCH   8   9
HETATM    9  C   UNL     1     -11.206   6.743  69.705  1.00  0.00    -0.368 C  
HETATM   10  C   UNL     1     -10.723   5.599  69.186  1.00  0.00    -0.325 C  
BRANCH  10  11
HETATM   11  C   UNL     1      -9.781   4.690  69.924  1.00  0.00    -0.279 C  
BRANCH  11  12
HETATM   12  C   UNL     1      -8.878   3.894  68.989  1.00  0.00    -0.151 C  
BRANCH  12  13
HETATM   13  C   UNL     1      -7.427   4.351  69.135  1.00  0.00    -0.055 C  
BRANCH  13  14
HETATM   14  C   UNL     1      -7.085   5.415  68.097  1.00  0.00    -0.067 C  
BRANCH  14  15
HETATM   15  C   UNL     1      -6.257   6.547  68.705  1.00  0.00    -0.030 C  
BRANCH  15  16
HETATM   16  C   UNL     1      -7.171   7.639  69.257  1.00  0.00    -0.082 C  
BRANCH  16  17
HETATM   17  C   UNL     1      -7.125   7.698  70.780  1.00  0.00    -0.054 C  
HETATM   18  C   UNL     1      -6.928   9.113  71.278  1.00  0.00    -0.052 C  
HETATM   19  O   UNL     1      -6.823  10.105  70.574  1.00  0.00    -0.215 OA 
HETATM   20  O   UNL     1      -6.878   9.179  72.629  1.00  0.00    -0.313 OA 
ENDBRANCH  16  17
ENDBRANCH  15  16
ENDBRANCH  14  15
ENDBRANCH  13  14
ENDBRANCH  12  13
ENDBRANCH  11  12
ENDBRANCH  10  11
ENDBRANCH   8   9
ENDBRANCH   7   8
ENDBRANCH   5   6
ENDBRANCH   4   5
ENDBRANCH   2   3
TORSDOF 12
ENDMDL
MODEL      399
REMARK 921   NORMALIZED FREE ENERGY PREDICTED BY IDOCK:   -2.68 KCAL/MOL
REMARK 922        TOTAL FREE ENERGY PREDICTED BY IDOCK:   -6.41 KCAL/MOL
REMARK 923 INTER-LIGAND FREE ENERGY PREDICTED BY IDOCK:   -5.45 KCAL/MOL
REMARK 924 INTRA-LIGAND FREE ENERGY PREDICTED BY IDOCK:   -0.95 KCAL/MOL
REMARK 927      BINDING AFFINITY PREDICTED BY RF-SCORE:    0.00 PKD
ROOT
HETATM    1  C   UNL     1     -12.318   6.746  71.676  1.00  0.00    -0.409 C  
HETATM    2  C   UNL     1     -10.917   6.964  71.128  1.00  0.00    -0.284 C  
ENDROOT
BRANCH   2   3
HETATM    3  C   UNL     1     -10.415   5.759  70.383  1.00  0.00    -0.342 C  
HETATM    4  C   UNL     1     -10.541   5.548  69.062  1.00  0.00    -0.271 C  
BRANCH   4   5
HETATM    5  C   UNL     1     -11.243   6.478  68.115  1.00  0.00    -0.250 C  
BRANCH   5   6
HETATM    6  C   UNL     1     -10.326   7.019  67.055  1.00  0.00    -0.360 C  
HETATM    7  C   UNL     1     -10.059   8.322  66.854  1.00  0.00    -0.366 C  
BRANCH   7   8
HETATM    8  C   UNL     1     -10.685   9.435  67.645  1.00  0.00    -0.295 C  
BRANCH   8   9
HETATM    9  C   UNL     1      -9.762  10.606  67.811  1.00  0.00    -0.179 C  
HETATM   10  C   UNL     1      -9.639  11.618  66.934  1.00  0.00    -0.199 C  
BRANCH  10  11
HETATM   11  C   UNL     1     -10.474  11.741  65.691  1.00  0.00    -0.308 C  
BRANCH  11  12
HETATM   12  C   UNL     1     -10.508  13.164  65.144  1.00  0.00    -0.339 C  
BRANCH  12  13
HETATM   13  C   UNL     1     -10.513  14.174  66.292  1.00  0.00    -0.286 C  
BRANCH  13  14
HETATM   14  C   UNL     1      -9.340  15.141  66.169  1.00  0.00    -0.346 C  
BRANCH  14  15
HETATM   15  C   UNL     1      -9.712  16.539  66.662  1.00  0.00    -0.275 C  
BRANCH  15  16
HETATM   16  C   UNL     1      -8.615  17.540  66.305  1.00  0.00    -0.234 C  
BRANCH  16  17
HETATM   17  C   UNL     1      -7.420  17.429  67.247  1.00  0.00    -0.211 C  
HETATM   18  C   UNL     1      -6.197  18.113  66.678  1.00  0.00    -0.175 C  
HETATM   19  O   UNL     1      -6.143  18.695  65.606  1.00  0.00    -0.192 OA 
HETATM   20  O   UNL     1      -5.127  18.016  67.500  1.00  0.00    -0.134 OA 
ENDBRANCH  16  17
ENDBRANCH  15  16
ENDBRANCH  14  15
ENDBRANCH  13  14
ENDBRANCH  12  13
ENDBRANCH  11  12
ENDBRANCH  10  11
ENDBRANCH   8   9
ENDBRANCH   7   8
ENDBRANCH   5   6
ENDBRANCH   4   5
ENDBRANCH   2   3
TORSDOF 12
ENDMDL
MODEL      400
REMARK 921   NORMALIZED FREE ENERGY PREDICTED BY IDOCK:   -2.67 KCAL/MOL
REMARK 922        TOTAL FREE ENERGY PREDICTED BY IDOCK:   -6.39 KCAL/MOL
REMARK 923 INTER-LIGAND FREE ENERGY PREDICTED BY IDOCK:   -4.70 KCAL/MOL
REMARK 924 INTRA-LIGAND FREE ENERGY PREDICTED BY IDOCK:   -1.69 KCAL/MOL
REMARK 927      BINDING AFFINITY PREDICTED BY RF-SCORE:    0.00 PKD
ROOT
HETATM    1  C   UNL     1      -7.288  12.033  68.364  1.00  0.00    -0.096 C  
HETATM    2  C   UNL     1      -8.571  11.889  67.562  1.00  0.00    -0.160 C  
ENDROOT
BRANCH   2   3
HETATM    3  C   UNL     1      -9.782  12.242  68.378  1.00  0.00    -0.191 C  
HETATM    4  C   UNL     1     -10.557  11.371  69.046  1.00  0.00    -0.224 C  
BRANCH   4   5
HETATM    5  C   UNL     1     -10.354   9.882  69.051  1.00  0.00    -0.224 C  
BRANCH   5   6
HETATM    6  C   UNL     1      -9.403   9.436  70.124  1.00  0.00    -0.276 C  
HETATM    7  C   UNL     1      -9.761   9.024  71.353  1.00  0.00    -0.369 C  
BRANCH   7   8
HETATM    8  C   UNL     1     -11.180   8.993  71.843  1.00  0.00    -0.438 C  
BRANCH   8   9
HETATM    9  C   UNL     1     -11.568   7.649  72.386  1.00  0.00    -0.386 C  
HETATM   10  C   UNL     1     -11.969   6.605  71.639  1.00  0.00    -0.395 C  
BRANCH  10  11
HETATM   11  C   UNL     1     -12.013   6.632  70.137  1.00  0.00    -0.250 C  
BRANCH  11  12
HETATM   12  C   UNL     1     -10.856   5.868  69.502  1.00  0.00    -0.442 C  
BRANCH  12  13
HETATM   13  C   UNL     1     -10.890   6.023  67.981  1.00  0.00    -0.374 C  
BRANCH  13  14
HETATM   14  C   UNL     1      -9.739   6.900  67.499  1.00  0.00    -0.162 C  
BRANCH  14  15
HETATM   15  C   UNL     1      -8.504   6.066  67.158  1.00  0.00    -0.104 C  
BRANCH  15  16
HETATM   16  C   UNL     1      -8.916   4.711  66.588  1.00  0.00    -0.112 C  
BRANCH  16  17
HETATM   17  C   UNL     1      -8.813   4.683  65.066  1.00  0.00    -0.150 C  
HETATM   18  C   UNL     1      -8.938   3.277  64.524  1.00  0.00    -0.123 C  
HETATM   19  O   UNL     1      -9.108   2.270  65.194  1.00  0.00    -0.131 OA 
HETATM   20  O   UNL     1      -8.839   3.236  63.175  1.00  0.00    -0.092 OA 
ENDBRANCH  16  17
ENDBRANCH  15  16
ENDBRANCH  14  15
ENDBRANCH  13  14
ENDBRANCH  12  13
ENDBRANCH  11  12
ENDBRANCH  10  11
ENDBRANCH   8   9
ENDBRANCH   7   8
ENDBRANCH   5   6
ENDBRANCH   4   5
ENDBRANCH   2   3
TORSDOF 12
ENDMDL
MODEL      401
REMARK 921   NORMALIZED FREE ENERGY PREDICTED BY IDOCK:   -2.67 KCAL/MOL
REMARK 922        TOTAL FREE ENERGY PREDICTED BY IDOCK:   -6.39 KCAL/MOL
REMARK 923 INTER-LIGAND FREE ENERGY PREDICTED BY IDOCK:   -5.26 KCAL/MOL
REMARK 924 INTRA-LIGAND FREE ENERGY PREDICTED BY IDOCK:   -1.13 KCAL/MOL
REMARK 927      BINDING AFFINITY PREDICTED BY RF-SCORE:    0.00 PKD
ROOT
HETATM    1  C   UNL     1      -7.543   6.552  67.316  1.00  0.00    -0.096 C  
HETATM    2  C   UNL     1      -8.367   7.121  66.172  1.00  0.00    -0.133 C  
ENDROOT
BRANCH   2   3
HETATM    3  C   UNL     1      -7.893   6.617  64.838  1.00  0.00    -0.115 C  
HETATM    4  C   UNL     1      -7.577   7.381  63.779  1.00  0.00    -0.118 C  
BRANCH   4   5
HETATM    5  C   UNL     1      -7.686   8.879  63.750  1.00  0.00    -0.129 C  
BRANCH   5   6
HETATM    6  C   UNL     1      -9.003   9.349  63.204  1.00  0.00    -0.166 C  
HETATM    7  C   UNL     1      -9.670  10.440  63.622  1.00  0.00    -0.338 C  
BRANCH   7   8
HETATM    8  C   UNL     1      -9.202  11.328  64.739  1.00  0.00    -0.107 C  
BRANCH   8   9
HETATM    9  C   UNL     1     -10.296  11.641  65.717  1.00  0.00    -0.292 C  
HETATM   10  C   UNL     1     -11.071  12.739  65.679  1.00  0.00    -0.311 C  
BRANCH  10  11
HETATM   11  C   UNL     1     -10.985  13.773  64.593  1.00  0.00    -0.406 C  
BRANCH  11  12
HETATM   12  C   UNL     1     -10.938  15.197  65.138  1.00  0.00    -0.428 C  
BRANCH  12  13
HETATM   13  C   UNL     1      -9.774  15.351  66.117  1.00  0.00    -0.347 C  
BRANCH  13  14
HETATM   14  C   UNL     1     -10.285  15.569  67.538  1.00  0.00    -0.254 C  
BRANCH  14  15
HETATM   15  C   UNL     1      -9.148  15.931  68.493  1.00  0.00    -0.200 C  
BRANCH  15  16
HETATM   16  C   UNL     1      -8.763  17.400  68.331  1.00  0.00    -0.271 C  
BRANCH  16  17
HETATM   17  C   UNL     1      -9.991  18.294  68.190  1.00  0.00    -0.377 C  
HETATM   18  C   UNL     1     -10.022  18.992  66.849  1.00  0.00    -0.351 C  
HETATM   19  O   UNL     1      -9.189  18.869  65.965  1.00  0.00    -0.468 OA 
HETATM   20  O   UNL     1     -11.103  19.795  66.714  1.00  0.00    -0.354 OA 
ENDBRANCH  16  17
ENDBRANCH  15  16
ENDBRANCH  14  15
ENDBRANCH  13  14
ENDBRANCH  12  13
ENDBRANCH  11  12
ENDBRANCH  10  11
ENDBRANCH   8   9
ENDBRANCH   7   8
ENDBRANCH   5   6
ENDBRANCH   4   5
ENDBRANCH   2   3
TORSDOF 12
ENDMDL
MODEL      402
REMARK 921   NORMALIZED FREE ENERGY PREDICTED BY IDOCK:   -2.65 KCAL/MOL
REMARK 922        TOTAL FREE ENERGY PREDICTED BY IDOCK:   -6.36 KCAL/MOL
REMARK 923 INTER-LIGAND FREE ENERGY PREDICTED BY IDOCK:   -4.49 KCAL/MOL
REMARK 924 INTRA-LIGAND FREE ENERGY PREDICTED BY IDOCK:   -1.87 KCAL/MOL
REMARK 927      BINDING AFFINITY PREDICTED BY RF-SCORE:    0.00 PKD
ROOT
HETATM    1  C   UNL     1     -11.206  11.194  66.484  1.00  0.00    -0.151 C  
HETATM    2  C   UNL     1     -11.094  12.074  65.249  1.00  0.00    -0.367 C  
ENDROOT
BRANCH   2   3
HETATM    3  C   UNL     1     -12.269  13.001  65.116  1.00  0.00    -0.507 C  
HETATM    4  C   UNL     1     -12.655  13.911  66.025  1.00  0.00    -0.467 C  
BRANCH   4   5
HETATM    5  C   UNL     1     -11.984  14.124  67.353  1.00  0.00    -0.439 C  
BRANCH   5   6
HETATM    6  C   UNL     1     -11.588  15.556  67.573  1.00  0.00    -0.110 C  
HETATM    7  C   UNL     1     -10.464  16.129  67.108  1.00  0.00    -0.305 C  
BRANCH   7   8
HETATM    8  C   UNL     1      -9.412  15.393  66.328  1.00  0.00    -0.342 C  
BRANCH   8   9
HETATM    9  C   UNL     1      -8.085  15.382  67.028  1.00  0.00    -0.265 C  
HETATM   10  C   UNL     1      -7.641  14.391  67.821  1.00  0.00    -0.175 C  
BRANCH  10  11
HETATM   11  C   UNL     1      -8.402  13.116  68.053  1.00  0.00    -0.162 C  
BRANCH  11  12
HETATM   12  C   UNL     1      -7.798  11.928  67.312  1.00  0.00    -0.168 C  
BRANCH  12  13
HETATM   13  C   UNL     1      -8.075  10.631  68.074  1.00  0.00    -0.112 C  
BRANCH  13  14
HETATM   14  C   UNL     1      -7.495   9.431  67.332  1.00  0.00    -0.091 C  
BRANCH  14  15
HETATM   15  C   UNL     1      -6.384   9.851  66.370  1.00  0.00    -0.071 C  
BRANCH  15  16
HETATM   16  C   UNL     1      -6.462   9.040  65.079  1.00  0.00    -0.065 C  
BRANCH  16  17
HETATM   17  C   UNL     1      -7.887   8.969  64.541  1.00  0.00    -0.123 C  
HETATM   18  C   UNL     1      -8.066   9.844  63.320  1.00  0.00    -0.154 C  
HETATM   19  O   UNL     1      -7.196  10.527  62.802  1.00  0.00    -0.139 OA 
HETATM   20  O   UNL     1      -9.329   9.798  62.837  1.00  0.00    -0.273 OA 
ENDBRANCH  16  17
ENDBRANCH  15  16
ENDBRANCH  14  15
ENDBRANCH  13  14
ENDBRANCH  12  13
ENDBRANCH  11  12
ENDBRANCH  10  11
ENDBRANCH   8   9
ENDBRANCH   7   8
ENDBRANCH   5   6
ENDBRANCH   4   5
ENDBRANCH   2   3
TORSDOF 12
ENDMDL
MODEL      403
REMARK 921   NORMALIZED FREE ENERGY PREDICTED BY IDOCK:   -2.65 KCAL/MOL
REMARK 922        TOTAL FREE ENERGY PREDICTED BY IDOCK:   -6.35 KCAL/MOL
REMARK 923 INTER-LIGAND FREE ENERGY PREDICTED BY IDOCK:   -5.58 KCAL/MOL
REMARK 924 INTRA-LIGAND FREE ENERGY PREDICTED BY IDOCK:   -0.77 KCAL/MOL
REMARK 927      BINDING AFFINITY PREDICTED BY RF-SCORE:    0.00 PKD
ROOT
HETATM    1  C   UNL     1      -9.895  20.143  67.016  1.00  0.00    -0.595 C  
HETATM    2  C   UNL     1     -10.486  18.744  66.937  1.00  0.00    -0.472 C  
ENDROOT
BRANCH   2   3
HETATM    3  C   UNL     1      -9.454  17.724  66.547  1.00  0.00    -0.300 C  
HETATM    4  C   UNL     1      -9.565  16.396  66.713  1.00  0.00    -0.263 C  
BRANCH   4   5
HETATM    5  C   UNL     1     -10.739  15.714  67.357  1.00  0.00    -0.309 C  
BRANCH   5   6
HETATM    6  C   UNL     1     -11.289  14.599  66.514  1.00  0.00    -0.353 C  
HETATM    7  C   UNL     1     -11.956  13.530  66.984  1.00  0.00    -0.440 C  
BRANCH   7   8
HETATM    8  C   UNL     1     -12.211  13.280  68.443  1.00  0.00    -0.100 C  
BRANCH   8   9
HETATM    9  C   UNL     1     -11.637  11.974  68.907  1.00  0.00    -0.377 C  
HETATM   10  C   UNL     1     -12.016  11.319  70.019  1.00  0.00    -0.447 C  
BRANCH  10  11
HETATM   11  C   UNL     1     -13.130  11.786  70.914  1.00  0.00     0.042 C  
BRANCH  11  12
HETATM   12  C   UNL     1     -13.487  10.765  71.989  1.00  0.00    -0.296 C  
BRANCH  12  13
HETATM   13  C   UNL     1     -12.398   9.697  72.089  1.00  0.00    -0.290 C  
BRANCH  13  14
HETATM   14  C   UNL     1     -12.920   8.343  71.618  1.00  0.00    -0.355 C  
BRANCH  14  15
HETATM   15  C   UNL     1     -11.853   7.256  71.742  1.00  0.00    -0.330 C  
BRANCH  15  16
HETATM   16  C   UNL     1     -11.072   7.124  70.436  1.00  0.00    -0.309 C  
BRANCH  16  17
HETATM   17  C   UNL     1     -11.268   5.752  69.798  1.00  0.00    -0.179 C  
HETATM   18  C   UNL     1     -10.053   5.328  69.004  1.00  0.00    -0.202 C  
HETATM   19  O   UNL     1      -9.026   5.977  68.876  1.00  0.00    -0.123 OA 
HETATM   20  O   UNL     1     -10.217   4.116  68.424  1.00  0.00     0.118 OA 
ENDBRANCH  16  17
ENDBRANCH  15  16
ENDBRANCH  14  15
ENDBRANCH  13  14
ENDBRANCH  12  13
ENDBRANCH  11  12
ENDBRANCH  10  11
ENDBRANCH   8   9
ENDBRANCH   7   8
ENDBRANCH   5   6
ENDBRANCH   4   5
ENDBRANCH   2   3
TORSDOF 12
ENDMDL
MODEL      404
REMARK 921   NORMALIZED FREE ENERGY PREDICTED BY IDOCK:   -2.64 KCAL/MOL
REMARK 922        TOTAL FREE ENERGY PREDICTED BY IDOCK:   -6.34 KCAL/MOL
REMARK 923 INTER-LIGAND FREE ENERGY PREDICTED BY IDOCK:   -5.28 KCAL/MOL
REMARK 924 INTRA-LIGAND FREE ENERGY PREDICTED BY IDOCK:   -1.07 KCAL/MOL
REMARK 927      BINDING AFFINITY PREDICTED BY RF-SCORE:    0.00 PKD
ROOT
HETATM    1  C   UNL     1      -9.645   3.788  67.085  1.00  0.00    -0.218 C  
HETATM    2  C   UNL     1      -9.539   5.034  67.951  1.00  0.00    -0.176 C  
ENDROOT
BRANCH   2   3
HETATM    3  C   UNL     1     -10.773   5.886  67.856  1.00  0.00    -0.336 C  
HETATM    4  C   UNL     1     -11.421   6.443  68.893  1.00  0.00    -0.148 C  
BRANCH   4   5
HETATM    5  C   UNL     1     -11.028   6.270  70.333  1.00  0.00    -0.385 C  
BRANCH   5   6
HETATM    6  C   UNL     1     -12.010   6.904  71.276  1.00  0.00    -0.402 C  
HETATM    7  C   UNL     1     -11.939   8.166  71.735  1.00  0.00    -0.348 C  
BRANCH   7   8
HETATM    8  C   UNL     1     -10.826   9.116  71.397  1.00  0.00    -0.419 C  
BRANCH   8   9
HETATM    9  C   UNL     1      -9.476   8.558  71.736  1.00  0.00    -0.328 C  
HETATM   10  C   UNL     1      -8.362   8.743  71.004  1.00  0.00    -0.208 C  
BRANCH  10  11
HETATM   11  C   UNL     1      -8.314   9.604  69.774  1.00  0.00    -0.183 C  
BRANCH  11  12
HETATM   12  C   UNL     1      -8.882   8.904  68.544  1.00  0.00    -0.134 C  
BRANCH  12  13
HETATM   13  C   UNL     1      -9.939   9.783  67.875  1.00  0.00    -0.196 C  
BRANCH  13  14
HETATM   14  C   UNL     1      -9.692  11.257  68.180  1.00  0.00    -0.188 C  
BRANCH  14  15
HETATM   15  C   UNL     1     -10.839  12.133  67.677  1.00  0.00    -0.272 C  
BRANCH  15  16
HETATM   16  C   UNL     1     -12.052  12.004  68.597  1.00  0.00    -0.145 C  
BRANCH  16  17
HETATM   17  C   UNL     1     -11.925  12.895  69.828  1.00  0.00    -0.365 C  
HETATM   18  C   UNL     1     -11.536  14.308  69.455  1.00  0.00    -0.287 C  
HETATM   19  O   UNL     1     -11.348  14.717  68.320  1.00  0.00    -0.270 OA 
HETATM   20  O   UNL     1     -11.411  15.109  70.540  1.00  0.00    -0.267 OA 
ENDBRANCH  16  17
ENDBRANCH  15  16
ENDBRANCH  14  15
ENDBRANCH  13  14
ENDBRANCH  12  13
ENDBRANCH  11  12
ENDBRANCH  10  11
ENDBRANCH   8   9
ENDBRANCH   7   8
ENDBRANCH   5   6
ENDBRANCH   4   5
ENDBRANCH   2   3
TORSDOF 12
ENDMDL
MODEL      405
REMARK 921   NORMALIZED FREE ENERGY PREDICTED BY IDOCK:   -2.64 KCAL/MOL
REMARK 922        TOTAL FREE ENERGY PREDICTED BY IDOCK:   -6.34 KCAL/MOL
REMARK 923 INTER-LIGAND FREE ENERGY PREDICTED BY IDOCK:   -4.88 KCAL/MOL
REMARK 924 INTRA-LIGAND FREE ENERGY PREDICTED BY IDOCK:   -1.45 KCAL/MOL
REMARK 927      BINDING AFFINITY PREDICTED BY RF-SCORE:    0.00 PKD
ROOT
HETATM    1  C   UNL     1     -12.238  15.269  64.023  1.00  0.00    -0.018 C  
HETATM    2  C   UNL     1     -12.624  13.965  64.703  1.00  0.00    -0.287 C  
ENDROOT
BRANCH   2   3
HETATM    3  C   UNL     1     -12.126  12.770  63.940  1.00  0.00    -0.562 C  
HETATM    4  C   UNL     1     -11.350  11.792  64.437  1.00  0.00    -0.373 C  
BRANCH   4   5
HETATM    5  C   UNL     1     -10.821  11.757  65.842  1.00  0.00    -0.339 C  
BRANCH   5   6
HETATM    6  C   UNL     1      -9.521  12.494  65.985  1.00  0.00    -0.154 C  
HETATM    7  C   UNL     1      -9.379  13.717  66.525  1.00  0.00    -0.249 C  
BRANCH   7   8
HETATM    8  C   UNL     1     -10.526  14.546  67.029  1.00  0.00    -0.268 C  
BRANCH   8   9
HETATM    9  C   UNL     1     -10.351  14.952  68.463  1.00  0.00    -0.237 C  
HETATM   10  C   UNL     1     -11.075  14.474  69.491  1.00  0.00    -0.285 C  
BRANCH  10  11
HETATM   11  C   UNL     1     -12.119  13.405  69.340  1.00  0.00    -0.321 C  
BRANCH  11  12
HETATM   12  C   UNL     1     -11.979  12.296  70.378  1.00  0.00    -0.349 C  
BRANCH  12  13
HETATM   13  C   UNL     1     -12.612  11.003  69.861  1.00  0.00    -0.202 C  
BRANCH  13  14
HETATM   14  C   UNL     1     -11.543   9.956  69.567  1.00  0.00    -0.056 C  
BRANCH  14  15
HETATM   15  C   UNL     1     -10.188  10.360  70.147  1.00  0.00    -0.050 C  
BRANCH  15  16
HETATM   16  C   UNL     1      -9.197   9.202  70.044  1.00  0.00    -0.209 C  
BRANCH  16  17
HETATM   17  C   UNL     1      -8.272   9.142  71.256  1.00  0.00    -0.084 C  
HETATM   18  C   UNL     1      -8.959   8.520  72.451  1.00  0.00    -0.214 C  
HETATM   19  O   UNL     1     -10.107   8.103  72.473  1.00  0.00    -0.249 OA 
HETATM   20  O   UNL     1      -8.152   8.467  73.536  1.00  0.00    -0.378 OA 
ENDBRANCH  16  17
ENDBRANCH  15  16
ENDBRANCH  14  15
ENDBRANCH  13  14
ENDBRANCH  12  13
ENDBRANCH  11  12
ENDBRANCH  10  11
ENDBRANCH   8   9
ENDBRANCH   7   8
ENDBRANCH   5   6
ENDBRANCH   4   5
ENDBRANCH   2   3
TORSDOF 12
ENDMDL
MODEL      406
REMARK 921   NORMALIZED FREE ENERGY PREDICTED BY IDOCK:   -2.62 KCAL/MOL
REMARK 922        TOTAL FREE ENERGY PREDICTED BY IDOCK:   -6.31 KCAL/MOL
REMARK 923 INTER-LIGAND FREE ENERGY PREDICTED BY IDOCK:   -4.42 KCAL/MOL
REMARK 924 INTRA-LIGAND FREE ENERGY PREDICTED BY IDOCK:   -1.88 KCAL/MOL
REMARK 927      BINDING AFFINITY PREDICTED BY RF-SCORE:    0.00 PKD
ROOT
HETATM    1  C   UNL     1      -6.509  10.099  67.176  1.00  0.00    -0.068 C  
HETATM    2  C   UNL     1      -6.440  11.519  67.714  1.00  0.00    -0.064 C  
ENDROOT
BRANCH   2   3
HETATM    3  C   UNL     1      -7.695  11.900  68.448  1.00  0.00    -0.131 C  
HETATM    4  C   UNL     1      -8.379  13.045  68.288  1.00  0.00    -0.158 C  
BRANCH   4   5
HETATM    5  C   UNL     1      -7.970  14.157  67.364  1.00  0.00    -0.201 C  
BRANCH   5   6
HETATM    6  C   UNL     1      -9.030  14.481  66.351  1.00  0.00    -0.153 C  
HETATM    7  C   UNL     1      -9.811  15.575  66.370  1.00  0.00    -0.298 C  
BRANCH   7   8
HETATM    8  C   UNL     1      -9.760  16.619  67.448  1.00  0.00    -0.251 C  
BRANCH   8   9
HETATM    9  C   UNL     1     -11.111  16.900  68.037  1.00  0.00    -0.190 C  
HETATM   10  C   UNL     1     -11.537  16.453  69.232  1.00  0.00    -0.084 C  
BRANCH  10  11
HETATM   11  C   UNL     1     -10.673  15.663  70.174  1.00  0.00    -0.355 C  
BRANCH  11  12
HETATM   12  C   UNL     1     -11.486  14.877  71.197  1.00  0.00    -0.312 C  
BRANCH  12  13
HETATM   13  C   UNL     1     -12.435  13.909  70.490  1.00  0.00    -0.422 C  
BRANCH  13  14
HETATM   14  C   UNL     1     -11.726  12.601  70.155  1.00  0.00    -0.247 C  
BRANCH  14  15
HETATM   15  C   UNL     1     -11.947  12.202  68.696  1.00  0.00    -0.290 C  
BRANCH  15  16
HETATM   16  C   UNL     1     -11.669  10.713  68.502  1.00  0.00    -0.200 C  
BRANCH  16  17
HETATM   17  C   UNL     1     -10.679  10.184  69.536  1.00  0.00    -0.277 C  
HETATM   18  C   UNL     1     -11.380   9.427  70.642  1.00  0.00    -0.292 C  
HETATM   19  O   UNL     1     -12.584   9.240  70.722  1.00  0.00    -0.166 OA 
HETATM   20  O   UNL     1     -10.515   8.959  71.572  1.00  0.00    -0.267 OA 
ENDBRANCH  16  17
ENDBRANCH  15  16
ENDBRANCH  14  15
ENDBRANCH  13  14
ENDBRANCH  12  13
ENDBRANCH  11  12
ENDBRANCH  10  11
ENDBRANCH   8   9
ENDBRANCH   7   8
ENDBRANCH   5   6
ENDBRANCH   4   5
ENDBRANCH   2   3
TORSDOF 12
ENDMDL
MODEL      407
REMARK 921   NORMALIZED FREE ENERGY PREDICTED BY IDOCK:   -2.62 KCAL/MOL
REMARK 922        TOTAL FREE ENERGY PREDICTED BY IDOCK:   -6.31 KCAL/MOL
REMARK 923 INTER-LIGAND FREE ENERGY PREDICTED BY IDOCK:   -4.78 KCAL/MOL
REMARK 924 INTRA-LIGAND FREE ENERGY PREDICTED BY IDOCK:   -1.53 KCAL/MOL
REMARK 927      BINDING AFFINITY PREDICTED BY RF-SCORE:    0.00 PKD
ROOT
HETATM    1  C   UNL     1     -10.859  16.439  69.255  1.00  0.00    -0.327 C  
HETATM    2  C   UNL     1     -11.607  15.418  68.414  1.00  0.00    -0.368 C  
ENDROOT
BRANCH   2   3
HETATM    3  C   UNL     1     -11.485  14.031  68.981  1.00  0.00    -0.337 C  
HETATM    4  C   UNL     1     -11.600  12.888  68.285  1.00  0.00    -0.374 C  
BRANCH   4   5
HETATM    5  C   UNL     1     -11.909  12.814  66.817  1.00  0.00    -0.452 C  
BRANCH   5   6
HETATM    6  C   UNL     1     -10.669  12.812  65.968  1.00  0.00    -0.295 C  
HETATM    7  C   UNL     1      -9.833  11.769  65.821  1.00  0.00    -0.267 C  
BRANCH   7   8
HETATM    8  C   UNL     1     -10.003  10.456  66.529  1.00  0.00    -0.271 C  
BRANCH   8   9
HETATM    9  C   UNL     1      -8.948   9.461  66.148  1.00  0.00    -0.197 C  
HETATM   10  C   UNL     1      -7.695   9.774  65.770  1.00  0.00    -0.110 C  
BRANCH  10  11
HETATM   11  C   UNL     1      -7.166  11.180  65.750  1.00  0.00     0.193 C  
BRANCH  11  12
HETATM   12  C   UNL     1      -6.042  11.400  66.757  1.00  0.00    -0.145 C  
BRANCH  12  13
HETATM   13  C   UNL     1      -6.528  11.081  68.172  1.00  0.00    -0.057 C  
BRANCH  13  14
HETATM   14  C   UNL     1      -7.530  12.127  68.650  1.00  0.00    -0.105 C  
BRANCH  14  15
HETATM   15  C   UNL     1      -7.026  13.546  68.389  1.00  0.00    -0.105 C  
BRANCH  15  16
HETATM   16  C   UNL     1      -8.085  14.360  67.648  1.00  0.00    -0.188 C  
BRANCH  16  17
HETATM   17  C   UNL     1      -7.527  15.688  67.144  1.00  0.00    -0.253 C  
HETATM   18  C   UNL     1      -8.441  16.324  66.121  1.00  0.00    -0.278 C  
HETATM   19  O   UNL     1      -9.502  15.862  65.732  1.00  0.00    -0.332 OA 
HETATM   20  O   UNL     1      -7.953  17.499  65.658  1.00  0.00    -0.512 OA 
ENDBRANCH  16  17
ENDBRANCH  15  16
ENDBRANCH  14  15
ENDBRANCH  13  14
ENDBRANCH  12  13
ENDBRANCH  11  12
ENDBRANCH  10  11
ENDBRANCH   8   9
ENDBRANCH   7   8
ENDBRANCH   5   6
ENDBRANCH   4   5
ENDBRANCH   2   3
TORSDOF 12
ENDMDL
MODEL      408
REMARK 921   NORMALIZED FREE ENERGY PREDICTED BY IDOCK:   -2.62 KCAL/MOL
REMARK 922        TOTAL FREE ENERGY PREDICTED BY IDOCK:   -6.31 KCAL/MOL
REMARK 923 INTER-LIGAND FREE ENERGY PREDICTED BY IDOCK:   -4.56 KCAL/MOL
REMARK 924 INTRA-LIGAND FREE ENERGY PREDICTED BY IDOCK:   -1.74 KCAL/MOL
REMARK 927      BINDING AFFINITY PREDICTED BY RF-SCORE:    0.00 PKD
ROOT
HETATM    1  C   UNL     1     -11.253  11.237  66.482  1.00  0.00    -0.222 C  
HETATM    2  C   UNL     1     -11.203  12.037  65.190  1.00  0.00    -0.368 C  
ENDROOT
BRANCH   2   3
HETATM    3  C   UNL     1     -12.348  13.004  65.088  1.00  0.00    -0.536 C  
HETATM    4  C   UNL     1     -12.668  13.938  65.998  1.00  0.00    -0.410 C  
BRANCH   4   5
HETATM    5  C   UNL     1     -11.941  14.143  67.297  1.00  0.00    -0.449 C  
BRANCH   5   6
HETATM    6  C   UNL     1     -11.478  15.560  67.479  1.00  0.00    -0.184 C  
HETATM    7  C   UNL     1     -10.310  16.057  67.032  1.00  0.00    -0.292 C  
BRANCH   7   8
HETATM    8  C   UNL     1      -9.274  15.239  66.317  1.00  0.00    -0.350 C  
BRANCH   8   9
HETATM    9  C   UNL     1      -7.989  15.146  67.085  1.00  0.00    -0.248 C  
HETATM   10  C   UNL     1      -7.627  14.106  67.857  1.00  0.00    -0.162 C  
BRANCH  10  11
HETATM   11  C   UNL     1      -8.447  12.855  67.994  1.00  0.00    -0.178 C  
BRANCH  11  12
HETATM   12  C   UNL     1      -7.951  11.726  67.096  1.00  0.00    -0.166 C  
BRANCH  12  13
HETATM   13  C   UNL     1      -6.424  11.745  67.015  1.00  0.00    -0.147 C  
BRANCH  13  14
HETATM   14  C   UNL     1      -5.917  10.645  66.088  1.00  0.00    -0.121 C  
BRANCH  14  15
HETATM   15  C   UNL     1      -6.974  10.249  65.057  1.00  0.00    -0.112 C  
BRANCH  15  16
HETATM   16  C   UNL     1      -7.141   8.731  65.022  1.00  0.00    -0.080 C  
BRANCH  16  17
HETATM   17  C   UNL     1      -7.118   8.127  66.422  1.00  0.00    -0.075 C  
HETATM   18  C   UNL     1      -8.515   7.952  66.977  1.00  0.00    -0.124 C  
HETATM   19  O   UNL     1      -9.550   8.242  66.398  1.00  0.00    -0.217 OA 
HETATM   20  O   UNL     1      -8.509   7.425  68.223  1.00  0.00    -0.124 OA 
ENDBRANCH  16  17
ENDBRANCH  15  16
ENDBRANCH  14  15
ENDBRANCH  13  14
ENDBRANCH  12  13
ENDBRANCH  11  12
ENDBRANCH  10  11
ENDBRANCH   8   9
ENDBRANCH   7   8
ENDBRANCH   5   6
ENDBRANCH   4   5
ENDBRANCH   2   3
TORSDOF 12
ENDMDL
MODEL      409
REMARK 921   NORMALIZED FREE ENERGY PREDICTED BY IDOCK:   -2.62 KCAL/MOL
REMARK 922        TOTAL FREE ENERGY PREDICTED BY IDOCK:   -6.30 KCAL/MOL
REMARK 923 INTER-LIGAND FREE ENERGY PREDICTED BY IDOCK:   -5.50 KCAL/MOL
REMARK 924 INTRA-LIGAND FREE ENERGY PREDICTED BY IDOCK:   -0.79 KCAL/MOL
REMARK 927      BINDING AFFINITY PREDICTED BY RF-SCORE:    0.00 PKD
ROOT
HETATM    1  C   UNL     1      -7.908   2.660  65.568  1.00  0.00    -0.078 C  
HETATM    2  C   UNL     1      -9.201   3.459  65.521  1.00  0.00    -0.153 C  
ENDROOT
BRANCH   2   3
HETATM    3  C   UNL     1      -9.622   3.919  66.888  1.00  0.00    -0.226 C  
HETATM    4  C   UNL     1      -9.840   5.193  67.253  1.00  0.00    -0.191 C  
BRANCH   4   5
HETATM    5  C   UNL     1      -9.660   6.379  66.349  1.00  0.00    -0.156 C  
BRANCH   5   6
HETATM    6  C   UNL     1      -8.726   7.405  66.926  1.00  0.00    -0.126 C  
HETATM    7  C   UNL     1      -8.977   8.724  67.002  1.00  0.00    -0.151 C  
BRANCH   7   8
HETATM    8  C   UNL     1     -10.225   9.369  66.472  1.00  0.00    -0.308 C  
BRANCH   8   9
HETATM    9  C   UNL     1      -9.950  10.272  65.306  1.00  0.00    -0.387 C  
HETATM   10  C   UNL     1     -10.512  11.481  65.120  1.00  0.00    -0.340 C  
BRANCH  10  11
HETATM   11  C   UNL     1     -11.446  12.118  66.109  1.00  0.00    -0.429 C  
BRANCH  11  12
HETATM   12  C   UNL     1     -10.922  13.448  66.640  1.00  0.00    -0.297 C  
BRANCH  12  13
HETATM   13  C   UNL     1     -12.080  14.420  66.870  1.00  0.00    -0.386 C  
BRANCH  13  14
HETATM   14  C   UNL     1     -12.033  14.995  68.282  1.00  0.00    -0.214 C  
BRANCH  14  15
HETATM   15  C   UNL     1     -10.665  15.603  68.594  1.00  0.00    -0.256 C  
BRANCH  15  16
HETATM   16  C   UNL     1     -10.554  17.003  67.995  1.00  0.00    -0.373 C  
BRANCH  16  17
HETATM   17  C   UNL     1      -9.194  17.633  68.279  1.00  0.00    -0.283 C  
HETATM   18  C   UNL     1      -9.314  19.113  68.568  1.00  0.00    -0.374 C  
HETATM   19  O   UNL     1     -10.355  19.750  68.587  1.00  0.00    -0.435 OA 
HETATM   20  O   UNL     1      -8.113  19.686  68.813  1.00  0.00    -0.340 OA 
ENDBRANCH  16  17
ENDBRANCH  15  16
ENDBRANCH  14  15
ENDBRANCH  13  14
ENDBRANCH  12  13
ENDBRANCH  11  12
ENDBRANCH  10  11
ENDBRANCH   8   9
ENDBRANCH   7   8
ENDBRANCH   5   6
ENDBRANCH   4   5
ENDBRANCH   2   3
TORSDOF 12
ENDMDL
MODEL      410
REMARK 921   NORMALIZED FREE ENERGY PREDICTED BY IDOCK:   -2.61 KCAL/MOL
REMARK 922        TOTAL FREE ENERGY PREDICTED BY IDOCK:   -6.29 KCAL/MOL
REMARK 923 INTER-LIGAND FREE ENERGY PREDICTED BY IDOCK:   -4.70 KCAL/MOL
REMARK 924 INTRA-LIGAND FREE ENERGY PREDICTED BY IDOCK:   -1.59 KCAL/MOL
REMARK 927      BINDING AFFINITY PREDICTED BY RF-SCORE:    0.00 PKD
ROOT
HETATM    1  C   UNL     1      -7.708   3.823  65.210  1.00  0.00    -0.082 C  
HETATM    2  C   UNL     1      -7.878   3.198  66.585  1.00  0.00    -0.077 C  
ENDROOT
BRANCH   2   3
HETATM    3  C   UNL     1      -9.286   3.335  67.090  1.00  0.00    -0.212 C  
HETATM    4  C   UNL     1      -9.640   3.663  68.344  1.00  0.00    -0.164 C  
BRANCH   4   5
HETATM    5  C   UNL     1      -8.669   3.913  69.463  1.00  0.00    -0.127 C  
BRANCH   5   6
HETATM    6  C   UNL     1      -9.261   3.623  70.813  1.00  0.00    -0.201 C  
HETATM    7  C   UNL     1      -9.868   4.527  71.602  1.00  0.00    -0.258 C  
BRANCH   7   8
HETATM    8  C   UNL     1     -10.001   5.982  71.257  1.00  0.00    -0.223 C  
BRANCH   8   9
HETATM    9  C   UNL     1     -11.376   6.330  70.768  1.00  0.00    -0.397 C  
HETATM   10  C   UNL     1     -11.655   6.833  69.552  1.00  0.00    -0.183 C  
BRANCH  10  11
HETATM   11  C   UNL     1     -10.617   7.046  68.488  1.00  0.00    -0.235 C  
BRANCH  11  12
HETATM   12  C   UNL     1     -10.508   8.504  68.056  1.00  0.00    -0.249 C  
BRANCH  12  13
HETATM   13  C   UNL     1      -9.882   9.342  69.171  1.00  0.00    -0.174 C  
BRANCH  13  14
HETATM   14  C   UNL     1     -10.623  10.665  69.336  1.00  0.00    -0.270 C  
BRANCH  14  15
HETATM   15  C   UNL     1     -11.532  10.951  68.141  1.00  0.00    -0.368 C  
BRANCH  15  16
HETATM   16  C   UNL     1     -11.713  12.456  67.957  1.00  0.00    -0.414 C  
BRANCH  16  17
HETATM   17  C   UNL     1     -10.556  13.243  68.563  1.00  0.00    -0.270 C  
HETATM   18  C   UNL     1     -10.917  14.698  68.767  1.00  0.00    -0.258 C  
HETATM   19  O   UNL     1     -11.993  15.207  68.497  1.00  0.00    -0.304 OA 
HETATM   20  O   UNL     1      -9.895  15.410  69.297  1.00  0.00    -0.230 OA 
ENDBRANCH  16  17
ENDBRANCH  15  16
ENDBRANCH  14  15
ENDBRANCH  13  14
ENDBRANCH  12  13
ENDBRANCH  11  12
ENDBRANCH  10  11
ENDBRANCH   8   9
ENDBRANCH   7   8
ENDBRANCH   5   6
ENDBRANCH   4   5
ENDBRANCH   2   3
TORSDOF 12
ENDMDL
MODEL      411
REMARK 921   NORMALIZED FREE ENERGY PREDICTED BY IDOCK:   -2.60 KCAL/MOL
REMARK 922        TOTAL FREE ENERGY PREDICTED BY IDOCK:   -6.27 KCAL/MOL
REMARK 923 INTER-LIGAND FREE ENERGY PREDICTED BY IDOCK:   -5.40 KCAL/MOL
REMARK 924 INTRA-LIGAND FREE ENERGY PREDICTED BY IDOCK:   -0.87 KCAL/MOL
REMARK 927      BINDING AFFINITY PREDICTED BY RF-SCORE:    0.00 PKD
ROOT
HETATM    1  C   UNL     1      -8.557   1.902  67.728  1.00  0.00    -0.105 C  
HETATM    2  C   UNL     1      -9.016   2.470  69.062  1.00  0.00    -0.170 C  
ENDROOT
BRANCH   2   3
HETATM    3  C   UNL     1      -8.675   3.927  69.194  1.00  0.00    -0.127 C  
HETATM    4  C   UNL     1      -9.298   4.808  69.995  1.00  0.00    -0.213 C  
BRANCH   4   5
HETATM    5  C   UNL     1     -10.474   4.477  70.869  1.00  0.00     0.063 C  
BRANCH   5   6
HETATM    6  C   UNL     1     -10.449   5.223  72.173  1.00  0.00    -0.278 C  
HETATM    7  C   UNL     1     -10.979   6.441  72.379  1.00  0.00    -0.284 C  
BRANCH   7   8
HETATM    8  C   UNL     1     -11.643   7.255  71.306  1.00  0.00    -0.316 C  
BRANCH   8   9
HETATM    9  C   UNL     1     -12.635   8.234  71.862  1.00  0.00    -0.379 C  
HETATM   10  C   UNL     1     -12.566   9.569  71.711  1.00  0.00    -0.490 C  
BRANCH  10  11
HETATM   11  C   UNL     1     -11.509  10.254  70.892  1.00  0.00    -0.425 C  
BRANCH  11  12
HETATM   12  C   UNL     1     -12.061  10.860  69.607  1.00  0.00    -0.400 C  
BRANCH  12  13
HETATM   13  C   UNL     1     -11.251  10.380  68.402  1.00  0.00    -0.318 C  
BRANCH  13  14
HETATM   14  C   UNL     1     -10.351  11.492  67.875  1.00  0.00    -0.203 C  
BRANCH  14  15
HETATM   15  C   UNL     1      -9.197  10.932  67.044  1.00  0.00    -0.165 C  
BRANCH  15  16
HETATM   16  C   UNL     1      -9.662   9.726  66.230  1.00  0.00    -0.295 C  
BRANCH  16  17
HETATM   17  C   UNL     1      -9.200   9.812  64.779  1.00  0.00    -0.319 C  
HETATM   18  C   UNL     1     -10.046  10.780  63.982  1.00  0.00    -0.345 C  
HETATM   19  O   UNL     1     -10.982  11.431  64.418  1.00  0.00    -0.341 OA 
HETATM   20  O   UNL     1      -9.653  10.860  62.689  1.00  0.00    -0.289 OA 
ENDBRANCH  16  17
ENDBRANCH  15  16
ENDBRANCH  14  15
ENDBRANCH  13  14
ENDBRANCH  12  13
ENDBRANCH  11  12
ENDBRANCH  10  11
ENDBRANCH   8   9
ENDBRANCH   7   8
ENDBRANCH   5   6
ENDBRANCH   4   5
ENDBRANCH   2   3
TORSDOF 12
ENDMDL
MODEL      412
REMARK 921   NORMALIZED FREE ENERGY PREDICTED BY IDOCK:   -2.60 KCAL/MOL
REMARK 922        TOTAL FREE ENERGY PREDICTED BY IDOCK:   -6.27 KCAL/MOL
REMARK 923 INTER-LIGAND FREE ENERGY PREDICTED BY IDOCK:   -4.45 KCAL/MOL
REMARK 924 INTRA-LIGAND FREE ENERGY PREDICTED BY IDOCK:   -1.81 KCAL/MOL
REMARK 927      BINDING AFFINITY PREDICTED BY RF-SCORE:    0.00 PKD
ROOT
HETATM    1  C   UNL     1      -7.257  11.594  68.650  1.00  0.00    -0.104 C  
HETATM    2  C   UNL     1      -8.509  11.444  67.800  1.00  0.00    -0.128 C  
ENDROOT
BRANCH   2   3
HETATM    3  C   UNL     1      -9.725  11.981  68.499  1.00  0.00    -0.165 C  
HETATM    4  C   UNL     1     -10.579  11.264  69.248  1.00  0.00    -0.187 C  
BRANCH   4   5
HETATM    5  C   UNL     1     -10.470   9.783  69.478  1.00  0.00    -0.250 C  
BRANCH   5   6
HETATM    6  C   UNL     1      -9.381   9.431  70.450  1.00  0.00    -0.317 C  
HETATM    7  C   UNL     1      -9.575   8.907  71.673  1.00  0.00    -0.363 C  
BRANCH   7   8
HETATM    8  C   UNL     1     -10.930   8.636  72.261  1.00  0.00    -0.392 C  
BRANCH   8   9
HETATM    9  C   UNL     1     -11.134   7.185  72.582  1.00  0.00    -0.330 C  
HETATM   10  C   UNL     1     -11.508   6.246  71.694  1.00  0.00    -0.351 C  
BRANCH  10  11
HETATM   11  C   UNL     1     -11.702   6.524  70.230  1.00  0.00    -0.430 C  
BRANCH  11  12
HETATM   12  C   UNL     1     -10.739   5.736  69.349  1.00  0.00    -0.397 C  
BRANCH  12  13
HETATM   13  C   UNL     1     -11.035   6.000  67.872  1.00  0.00    -0.334 C  
BRANCH  13  14
HETATM   14  C   UNL     1     -10.013   6.965  67.279  1.00  0.00    -0.224 C  
BRANCH  14  15
HETATM   15  C   UNL     1      -9.089   6.262  66.285  1.00  0.00    -0.166 C  
BRANCH  15  16
HETATM   16  C   UNL     1      -7.974   7.204  65.836  1.00  0.00    -0.116 C  
BRANCH  16  17
HETATM   17  C   UNL     1      -7.210   7.782  67.023  1.00  0.00    -0.089 C  
HETATM   18  C   UNL     1      -5.833   8.261  66.620  1.00  0.00    -0.044 C  
HETATM   19  O   UNL     1      -5.366   8.211  65.493  1.00  0.00    -0.031 OA 
HETATM   20  O   UNL     1      -5.141   8.769  67.666  1.00  0.00    -0.033 OA 
ENDBRANCH  16  17
ENDBRANCH  15  16
ENDBRANCH  14  15
ENDBRANCH  13  14
ENDBRANCH  12  13
ENDBRANCH  11  12
ENDBRANCH  10  11
ENDBRANCH   8   9
ENDBRANCH   7   8
ENDBRANCH   5   6
ENDBRANCH   4   5
ENDBRANCH   2   3
TORSDOF 12
ENDMDL
MODEL      413
REMARK 921   NORMALIZED FREE ENERGY PREDICTED BY IDOCK:   -2.59 KCAL/MOL
REMARK 922        TOTAL FREE ENERGY PREDICTED BY IDOCK:   -6.26 KCAL/MOL
REMARK 923 INTER-LIGAND FREE ENERGY PREDICTED BY IDOCK:   -5.39 KCAL/MOL
REMARK 924 INTRA-LIGAND FREE ENERGY PREDICTED BY IDOCK:   -0.86 KCAL/MOL
REMARK 927      BINDING AFFINITY PREDICTED BY RF-SCORE:    0.00 PKD
ROOT
HETATM    1  C   UNL     1      -6.313   4.886  67.201  1.00  0.00    -0.040 C  
HETATM    2  C   UNL     1      -7.564   5.728  67.392  1.00  0.00    -0.096 C  
ENDROOT
BRANCH   2   3
HETATM    3  C   UNL     1      -7.386   7.121  66.860  1.00  0.00    -0.088 C  
HETATM    4  C   UNL     1      -8.348   8.055  66.773  1.00  0.00    -0.116 C  
BRANCH   4   5
HETATM    5  C   UNL     1      -9.781   7.838  67.167  1.00  0.00    -0.243 C  
BRANCH   5   6
HETATM    6  C   UNL     1     -10.069   8.299  68.567  1.00  0.00    -0.217 C  
HETATM    7  C   UNL     1     -10.206   9.582  68.947  1.00  0.00    -0.213 C  
BRANCH   7   8
HETATM    8  C   UNL     1     -10.047  10.750  68.017  1.00  0.00    -0.198 C  
BRANCH   8   9
HETATM    9  C   UNL     1     -11.361  11.236  67.480  1.00  0.00    -0.360 C  
HETATM   10  C   UNL     1     -11.750  12.524  67.449  1.00  0.00    -0.432 C  
BRANCH  10  11
HETATM   11  C   UNL     1     -10.875  13.662  67.889  1.00  0.00    -0.264 C  
BRANCH  11  12
HETATM   12  C   UNL     1     -11.400  15.019  67.432  1.00  0.00    -0.338 C  
BRANCH  12  13
HETATM   13  C   UNL     1     -10.833  15.372  66.057  1.00  0.00    -0.315 C  
BRANCH  13  14
HETATM   14  C   UNL     1      -9.839  16.524  66.159  1.00  0.00    -0.355 C  
BRANCH  14  15
HETATM   15  C   UNL     1     -10.529  17.877  65.986  1.00  0.00    -0.293 C  
BRANCH  15  16
HETATM   16  C   UNL     1     -10.517  18.654  67.301  1.00  0.00    -0.468 C  
BRANCH  16  17
HETATM   17  C   UNL     1      -9.627  19.890  67.218  1.00  0.00    -0.502 C  
HETATM   18  C   UNL     1      -8.268  19.640  67.832  1.00  0.00    -0.309 C  
HETATM   19  O   UNL     1      -7.897  18.589  68.332  1.00  0.00    -0.291 OA 
HETATM   20  O   UNL     1      -7.469  20.731  67.773  1.00  0.00    -0.255 OA 
ENDBRANCH  16  17
ENDBRANCH  15  16
ENDBRANCH  14  15
ENDBRANCH  13  14
ENDBRANCH  12  13
ENDBRANCH  11  12
ENDBRANCH  10  11
ENDBRANCH   8   9
ENDBRANCH   7   8
ENDBRANCH   5   6
ENDBRANCH   4   5
ENDBRANCH   2   3
TORSDOF 12
ENDMDL
MODEL      414
REMARK 921   NORMALIZED FREE ENERGY PREDICTED BY IDOCK:   -2.55 KCAL/MOL
REMARK 922        TOTAL FREE ENERGY PREDICTED BY IDOCK:   -6.18 KCAL/MOL
REMARK 923 INTER-LIGAND FREE ENERGY PREDICTED BY IDOCK:   -4.80 KCAL/MOL
REMARK 924 INTRA-LIGAND FREE ENERGY PREDICTED BY IDOCK:   -1.39 KCAL/MOL
REMARK 927      BINDING AFFINITY PREDICTED BY RF-SCORE:    0.00 PKD
ROOT
HETATM    1  C   UNL     1      -7.531   7.439  69.141  1.00  0.00    -0.099 C  
HETATM    2  C   UNL     1      -6.827   6.670  70.248  1.00  0.00    -0.058 C  
ENDROOT
BRANCH   2   3
HETATM    3  C   UNL     1      -5.589   7.379  70.719  1.00  0.00    -0.027 C  
HETATM    4  C   UNL     1      -5.464   8.051  71.876  1.00  0.00    -0.035 C  
BRANCH   4   5
HETATM    5  C   UNL     1      -6.570   8.232  72.877  1.00  0.00    -0.107 C  
BRANCH   5   6
HETATM    6  C   UNL     1      -6.954   6.945  73.548  1.00  0.00    -0.074 C  
HETATM    7  C   UNL     1      -8.185   6.643  73.997  1.00  0.00    -0.135 C  
BRANCH   7   8
HETATM    8  C   UNL     1      -9.353   7.584  73.929  1.00  0.00    -0.301 C  
BRANCH   8   9
HETATM    9  C   UNL     1     -10.647   6.871  73.669  1.00  0.00    -0.371 C  
HETATM   10  C   UNL     1     -11.394   7.012  72.559  1.00  0.00    -0.301 C  
BRANCH  10  11
HETATM   11  C   UNL     1     -10.984   7.862  71.390  1.00  0.00    -0.264 C  
BRANCH  11  12
HETATM   12  C   UNL     1     -11.105   9.355  71.677  1.00  0.00    -0.409 C  
BRANCH  12  13
HETATM   13  C   UNL     1     -12.457   9.880  71.194  1.00  0.00    -0.464 C  
BRANCH  13  14
HETATM   14  C   UNL     1     -12.272  10.982  70.155  1.00  0.00    -0.424 C  
BRANCH  14  15
HETATM   15  C   UNL     1     -10.932  10.849  69.431  1.00  0.00    -0.304 C  
BRANCH  15  16
HETATM   16  C   UNL     1     -11.151  10.452  67.973  1.00  0.00    -0.359 C  
BRANCH  16  17
HETATM   17  C   UNL     1     -10.285   9.260  67.577  1.00  0.00    -0.300 C  
HETATM   18  C   UNL     1      -9.865   9.334  66.125  1.00  0.00    -0.293 C  
HETATM   19  O   UNL     1     -10.160  10.226  65.346  1.00  0.00    -0.293 OA 
HETATM   20  O   UNL     1      -9.103   8.277  65.758  1.00  0.00    -0.176 OA 
ENDBRANCH  16  17
ENDBRANCH  15  16
ENDBRANCH  14  15
ENDBRANCH  13  14
ENDBRANCH  12  13
ENDBRANCH  11  12
ENDBRANCH  10  11
ENDBRANCH   8   9
ENDBRANCH   7   8
ENDBRANCH   5   6
ENDBRANCH   4   5
ENDBRANCH   2   3
TORSDOF 12
ENDMDL
MODEL      415
REMARK 921   NORMALIZED FREE ENERGY PREDICTED BY IDOCK:   -2.54 KCAL/MOL
REMARK 922        TOTAL FREE ENERGY PREDICTED BY IDOCK:   -6.16 KCAL/MOL
REMARK 923 INTER-LIGAND FREE ENERGY PREDICTED BY IDOCK:   -4.35 KCAL/MOL
REMARK 924 INTRA-LIGAND FREE ENERGY PREDICTED BY IDOCK:   -1.82 KCAL/MOL
REMARK 927      BINDING AFFINITY PREDICTED BY RF-SCORE:    0.00 PKD
ROOT
HETATM    1  C   UNL     1      -9.793  11.753  68.270  1.00  0.00    -0.198 C  
HETATM    2  C   UNL     1     -11.188  11.153  68.182  1.00  0.00    -0.356 C  
ENDROOT
BRANCH   2   3
HETATM    3  C   UNL     1     -12.040  11.549  69.353  1.00  0.00    -0.345 C  
HETATM    4  C   UNL     1     -12.226  10.823  70.468  1.00  0.00    -0.457 C  
BRANCH   4   5
HETATM    5  C   UNL     1     -11.631   9.464  70.706  1.00  0.00    -0.364 C  
BRANCH   5   6
HETATM    6  C   UNL     1     -10.267   9.536  71.331  1.00  0.00    -0.170 C  
HETATM    7  C   UNL     1      -9.658   8.528  71.979  1.00  0.00    -0.371 C  
BRANCH   7   8
HETATM    8  C   UNL     1     -10.285   7.183  72.208  1.00  0.00    -0.213 C  
BRANCH   8   9
HETATM    9  C   UNL     1      -9.427   6.290  73.056  1.00  0.00    -0.145 C  
HETATM   10  C   UNL     1      -9.076   5.031  72.735  1.00  0.00    -0.137 C  
BRANCH  10  11
HETATM   11  C   UNL     1      -9.445   4.376  71.435  1.00  0.00    -0.220 C  
BRANCH  11  12
HETATM   12  C   UNL     1      -8.231   4.072  70.564  1.00  0.00    -0.073 C  
BRANCH  12  13
HETATM   13  C   UNL     1      -8.525   4.415  69.104  1.00  0.00    -0.094 C  
BRANCH  13  14
HETATM   14  C   UNL     1      -8.956   5.872  68.965  1.00  0.00    -0.122 C  
BRANCH  14  15
HETATM   15  C   UNL     1     -10.277   5.996  68.207  1.00  0.00    -0.218 C  
BRANCH  15  16
HETATM   16  C   UNL     1     -10.042   6.592  66.820  1.00  0.00    -0.239 C  
BRANCH  16  17
HETATM   17  C   UNL     1      -8.704   7.320  66.737  1.00  0.00    -0.132 C  
HETATM   18  C   UNL     1      -8.832   8.640  66.010  1.00  0.00    -0.178 C  
HETATM   19  O   UNL     1      -9.864   9.097  65.544  1.00  0.00    -0.220 OA 
HETATM   20  O   UNL     1      -7.650   9.294  65.922  1.00  0.00    -0.096 OA 
ENDBRANCH  16  17
ENDBRANCH  15  16
ENDBRANCH  14  15
ENDBRANCH  13  14
ENDBRANCH  12  13
ENDBRANCH  11  12
ENDBRANCH  10  11
ENDBRANCH   8   9
ENDBRANCH   7   8
ENDBRANCH   5   6
ENDBRANCH   4   5
ENDBRANCH   2   3
TORSDOF 12
ENDMDL
MODEL      416
REMARK 921   NORMALIZED FREE ENERGY PREDICTED BY IDOCK:   -2.54 KCAL/MOL
REMARK 922        TOTAL FREE ENERGY PREDICTED BY IDOCK:   -6.16 KCAL/MOL
REMARK 923 INTER-LIGAND FREE ENERGY PREDICTED BY IDOCK:   -5.71 KCAL/MOL
REMARK 924 INTRA-LIGAND FREE ENERGY PREDICTED BY IDOCK:   -0.45 KCAL/MOL
REMARK 927      BINDING AFFINITY PREDICTED BY RF-SCORE:    0.00 PKD
ROOT
HETATM    1  C   UNL     1      -7.384   2.797  69.889  1.00  0.00    -0.044 C  
HETATM    2  C   UNL     1      -8.177   2.328  68.679  1.00  0.00    -0.074 C  
ENDROOT
BRANCH   2   3
HETATM    3  C   UNL     1      -8.034   3.270  67.518  1.00  0.00    -0.077 C  
HETATM    4  C   UNL     1      -8.585   4.492  67.429  1.00  0.00    -0.104 C  
BRANCH   4   5
HETATM    5  C   UNL     1      -9.473   5.102  68.476  1.00  0.00    -0.175 C  
BRANCH   5   6
HETATM    6  C   UNL     1     -10.742   5.660  67.898  1.00  0.00    -0.241 C  
HETATM    7  C   UNL     1     -11.269   6.860  68.201  1.00  0.00    -0.082 C  
BRANCH   7   8
HETATM    8  C   UNL     1     -10.674   7.804  69.206  1.00  0.00    -0.156 C  
BRANCH   8   9
HETATM    9  C   UNL     1     -10.752   7.271  70.606  1.00  0.00    -0.252 C  
HETATM   10  C   UNL     1     -11.535   7.774  71.577  1.00  0.00    -0.298 C  
BRANCH  10  11
HETATM   11  C   UNL     1     -12.498   8.906  71.359  1.00  0.00    -0.357 C  
BRANCH  11  12
HETATM   12  C   UNL     1     -11.801  10.258  71.249  1.00  0.00    -0.425 C  
BRANCH  12  13
HETATM   13  C   UNL     1     -12.742  11.291  70.628  1.00  0.00    -0.314 C  
BRANCH  13  14
HETATM   14  C   UNL     1     -12.538  12.662  71.264  1.00  0.00    -0.339 C  
BRANCH  14  15
HETATM   15  C   UNL     1     -12.106  13.701  70.230  1.00  0.00    -0.427 C  
BRANCH  15  16
HETATM   16  C   UNL     1     -12.709  15.065  70.559  1.00  0.00    -0.406 C  
BRANCH  16  17
HETATM   17  C   UNL     1     -11.878  15.815  71.596  1.00  0.00    -0.539 C  
HETATM   18  C   UNL     1     -12.645  16.016  72.884  1.00  0.00    -0.480 C  
HETATM   19  O   UNL     1     -13.784  15.633  73.100  1.00  0.00    -0.520 OA 
HETATM   20  O   UNL     1     -11.922  16.688  73.810  1.00  0.00    -0.397 OA 
ENDBRANCH  16  17
ENDBRANCH  15  16
ENDBRANCH  14  15
ENDBRANCH  13  14
ENDBRANCH  12  13
ENDBRANCH  11  12
ENDBRANCH  10  11
ENDBRANCH   8   9
ENDBRANCH   7   8
ENDBRANCH   5   6
ENDBRANCH   4   5
ENDBRANCH   2   3
TORSDOF 12
ENDMDL
MODEL      417
REMARK 921   NORMALIZED FREE ENERGY PREDICTED BY IDOCK:   -2.53 KCAL/MOL
REMARK 922        TOTAL FREE ENERGY PREDICTED BY IDOCK:   -6.14 KCAL/MOL
REMARK 923 INTER-LIGAND FREE ENERGY PREDICTED BY IDOCK:   -5.03 KCAL/MOL
REMARK 924 INTRA-LIGAND FREE ENERGY PREDICTED BY IDOCK:   -1.11 KCAL/MOL
REMARK 927      BINDING AFFINITY PREDICTED BY RF-SCORE:    0.00 PKD
ROOT
HETATM    1  C   UNL     1      -7.871   9.237  70.265  1.00  0.00    -0.148 C  
HETATM    2  C   UNL     1      -9.178   9.091  69.501  1.00  0.00    -0.152 C  
ENDROOT
BRANCH   2   3
HETATM    3  C   UNL     1      -9.856  10.416  69.298  1.00  0.00    -0.243 C  
HETATM    4  C   UNL     1      -9.478  11.364  68.425  1.00  0.00    -0.194 C  
BRANCH   4   5
HETATM    5  C   UNL     1      -8.279  11.262  67.526  1.00  0.00    -0.124 C  
BRANCH   5   6
HETATM    6  C   UNL     1      -7.206  12.250  67.885  1.00  0.00    -0.106 C  
HETATM    7  C   UNL     1      -7.279  13.578  67.687  1.00  0.00    -0.175 C  
BRANCH   7   8
HETATM    8  C   UNL     1      -8.443  14.262  67.030  1.00  0.00    -0.190 C  
BRANCH   8   9
HETATM    9  C   UNL     1      -8.325  15.758  67.074  1.00  0.00    -0.259 C  
HETATM   10  C   UNL     1      -9.298  16.594  67.477  1.00  0.00    -0.219 C  
BRANCH  10  11
HETATM   11  C   UNL     1     -10.622  16.126  68.011  1.00  0.00    -0.304 C  
BRANCH  11  12
HETATM   12  C   UNL     1     -10.811  16.458  69.487  1.00  0.00    -0.338 C  
BRANCH  12  13
HETATM   13  C   UNL     1     -11.467  15.284  70.216  1.00  0.00    -0.326 C  
BRANCH  13  14
HETATM   14  C   UNL     1     -12.985  15.335  70.069  1.00  0.00    -0.026 C  
BRANCH  14  15
HETATM   15  C   UNL     1     -13.682  15.226  71.425  1.00  0.00    -0.602 C  
BRANCH  15  16
HETATM   16  C   UNL     1     -12.918  14.275  72.343  1.00  0.00    -0.478 C  
BRANCH  16  17
HETATM   17  C   UNL     1     -13.687  12.978  72.579  1.00  0.00    -0.501 C  
HETATM   18  C   UNL     1     -13.213  11.875  71.660  1.00  0.00    -0.262 C  
HETATM   19  O   UNL     1     -12.325  11.975  70.828  1.00  0.00    -0.375 OA 
HETATM   20  O   UNL     1     -13.893  10.720  71.852  1.00  0.00    -0.010 OA 
ENDBRANCH  16  17
ENDBRANCH  15  16
ENDBRANCH  14  15
ENDBRANCH  13  14
ENDBRANCH  12  13
ENDBRANCH  11  12
ENDBRANCH  10  11
ENDBRANCH   8   9
ENDBRANCH   7   8
ENDBRANCH   5   6
ENDBRANCH   4   5
ENDBRANCH   2   3
TORSDOF 12
ENDMDL
MODEL      418
REMARK 921   NORMALIZED FREE ENERGY PREDICTED BY IDOCK:   -2.51 KCAL/MOL
REMARK 922        TOTAL FREE ENERGY PREDICTED BY IDOCK:   -6.12 KCAL/MOL
REMARK 923 INTER-LIGAND FREE ENERGY PREDICTED BY IDOCK:   -5.17 KCAL/MOL
REMARK 924 INTRA-LIGAND FREE ENERGY PREDICTED BY IDOCK:   -0.94 KCAL/MOL
REMARK 927      BINDING AFFINITY PREDICTED BY RF-SCORE:    0.00 PKD
ROOT
HETATM    1  C   UNL     1      -7.763   6.861  67.182  1.00  0.00    -0.108 C  
HETATM    2  C   UNL     1      -8.655   7.598  66.195  1.00  0.00    -0.160 C  
ENDROOT
BRANCH   2   3
HETATM    3  C   UNL     1      -8.205   7.393  64.776  1.00  0.00    -0.060 C  
HETATM    4  C   UNL     1      -8.097   8.353  63.843  1.00  0.00    -0.143 C  
BRANCH   4   5
HETATM    5  C   UNL     1      -8.447   9.797  64.064  1.00  0.00    -0.186 C  
BRANCH   5   6
HETATM    6  C   UNL     1      -9.661  10.219  63.286  1.00  0.00    -0.305 C  
HETATM    7  C   UNL     1     -10.476  11.237  63.614  1.00  0.00    -0.464 C  
BRANCH   7   8
HETATM    8  C   UNL     1     -10.307  12.078  64.847  1.00  0.00    -0.316 C  
BRANCH   8   9
HETATM    9  C   UNL     1     -11.593  12.254  65.599  1.00  0.00    -0.433 C  
HETATM   10  C   UNL     1     -12.543  13.157  65.297  1.00  0.00    -0.531 C  
BRANCH  10  11
HETATM   11  C   UNL     1     -12.466  14.070  64.107  1.00  0.00    -0.279 C  
BRANCH  11  12
HETATM   12  C   UNL     1     -12.007  15.478  64.473  1.00  0.00    -0.172 C  
BRANCH  12  13
HETATM   13  C   UNL     1     -10.580  15.444  65.022  1.00  0.00    -0.445 C  
BRANCH  13  14
HETATM   14  C   UNL     1     -10.417  16.430  66.174  1.00  0.00    -0.321 C  
BRANCH  14  15
HETATM   15  C   UNL     1      -9.026  16.337  66.799  1.00  0.00    -0.259 C  
BRANCH  15  16
HETATM   16  C   UNL     1      -9.125  16.329  68.323  1.00  0.00    -0.197 C  
BRANCH  16  17
HETATM   17  C   UNL     1     -10.136  15.299  68.818  1.00  0.00    -0.219 C  
HETATM   18  C   UNL     1     -11.117  15.907  69.796  1.00  0.00    -0.324 C  
HETATM   19  O   UNL     1     -11.130  17.073  70.157  1.00  0.00     0.022 OA 
HETATM   20  O   UNL     1     -12.015  15.001  70.250  1.00  0.00    -0.274 OA 
ENDBRANCH  16  17
ENDBRANCH  15  16
ENDBRANCH  14  15
ENDBRANCH  13  14
ENDBRANCH  12  13
ENDBRANCH  11  12
ENDBRANCH  10  11
ENDBRANCH   8   9
ENDBRANCH   7   8
ENDBRANCH   5   6
ENDBRANCH   4   5
ENDBRANCH   2   3
TORSDOF 12
ENDMDL
MODEL      419
REMARK 921   NORMALIZED FREE ENERGY PREDICTED BY IDOCK:   -2.51 KCAL/MOL
REMARK 922        TOTAL FREE ENERGY PREDICTED BY IDOCK:   -6.11 KCAL/MOL
REMARK 923 INTER-LIGAND FREE ENERGY PREDICTED BY IDOCK:   -5.09 KCAL/MOL
REMARK 924 INTRA-LIGAND FREE ENERGY PREDICTED BY IDOCK:   -1.02 KCAL/MOL
REMARK 927      BINDING AFFINITY PREDICTED BY RF-SCORE:    0.00 PKD
ROOT
HETATM    1  C   UNL     1      -9.610  17.558  68.803  1.00  0.00    -0.277 C  
HETATM    2  C   UNL     1     -10.770  17.369  67.838  1.00  0.00    -0.351 C  
ENDROOT
BRANCH   2   3
HETATM    3  C   UNL     1     -11.275  15.954  67.845  1.00  0.00    -0.297 C  
HETATM    4  C   UNL     1     -11.769  15.304  68.912  1.00  0.00    -0.362 C  
BRANCH   4   5
HETATM    5  C   UNL     1     -11.860  15.886  70.294  1.00  0.00    -0.343 C  
BRANCH   5   6
HETATM    6  C   UNL     1     -13.175  15.589  70.956  1.00  0.00    -0.539 C  
HETATM    7  C   UNL     1     -13.450  14.484  71.672  1.00  0.00    -0.452 C  
BRANCH   7   8
HETATM    8  C   UNL     1     -12.478  13.357  71.875  1.00  0.00    -0.059 C  
BRANCH   8   9
HETATM    9  C   UNL     1     -13.095  12.016  71.609  1.00  0.00    -0.422 C  
HETATM   10  C   UNL     1     -12.925  11.301  70.482  1.00  0.00    -0.056 C  
BRANCH  10  11
HETATM   11  C   UNL     1     -12.025  11.730  69.359  1.00  0.00    -0.361 C  
BRANCH  11  12
HETATM   12  C   UNL     1     -11.094  10.616  68.893  1.00  0.00    -0.314 C  
BRANCH  12  13
HETATM   13  C   UNL     1     -10.859   9.613  70.024  1.00  0.00    -0.302 C  
BRANCH  13  14
HETATM   14  C   UNL     1      -9.367   9.409  70.266  1.00  0.00    -0.294 C  
BRANCH  14  15
HETATM   15  C   UNL     1      -8.939   7.976  69.948  1.00  0.00    -0.145 C  
BRANCH  15  16
HETATM   16  C   UNL     1      -7.733   7.976  69.010  1.00  0.00    -0.100 C  
BRANCH  16  17
HETATM   17  C   UNL     1      -8.107   8.452  67.610  1.00  0.00    -0.118 C  
HETATM   18  C   UNL     1      -7.811   7.398  66.566  1.00  0.00    -0.098 C  
HETATM   19  O   UNL     1      -7.340   6.293  66.785  1.00  0.00    -0.076 OA 
HETATM   20  O   UNL     1      -8.130   7.811  65.317  1.00  0.00    -0.120 OA 
ENDBRANCH  16  17
ENDBRANCH  15  16
ENDBRANCH  14  15
ENDBRANCH  13  14
ENDBRANCH  12  13
ENDBRANCH  11  12
ENDBRANCH  10  11
ENDBRANCH   8   9
ENDBRANCH   7   8
ENDBRANCH   5   6
ENDBRANCH   4   5
ENDBRANCH   2   3
TORSDOF 12
ENDMDL
MODEL      420
REMARK 921   NORMALIZED FREE ENERGY PREDICTED BY IDOCK:   -2.51 KCAL/MOL
REMARK 922        TOTAL FREE ENERGY PREDICTED BY IDOCK:   -6.11 KCAL/MOL
REMARK 923 INTER-LIGAND FREE ENERGY PREDICTED BY IDOCK:   -5.11 KCAL/MOL
REMARK 924 INTRA-LIGAND FREE ENERGY PREDICTED BY IDOCK:   -1.00 KCAL/MOL
REMARK 927      BINDING AFFINITY PREDICTED BY RF-SCORE:    0.00 PKD
ROOT
HETATM    1  C   UNL     1      -8.852   9.869  64.087  1.00  0.00    -0.251 C  
HETATM    2  C   UNL     1      -9.030  10.193  65.562  1.00  0.00    -0.202 C  
ENDROOT
BRANCH   2   3
HETATM    3  C   UNL     1      -9.701   9.071  66.301  1.00  0.00    -0.345 C  
HETATM    4  C   UNL     1     -10.537   9.210  67.344  1.00  0.00    -0.315 C  
BRANCH   4   5
HETATM    5  C   UNL     1     -10.909  10.526  67.965  1.00  0.00    -0.312 C  
BRANCH   5   6
HETATM    6  C   UNL     1     -12.006  10.391  68.983  1.00  0.00     0.006 C  
HETATM    7  C   UNL     1     -12.329  11.319  69.901  1.00  0.00    -0.301 C  
BRANCH   7   8
HETATM    8  C   UNL     1     -11.598  12.621  70.065  1.00  0.00    -0.199 C  
BRANCH   8   9
HETATM    9  C   UNL     1     -12.521  13.803  70.022  1.00  0.00    -0.301 C  
HETATM   10  C   UNL     1     -12.142  15.081  70.204  1.00  0.00    -0.378 C  
BRANCH  10  11
HETATM   11  C   UNL     1     -10.713  15.499  70.406  1.00  0.00    -0.342 C  
BRANCH  11  12
HETATM   12  C   UNL     1     -10.163  16.301  69.231  1.00  0.00    -0.269 C  
BRANCH  12  13
HETATM   13  C   UNL     1     -10.726  15.765  67.914  1.00  0.00    -0.302 C  
BRANCH  13  14
HETATM   14  C   UNL     1      -9.749  14.792  67.262  1.00  0.00    -0.230 C  
BRANCH  14  15
HETATM   15  C   UNL     1      -9.001  15.443  66.099  1.00  0.00    -0.294 C  
BRANCH  15  16
HETATM   16  C   UNL     1      -8.036  16.508  66.615  1.00  0.00    -0.320 C  
BRANCH  16  17
HETATM   17  C   UNL     1      -8.255  17.851  65.924  1.00  0.00     0.022 C  
HETATM   18  C   UNL     1      -7.808  19.004  66.794  1.00  0.00    -0.251 C  
HETATM   19  O   UNL     1      -7.322  18.906  67.910  1.00  0.00    -0.235 OA 
HETATM   20  O   UNL     1      -8.004  20.203  66.197  1.00  0.00    -0.294 OA 
ENDBRANCH  16  17
ENDBRANCH  15  16
ENDBRANCH  14  15
ENDBRANCH  13  14
ENDBRANCH  12  13
ENDBRANCH  11  12
ENDBRANCH  10  11
ENDBRANCH   8   9
ENDBRANCH   7   8
ENDBRANCH   5   6
ENDBRANCH   4   5
ENDBRANCH   2   3
TORSDOF 12
ENDMDL
MODEL      421
REMARK 921   NORMALIZED FREE ENERGY PREDICTED BY IDOCK:   -2.49 KCAL/MOL
REMARK 922        TOTAL FREE ENERGY PREDICTED BY IDOCK:   -6.08 KCAL/MOL
REMARK 923 INTER-LIGAND FREE ENERGY PREDICTED BY IDOCK:   -4.40 KCAL/MOL
REMARK 924 INTRA-LIGAND FREE ENERGY PREDICTED BY IDOCK:   -1.68 KCAL/MOL
REMARK 927      BINDING AFFINITY PREDICTED BY RF-SCORE:    0.00 PKD
ROOT
HETATM    1  C   UNL     1      -7.930   7.051  68.822  1.00  0.00    -0.120 C  
HETATM    2  C   UNL     1      -7.347   6.384  70.057  1.00  0.00    -0.086 C  
ENDROOT
BRANCH   2   3
HETATM    3  C   UNL     1      -6.276   7.225  70.692  1.00  0.00    -0.035 C  
HETATM    4  C   UNL     1      -6.419   7.967  71.803  1.00  0.00    -0.044 C  
BRANCH   4   5
HETATM    5  C   UNL     1      -7.700   8.103  72.575  1.00  0.00    -0.169 C  
BRANCH   5   6
HETATM    6  C   UNL     1      -8.123   6.813  73.217  1.00  0.00    -0.114 C  
HETATM    7  C   UNL     1      -9.392   6.465  73.493  1.00  0.00    -0.145 C  
BRANCH   7   8
HETATM    8  C   UNL     1     -10.577   7.351  73.232  1.00  0.00    -0.442 C  
BRANCH   8   9
HETATM    9  C   UNL     1     -11.567   6.719  72.298  1.00  0.00    -0.311 C  
HETATM   10  C   UNL     1     -12.240   7.373  71.334  1.00  0.00    -0.374 C  
BRANCH  10  11
HETATM   11  C   UNL     1     -12.028   8.827  71.019  1.00  0.00    -0.291 C  
BRANCH  11  12
HETATM   12  C   UNL     1     -11.094   9.042  69.833  1.00  0.00    -0.155 C  
BRANCH  12  13
HETATM   13  C   UNL     1      -9.795   9.704  70.295  1.00  0.00    -0.321 C  
BRANCH  13  14
HETATM   14  C   UNL     1      -9.207  10.574  69.189  1.00  0.00    -0.183 C  
BRANCH  14  15
HETATM   15  C   UNL     1     -10.294  11.100  68.252  1.00  0.00    -0.198 C  
BRANCH  15  16
HETATM   16  C   UNL     1     -10.012  12.551  67.868  1.00  0.00    -0.212 C  
BRANCH  16  17
HETATM   17  C   UNL     1     -10.890  13.522  68.651  1.00  0.00    -0.281 C  
HETATM   18  C   UNL     1     -10.958  14.876  67.980  1.00  0.00    -0.279 C  
HETATM   19  O   UNL     1     -10.399  15.181  66.938  1.00  0.00    -0.263 OA 
HETATM   20  O   UNL     1     -11.728  15.751  68.668  1.00  0.00    -0.375 OA 
ENDBRANCH  16  17
ENDBRANCH  15  16
ENDBRANCH  14  15
ENDBRANCH  13  14
ENDBRANCH  12  13
ENDBRANCH  11  12
ENDBRANCH  10  11
ENDBRANCH   8   9
ENDBRANCH   7   8
ENDBRANCH   5   6
ENDBRANCH   4   5
ENDBRANCH   2   3
TORSDOF 12
ENDMDL
MODEL      422
REMARK 921   NORMALIZED FREE ENERGY PREDICTED BY IDOCK:   -2.48 KCAL/MOL
REMARK 922        TOTAL FREE ENERGY PREDICTED BY IDOCK:   -6.06 KCAL/MOL
REMARK 923 INTER-LIGAND FREE ENERGY PREDICTED BY IDOCK:   -5.28 KCAL/MOL
REMARK 924 INTRA-LIGAND FREE ENERGY PREDICTED BY IDOCK:   -0.78 KCAL/MOL
REMARK 927      BINDING AFFINITY PREDICTED BY RF-SCORE:    0.00 PKD
ROOT
HETATM    1  C   UNL     1      -9.818  17.127  68.130  1.00  0.00    -0.281 C  
HETATM    2  C   UNL     1     -10.510  16.263  67.087  1.00  0.00    -0.297 C  
ENDROOT
BRANCH   2   3
HETATM    3  C   UNL     1     -10.242  14.801  67.306  1.00  0.00    -0.241 C  
HETATM    4  C   UNL     1     -10.494  14.120  68.436  1.00  0.00    -0.254 C  
BRANCH   4   5
HETATM    5  C   UNL     1     -11.060  14.728  69.687  1.00  0.00    -0.299 C  
BRANCH   5   6
HETATM    6  C   UNL     1     -12.559  14.660  69.732  1.00  0.00    -0.161 C  
HETATM    7  C   UNL     1     -13.276  13.979  70.643  1.00  0.00    -0.077 C  
BRANCH   7   8
HETATM    8  C   UNL     1     -12.666  13.145  71.733  1.00  0.00    -0.270 C  
BRANCH   8   9
HETATM    9  C   UNL     1     -13.423  11.871  71.968  1.00  0.00    -0.336 C  
HETATM   10  C   UNL     1     -12.999  10.646  71.607  1.00  0.00    -0.582 C  
BRANCH  10  11
HETATM   11  C   UNL     1     -11.661  10.388  70.974  1.00  0.00    -0.430 C  
BRANCH  11  12
HETATM   12  C   UNL     1     -11.287   8.910  70.971  1.00  0.00    -0.350 C  
BRANCH  12  13
HETATM   13  C   UNL     1     -12.020   8.175  72.094  1.00  0.00    -0.413 C  
BRANCH  13  14
HETATM   14  C   UNL     1     -11.040   7.384  72.954  1.00  0.00    -0.397 C  
BRANCH  14  15
HETATM   15  C   UNL     1     -11.242   5.878  72.792  1.00  0.00    -0.317 C  
BRANCH  15  16
HETATM   16  C   UNL     1     -10.016   5.242  72.140  1.00  0.00    -0.232 C  
BRANCH  16  17
HETATM   17  C   UNL     1      -8.792   6.146  72.238  1.00  0.00    -0.137 C  
HETATM   18  C   UNL     1      -7.608   5.563  71.500  1.00  0.00    -0.104 C  
HETATM   19  O   UNL     1      -7.603   4.507  70.887  1.00  0.00    -0.054 OA 
HETATM   20  O   UNL     1      -6.511   6.352  71.585  1.00  0.00    -0.048 OA 
ENDBRANCH  16  17
ENDBRANCH  15  16
ENDBRANCH  14  15
ENDBRANCH  13  14
ENDBRANCH  12  13
ENDBRANCH  11  12
ENDBRANCH  10  11
ENDBRANCH   8   9
ENDBRANCH   7   8
ENDBRANCH   5   6
ENDBRANCH   4   5
ENDBRANCH   2   3
TORSDOF 12
ENDMDL
MODEL      423
REMARK 921   NORMALIZED FREE ENERGY PREDICTED BY IDOCK:   -2.48 KCAL/MOL
REMARK 922        TOTAL FREE ENERGY PREDICTED BY IDOCK:   -6.06 KCAL/MOL
REMARK 923 INTER-LIGAND FREE ENERGY PREDICTED BY IDOCK:   -5.10 KCAL/MOL
REMARK 924 INTRA-LIGAND FREE ENERGY PREDICTED BY IDOCK:   -0.95 KCAL/MOL
REMARK 927      BINDING AFFINITY PREDICTED BY RF-SCORE:    0.00 PKD
ROOT
HETATM    1  C   UNL     1      -6.764   3.394  70.731  1.00  0.00    -0.032 C  
HETATM    2  C   UNL     1      -7.960   4.107  70.121  1.00  0.00    -0.054 C  
ENDROOT
BRANCH   2   3
HETATM    3  C   UNL     1      -7.539   5.159  69.134  1.00  0.00    -0.069 C  
HETATM    4  C   UNL     1      -8.279   6.211  68.747  1.00  0.00    -0.108 C  
BRANCH   4   5
HETATM    5  C   UNL     1      -9.679   6.485  69.220  1.00  0.00    -0.152 C  
BRANCH   5   6
HETATM    6  C   UNL     1     -10.689   6.382  68.113  1.00  0.00    -0.359 C  
HETATM    7  C   UNL     1     -11.029   7.381  67.279  1.00  0.00    -0.234 C  
BRANCH   7   8
HETATM    8  C   UNL     1     -10.467   8.771  67.368  1.00  0.00    -0.349 C  
BRANCH   8   9
HETATM    9  C   UNL     1      -9.677   9.147  66.149  1.00  0.00    -0.357 C  
HETATM   10  C   UNL     1      -9.879  10.255  65.414  1.00  0.00    -0.362 C  
BRANCH  10  11
HETATM   11  C   UNL     1     -10.890  11.309  65.768  1.00  0.00    -0.257 C  
BRANCH  11  12
HETATM   12  C   UNL     1     -10.253  12.670  66.029  1.00  0.00    -0.287 C  
BRANCH  12  13
HETATM   13  C   UNL     1     -10.946  13.363  67.203  1.00  0.00    -0.292 C  
BRANCH  13  14
HETATM   14  C   UNL     1     -10.771  14.876  67.121  1.00  0.00    -0.296 C  
BRANCH  14  15
HETATM   15  C   UNL     1      -9.667  15.364  68.058  1.00  0.00    -0.207 C  
BRANCH  15  16
HETATM   16  C   UNL     1      -8.805  16.416  67.364  1.00  0.00    -0.194 C  
BRANCH  16  17
HETATM   17  C   UNL     1      -9.545  17.080  66.207  1.00  0.00    -0.289 C  
HETATM   18  C   UNL     1     -10.089  18.436  66.599  1.00  0.00    -0.380 C  
HETATM   19  O   UNL     1      -9.962  18.963  67.693  1.00  0.00    -0.320 OA 
HETATM   20  O   UNL     1     -10.756  19.033  65.584  1.00  0.00    -0.504 OA 
ENDBRANCH  16  17
ENDBRANCH  15  16
ENDBRANCH  14  15
ENDBRANCH  13  14
ENDBRANCH  12  13
ENDBRANCH  11  12
ENDBRANCH  10  11
ENDBRANCH   8   9
ENDBRANCH   7   8
ENDBRANCH   5   6
ENDBRANCH   4   5
ENDBRANCH   2   3
TORSDOF 12
ENDMDL
MODEL      424
REMARK 921   NORMALIZED FREE ENERGY PREDICTED BY IDOCK:   -2.46 KCAL/MOL
REMARK 922        TOTAL FREE ENERGY PREDICTED BY IDOCK:   -6.03 KCAL/MOL
REMARK 923 INTER-LIGAND FREE ENERGY PREDICTED BY IDOCK:   -4.06 KCAL/MOL
REMARK 924 INTRA-LIGAND FREE ENERGY PREDICTED BY IDOCK:   -1.96 KCAL/MOL
REMARK 927      BINDING AFFINITY PREDICTED BY RF-SCORE:    0.00 PKD
ROOT
HETATM    1  C   UNL     1     -10.931   5.724  71.043  1.00  0.00    -0.300 C  
HETATM    2  C   UNL     1     -12.066   6.735  71.086  1.00  0.00    -0.422 C  
ENDROOT
BRANCH   2   3
HETATM    3  C   UNL     1     -11.817   7.810  72.106  1.00  0.00    -0.370 C  
HETATM    4  C   UNL     1     -11.831   9.132  71.868  1.00  0.00    -0.439 C  
BRANCH   4   5
HETATM    5  C   UNL     1     -12.064   9.751  70.519  1.00  0.00    -0.244 C  
BRANCH   5   6
HETATM    6  C   UNL     1     -10.848  10.461  69.995  1.00  0.00    -0.348 C  
HETATM    7  C   UNL     1      -9.929   9.920  69.176  1.00  0.00    -0.205 C  
BRANCH   7   8
HETATM    8  C   UNL     1      -9.970   8.496  68.699  1.00  0.00    -0.197 C  
BRANCH   8   9
HETATM    9  C   UNL     1     -10.497   8.377  67.300  1.00  0.00    -0.373 C  
HETATM   10  C   UNL     1      -9.788   7.937  66.245  1.00  0.00    -0.139 C  
BRANCH  10  11
HETATM   11  C   UNL     1      -8.376   7.434  66.351  1.00  0.00    -0.127 C  
BRANCH  11  12
HETATM   12  C   UNL     1      -7.854   6.866  65.036  1.00  0.00    -0.121 C  
BRANCH  12  13
HETATM   13  C   UNL     1      -6.338   6.678  65.104  1.00  0.00    -0.042 C  
BRANCH  13  14
HETATM   14  C   UNL     1      -5.614   7.958  64.700  1.00  0.00    -0.044 C  
BRANCH  14  15
HETATM   15  C   UNL     1      -6.386   8.723  63.625  1.00  0.00    -0.084 C  
BRANCH  15  16
HETATM   16  C   UNL     1      -6.644  10.159  64.075  1.00  0.00    -0.113 C  
BRANCH  16  17
HETATM   17  C   UNL     1      -6.117  10.414  65.483  1.00  0.00    -0.123 C  
HETATM   18  C   UNL     1      -7.216  10.874  66.415  1.00  0.00    -0.140 C  
HETATM   19  O   UNL     1      -8.388  11.025  66.110  1.00  0.00    -0.166 OA 
HETATM   20  O   UNL     1      -6.760  11.112  67.667  1.00  0.00    -0.066 OA 
ENDBRANCH  16  17
ENDBRANCH  15  16
ENDBRANCH  14  15
ENDBRANCH  13  14
ENDBRANCH  12  13
ENDBRANCH  11  12
ENDBRANCH  10  11
ENDBRANCH   8   9
ENDBRANCH   7   8
ENDBRANCH   5   6
ENDBRANCH   4   5
ENDBRANCH   2   3
TORSDOF 12
ENDMDL
MODEL      425
REMARK 921   NORMALIZED FREE ENERGY PREDICTED BY IDOCK:   -2.46 KCAL/MOL
REMARK 922        TOTAL FREE ENERGY PREDICTED BY IDOCK:   -6.03 KCAL/MOL
REMARK 923 INTER-LIGAND FREE ENERGY PREDICTED BY IDOCK:   -3.76 KCAL/MOL
REMARK 924 INTRA-LIGAND FREE ENERGY PREDICTED BY IDOCK:   -2.26 KCAL/MOL
REMARK 927      BINDING AFFINITY PREDICTED BY RF-SCORE:    0.00 PKD
ROOT
HETATM    1  C   UNL     1      -6.089   6.068  69.488  1.00  0.00    -0.029 C  
HETATM    2  C   UNL     1      -7.280   6.959  69.803  1.00  0.00    -0.079 C  
ENDROOT
BRANCH   2   3
HETATM    3  C   UNL     1      -7.830   7.612  68.567  1.00  0.00    -0.121 C  
HETATM    4  C   UNL     1      -8.884   7.179  67.855  1.00  0.00    -0.124 C  
BRANCH   4   5
HETATM    5  C   UNL     1      -9.667   5.936  68.166  1.00  0.00    -0.143 C  
BRANCH   5   6
HETATM    6  C   UNL     1     -11.137   6.204  68.310  1.00  0.00    -0.336 C  
HETATM    7  C   UNL     1     -11.758   6.524  69.459  1.00  0.00    -0.162 C  
BRANCH   7   8
HETATM    8  C   UNL     1     -11.061   6.618  70.786  1.00  0.00    -0.336 C  
BRANCH   8   9
HETATM    9  C   UNL     1     -10.615   8.015  71.100  1.00  0.00    -0.235 C  
HETATM   10  C   UNL     1     -10.151   8.425  72.294  1.00  0.00    -0.382 C  
BRANCH  10  11
HETATM   11  C   UNL     1      -9.953   7.502  73.464  1.00  0.00    -0.371 C  
BRANCH  11  12
HETATM   12  C   UNL     1      -8.928   6.409  73.182  1.00  0.00    -0.133 C  
BRANCH  12  13
HETATM   13  C   UNL     1      -8.979   5.340  74.274  1.00  0.00    -0.118 C  
BRANCH  13  14
HETATM   14  C   UNL     1     -10.391   4.782  74.421  1.00  0.00    -0.324 C  
BRANCH  14  15
HETATM   15  C   UNL     1     -10.857   4.092  73.139  1.00  0.00    -0.285 C  
BRANCH  15  16
HETATM   16  C   UNL     1      -9.883   2.983  72.746  1.00  0.00    -0.197 C  
BRANCH  16  17
HETATM   17  C   UNL     1      -9.661   2.935  71.238  1.00  0.00    -0.228 C  
HETATM   18  C   UNL     1      -8.231   3.268  70.874  1.00  0.00    -0.064 C  
HETATM   19  O   UNL     1      -7.342   3.539  71.666  1.00  0.00    -0.044 OA 
HETATM   20  O   UNL     1      -8.021   3.238  69.538  1.00  0.00    -0.049 OA 
ENDBRANCH  16  17
ENDBRANCH  15  16
ENDBRANCH  14  15
ENDBRANCH  13  14
ENDBRANCH  12  13
ENDBRANCH  11  12
ENDBRANCH  10  11
ENDBRANCH   8   9
ENDBRANCH   7   8
ENDBRANCH   5   6
ENDBRANCH   4   5
ENDBRANCH   2   3
TORSDOF 12
ENDMDL
MODEL      426
REMARK 921   NORMALIZED FREE ENERGY PREDICTED BY IDOCK:   -2.45 KCAL/MOL
REMARK 922        TOTAL FREE ENERGY PREDICTED BY IDOCK:   -6.01 KCAL/MOL
REMARK 923 INTER-LIGAND FREE ENERGY PREDICTED BY IDOCK:   -4.45 KCAL/MOL
REMARK 924 INTRA-LIGAND FREE ENERGY PREDICTED BY IDOCK:   -1.56 KCAL/MOL
REMARK 927      BINDING AFFINITY PREDICTED BY RF-SCORE:    0.00 PKD
ROOT
HETATM    1  C   UNL     1      -9.191  15.401  67.276  1.00  0.00    -0.217 C  
HETATM    2  C   UNL     1     -10.672  15.274  66.958  1.00  0.00    -0.313 C  
ENDROOT
BRANCH   2   3
HETATM    3  C   UNL     1     -11.529  15.654  68.133  1.00  0.00    -0.325 C  
HETATM    4  C   UNL     1     -11.703  14.920  69.245  1.00  0.00    -0.344 C  
BRANCH   4   5
HETATM    5  C   UNL     1     -11.089  13.568  69.476  1.00  0.00    -0.111 C  
BRANCH   5   6
HETATM    6  C   UNL     1     -11.910  12.457  68.888  1.00  0.00    -0.350 C  
HETATM    7  C   UNL     1     -11.500  11.620  67.918  1.00  0.00    -0.381 C  
BRANCH   7   8
HETATM    8  C   UNL     1     -10.158  11.711  67.250  1.00  0.00    -0.221 C  
BRANCH   8   9
HETATM    9  C   UNL     1     -10.230  11.413  65.781  1.00  0.00    -0.295 C  
HETATM   10  C   UNL     1      -9.973  10.216  65.225  1.00  0.00    -0.381 C  
BRANCH  10  11
HETATM   11  C   UNL     1      -9.645   8.987  66.026  1.00  0.00    -0.342 C  
BRANCH  11  12
HETATM   12  C   UNL     1      -8.195   8.962  66.497  1.00  0.00    -0.114 C  
BRANCH  12  13
HETATM   13  C   UNL     1      -8.126   8.595  67.980  1.00  0.00    -0.111 C  
BRANCH  13  14
HETATM   14  C   UNL     1      -6.927   7.694  68.260  1.00  0.00    -0.072 C  
BRANCH  14  15
HETATM   15  C   UNL     1      -6.689   6.708  67.118  1.00  0.00    -0.063 C  
BRANCH  15  16
HETATM   16  C   UNL     1      -7.547   5.458  67.303  1.00  0.00    -0.092 C  
BRANCH  16  17
HETATM   17  C   UNL     1      -8.390   5.163  66.067  1.00  0.00    -0.116 C  
HETATM   18  C   UNL     1      -9.796   4.748  66.437  1.00  0.00    -0.219 C  
HETATM   19  O   UNL     1     -10.234   4.658  67.573  1.00  0.00    -0.115 OA 
HETATM   20  O   UNL     1     -10.554   4.474  65.349  1.00  0.00    -0.264 OA 
ENDBRANCH  16  17
ENDBRANCH  15  16
ENDBRANCH  14  15
ENDBRANCH  13  14
ENDBRANCH  12  13
ENDBRANCH  11  12
ENDBRANCH  10  11
ENDBRANCH   8   9
ENDBRANCH   7   8
ENDBRANCH   5   6
ENDBRANCH   4   5
ENDBRANCH   2   3
TORSDOF 12
ENDMDL
MODEL      427
REMARK 921   NORMALIZED FREE ENERGY PREDICTED BY IDOCK:   -2.44 KCAL/MOL
REMARK 922        TOTAL FREE ENERGY PREDICTED BY IDOCK:   -6.00 KCAL/MOL
REMARK 923 INTER-LIGAND FREE ENERGY PREDICTED BY IDOCK:   -4.97 KCAL/MOL
REMARK 924 INTRA-LIGAND FREE ENERGY PREDICTED BY IDOCK:   -1.03 KCAL/MOL
REMARK 927      BINDING AFFINITY PREDICTED BY RF-SCORE:    0.00 PKD
ROOT
HETATM    1  C   UNL     1     -11.782  14.136  67.291  1.00  0.00    -0.421 C  
HETATM    2  C   UNL     1     -11.766  12.911  68.192  1.00  0.00    -0.395 C  
ENDROOT
BRANCH   2   3
HETATM    3  C   UNL     1     -11.963  13.279  69.635  1.00  0.00    -0.376 C  
HETATM    4  C   UNL     1     -11.916  12.427  70.673  1.00  0.00    -0.202 C  
BRANCH   4   5
HETATM    5  C   UNL     1     -11.693  10.947  70.549  1.00  0.00    -0.441 C  
BRANCH   5   6
HETATM    6  C   UNL     1     -12.935  10.152  70.832  1.00  0.00    -0.432 C  
HETATM    7  C   UNL     1     -12.993   9.053  71.604  1.00  0.00    -0.418 C  
BRANCH   7   8
HETATM    8  C   UNL     1     -11.795   8.434  72.266  1.00  0.00    -0.456 C  
BRANCH   8   9
HETATM    9  C   UNL     1     -11.635   6.984  71.916  1.00  0.00    -0.320 C  
HETATM   10  C   UNL     1     -10.463   6.386  71.635  1.00  0.00    -0.251 C  
BRANCH  10  11
HETATM   11  C   UNL     1      -9.138   7.090  71.706  1.00  0.00    -0.140 C  
BRANCH  11  12
HETATM   12  C   UNL     1      -8.423   7.135  70.360  1.00  0.00    -0.140 C  
BRANCH  12  13
HETATM   13  C   UNL     1      -9.312   6.541  69.267  1.00  0.00    -0.141 C  
BRANCH  13  14
HETATM   14  C   UNL     1      -8.655   6.681  67.898  1.00  0.00    -0.118 C  
BRANCH  14  15
HETATM   15  C   UNL     1      -9.241   7.853  67.112  1.00  0.00    -0.175 C  
BRANCH  15  16
HETATM   16  C   UNL     1      -8.554   7.982  65.754  1.00  0.00    -0.174 C  
BRANCH  16  17
HETATM   17  C   UNL     1      -7.666   9.220  65.686  1.00  0.00    -0.095 C  
HETATM   18  C   UNL     1      -6.688   9.142  64.535  1.00  0.00    -0.079 C  
HETATM   19  O   UNL     1      -6.600   8.221  63.739  1.00  0.00    -0.074 OA 
HETATM   20  O   UNL     1      -5.887  10.231  64.468  1.00  0.00    -0.119 OA 
ENDBRANCH  16  17
ENDBRANCH  15  16
ENDBRANCH  14  15
ENDBRANCH  13  14
ENDBRANCH  12  13
ENDBRANCH  11  12
ENDBRANCH  10  11
ENDBRANCH   8   9
ENDBRANCH   7   8
ENDBRANCH   5   6
ENDBRANCH   4   5
ENDBRANCH   2   3
TORSDOF 12
ENDMDL
MODEL      428
REMARK 921   NORMALIZED FREE ENERGY PREDICTED BY IDOCK:   -2.42 KCAL/MOL
REMARK 922        TOTAL FREE ENERGY PREDICTED BY IDOCK:   -5.97 KCAL/MOL
REMARK 923 INTER-LIGAND FREE ENERGY PREDICTED BY IDOCK:   -4.28 KCAL/MOL
REMARK 924 INTRA-LIGAND FREE ENERGY PREDICTED BY IDOCK:   -1.69 KCAL/MOL
REMARK 927      BINDING AFFINITY PREDICTED BY RF-SCORE:    0.00 PKD
ROOT
HETATM    1  C   UNL     1     -10.645  10.910  69.004  1.00  0.00    -0.248 C  
HETATM    2  C   UNL     1     -11.161  10.766  67.581  1.00  0.00    -0.384 C  
ENDROOT
BRANCH   2   3
HETATM    3  C   UNL     1     -10.064  10.388  66.626  1.00  0.00    -0.279 C  
HETATM    4  C   UNL     1      -9.722   9.134  66.284  1.00  0.00    -0.344 C  
BRANCH   4   5
HETATM    5  C   UNL     1     -10.367   7.896  66.838  1.00  0.00    -0.400 C  
BRANCH   5   6
HETATM    6  C   UNL     1      -9.484   6.687  66.721  1.00  0.00    -0.194 C  
HETATM    7  C   UNL     1      -8.651   6.241  67.677  1.00  0.00    -0.114 C  
BRANCH   7   8
HETATM    8  C   UNL     1      -8.454   6.926  68.999  1.00  0.00    -0.128 C  
BRANCH   8   9
HETATM    9  C   UNL     1      -7.015   7.261  69.261  1.00  0.00    -0.069 C  
HETATM   10  C   UNL     1      -6.440   7.286  70.477  1.00  0.00    -0.043 C  
BRANCH  10  11
HETATM   11  C   UNL     1      -7.161   6.906  71.739  1.00  0.00    -0.074 C  
BRANCH  11  12
HETATM   12  C   UNL     1      -7.045   7.971  72.825  1.00  0.00    -0.110 C  
BRANCH  12  13
HETATM   13  C   UNL     1      -8.428   8.313  73.381  1.00  0.00    -0.267 C  
BRANCH  13  14
HETATM   14  C   UNL     1      -9.527   7.814  72.448  1.00  0.00    -0.234 C  
BRANCH  14  15
HETATM   15  C   UNL     1     -10.856   7.651  73.184  1.00  0.00    -0.440 C  
BRANCH  15  16
HETATM   16  C   UNL     1     -11.711   6.580  72.512  1.00  0.00    -0.203 C  
BRANCH  16  17
HETATM   17  C   UNL     1     -10.853   5.515  71.835  1.00  0.00    -0.286 C  
HETATM   18  C   UNL     1     -10.768   4.256  72.669  1.00  0.00    -0.093 C  
HETATM   19  O   UNL     1     -11.311   4.080  73.748  1.00  0.00    -0.211 OA 
HETATM   20  O   UNL     1     -10.002   3.305  72.084  1.00  0.00    -0.159 OA 
ENDBRANCH  16  17
ENDBRANCH  15  16
ENDBRANCH  14  15
ENDBRANCH  13  14
ENDBRANCH  12  13
ENDBRANCH  11  12
ENDBRANCH  10  11
ENDBRANCH   8   9
ENDBRANCH   7   8
ENDBRANCH   5   6
ENDBRANCH   4   5
ENDBRANCH   2   3
TORSDOF 12
ENDMDL
MODEL      429
REMARK 921   NORMALIZED FREE ENERGY PREDICTED BY IDOCK:   -2.42 KCAL/MOL
REMARK 922        TOTAL FREE ENERGY PREDICTED BY IDOCK:   -5.97 KCAL/MOL
REMARK 923 INTER-LIGAND FREE ENERGY PREDICTED BY IDOCK:   -4.39 KCAL/MOL
REMARK 924 INTRA-LIGAND FREE ENERGY PREDICTED BY IDOCK:   -1.57 KCAL/MOL
REMARK 927      BINDING AFFINITY PREDICTED BY RF-SCORE:    0.00 PKD
ROOT
HETATM    1  C   UNL     1     -10.546   8.923  71.693  1.00  0.00    -0.422 C  
HETATM    2  C   UNL     1     -11.704   8.096  71.156  1.00  0.00    -0.309 C  
ENDROOT
BRANCH   2   3
HETATM    3  C   UNL     1     -11.404   6.624  71.197  1.00  0.00    -0.355 C  
HETATM    4  C   UNL     1     -10.991   5.880  70.158  1.00  0.00    -0.412 C  
BRANCH   4   5
HETATM    5  C   UNL     1     -10.796   6.402  68.763  1.00  0.00    -0.378 C  
BRANCH   5   6
HETATM    6  C   UNL     1      -9.404   6.915  68.531  1.00  0.00    -0.134 C  
HETATM    7  C   UNL     1      -9.097   8.072  67.919  1.00  0.00    -0.134 C  
BRANCH   7   8
HETATM    8  C   UNL     1     -10.118   9.006  67.336  1.00  0.00    -0.291 C  
BRANCH   8   9
HETATM    9  C   UNL     1     -10.459  10.133  68.266  1.00  0.00    -0.244 C  
HETATM   10  C   UNL     1      -9.738  11.259  68.406  1.00  0.00    -0.194 C  
BRANCH  10  11
HETATM   11  C   UNL     1      -8.518  11.567  67.584  1.00  0.00    -0.135 C  
BRANCH  11  12
HETATM   12  C   UNL     1      -7.230  11.076  68.236  1.00  0.00    -0.085 C  
BRANCH  12  13
HETATM   13  C   UNL     1      -6.593  12.196  69.060  1.00  0.00    -0.100 C  
BRANCH  13  14
HETATM   14  C   UNL     1      -6.595  13.509  68.284  1.00  0.00    -0.107 C  
BRANCH  14  15
HETATM   15  C   UNL     1      -7.300  14.619  69.062  1.00  0.00    -0.134 C  
BRANCH  15  16
HETATM   16  C   UNL     1      -6.491  15.912  68.998  1.00  0.00    -0.137 C  
BRANCH  16  17
HETATM   17  C   UNL     1      -7.363  17.106  68.620  1.00  0.00    -0.238 C  
HETATM   18  C   UNL     1      -6.990  17.662  67.264  1.00  0.00    -0.166 C  
HETATM   19  O   UNL     1      -6.112  17.227  66.536  1.00  0.00    -0.190 OA 
HETATM   20  O   UNL     1      -7.751  18.727  66.920  1.00  0.00    -0.226 OA 
ENDBRANCH  16  17
ENDBRANCH  15  16
ENDBRANCH  14  15
ENDBRANCH  13  14
ENDBRANCH  12  13
ENDBRANCH  11  12
ENDBRANCH  10  11
ENDBRANCH   8   9
ENDBRANCH   7   8
ENDBRANCH   5   6
ENDBRANCH   4   5
ENDBRANCH   2   3
TORSDOF 12
ENDMDL
MODEL      430
REMARK 921   NORMALIZED FREE ENERGY PREDICTED BY IDOCK:   -2.40 KCAL/MOL
REMARK 922        TOTAL FREE ENERGY PREDICTED BY IDOCK:   -5.92 KCAL/MOL
REMARK 923 INTER-LIGAND FREE ENERGY PREDICTED BY IDOCK:   -4.21 KCAL/MOL
REMARK 924 INTRA-LIGAND FREE ENERGY PREDICTED BY IDOCK:   -1.71 KCAL/MOL
REMARK 927      BINDING AFFINITY PREDICTED BY RF-SCORE:    0.00 PKD
ROOT
HETATM    1  C   UNL     1     -10.722  10.927  69.145  1.00  0.00    -0.265 C  
HETATM    2  C   UNL     1     -11.183  10.577  67.739  1.00  0.00    -0.344 C  
ENDROOT
BRANCH   2   3
HETATM    3  C   UNL     1     -10.077   9.968  66.925  1.00  0.00    -0.287 C  
HETATM    4  C   UNL     1      -9.871   8.653  66.743  1.00  0.00    -0.322 C  
BRANCH   4   5
HETATM    5  C   UNL     1     -10.704   7.568  67.364  1.00  0.00    -0.331 C  
BRANCH   5   6
HETATM    6  C   UNL     1     -10.324   6.201  66.874  1.00  0.00    -0.307 C  
HETATM    7  C   UNL     1      -9.522   5.340  67.525  1.00  0.00    -0.136 C  
BRANCH   7   8
HETATM    8  C   UNL     1      -8.852   5.649  68.833  1.00  0.00    -0.109 C  
BRANCH   8   9
HETATM    9  C   UNL     1      -7.364   5.784  68.694  1.00  0.00    -0.084 C  
HETATM   10  C   UNL     1      -6.483   5.661  69.703  1.00  0.00    -0.041 C  
BRANCH  10  11
HETATM   11  C   UNL     1      -6.879   5.298  71.106  1.00  0.00    -0.045 C  
BRANCH  11  12
HETATM   12  C   UNL     1      -5.816   5.672  72.133  1.00  0.00    -0.026 C  
BRANCH  12  13
HETATM   13  C   UNL     1      -6.436   6.499  73.261  1.00  0.00    -0.064 C  
BRANCH  13  14
HETATM   14  C   UNL     1      -7.943   6.633  73.070  1.00  0.00    -0.102 C  
BRANCH  14  15
HETATM   15  C   UNL     1      -8.321   8.024  72.560  1.00  0.00    -0.211 C  
BRANCH  15  16
HETATM   16  C   UNL     1      -9.828   8.243  72.676  1.00  0.00    -0.357 C  
BRANCH  16  17
HETATM   17  C   UNL     1     -10.541   7.983  71.353  1.00  0.00    -0.258 C  
HETATM   18  C   UNL     1     -11.288   6.668  71.371  1.00  0.00    -0.289 C  
HETATM   19  O   UNL     1     -11.340   5.895  72.314  1.00  0.00    -0.278 OA 
HETATM   20  O   UNL     1     -11.919   6.421  70.200  1.00  0.00    -0.354 OA 
ENDBRANCH  16  17
ENDBRANCH  15  16
ENDBRANCH  14  15
ENDBRANCH  13  14
ENDBRANCH  12  13
ENDBRANCH  11  12
ENDBRANCH  10  11
ENDBRANCH   8   9
ENDBRANCH   7   8
ENDBRANCH   5   6
ENDBRANCH   4   5
ENDBRANCH   2   3
TORSDOF 12
ENDMDL
MODEL      431
REMARK 921   NORMALIZED FREE ENERGY PREDICTED BY IDOCK:   -2.40 KCAL/MOL
REMARK 922        TOTAL FREE ENERGY PREDICTED BY IDOCK:   -5.92 KCAL/MOL
REMARK 923 INTER-LIGAND FREE ENERGY PREDICTED BY IDOCK:   -4.93 KCAL/MOL
REMARK 924 INTRA-LIGAND FREE ENERGY PREDICTED BY IDOCK:   -0.99 KCAL/MOL
REMARK 927      BINDING AFFINITY PREDICTED BY RF-SCORE:    0.00 PKD
ROOT
HETATM    1  C   UNL     1     -13.138  12.981  71.490  1.00  0.00    -0.400 C  
HETATM    2  C   UNL     1     -12.924  14.327  70.816  1.00  0.00    -0.368 C  
ENDROOT
BRANCH   2   3
HETATM    3  C   UNL     1     -11.510  14.491  70.335  1.00  0.00    -0.259 C  
HETATM    4  C   UNL     1     -10.989  13.932  69.231  1.00  0.00    -0.222 C  
BRANCH   4   5
HETATM    5  C   UNL     1     -11.738  13.012  68.309  1.00  0.00    -0.390 C  
BRANCH   5   6
HETATM    6  C   UNL     1     -12.020  13.641  66.975  1.00  0.00    -0.448 C  
HETATM    7  C   UNL     1     -11.306  13.434  65.854  1.00  0.00    -0.327 C  
BRANCH   7   8
HETATM    8  C   UNL     1     -10.083  12.564  65.792  1.00  0.00    -0.278 C  
BRANCH   8   9
HETATM    9  C   UNL     1      -9.988  11.804  64.502  1.00  0.00    -0.273 C  
HETATM   10  C   UNL     1      -9.631  10.511  64.396  1.00  0.00    -0.357 C  
BRANCH  10  11
HETATM   11  C   UNL     1      -9.348   9.632  65.581  1.00  0.00    -0.296 C  
BRANCH  11  12
HETATM   12  C   UNL     1      -8.685   8.316  65.191  1.00  0.00    -0.089 C  
BRANCH  12  13
HETATM   13  C   UNL     1      -8.424   7.465  66.435  1.00  0.00    -0.129 C  
BRANCH  13  14
HETATM   14  C   UNL     1      -8.772   8.237  67.703  1.00  0.00    -0.133 C  
BRANCH  14  15
HETATM   15  C   UNL     1      -7.940   7.762  68.894  1.00  0.00    -0.124 C  
BRANCH  15  16
HETATM   16  C   UNL     1      -8.537   8.278  70.202  1.00  0.00    -0.128 C  
BRANCH  16  17
HETATM   17  C   UNL     1      -8.574   7.192  71.273  1.00  0.00    -0.124 C  
HETATM   18  C   UNL     1      -9.972   6.649  71.467  1.00  0.00    -0.175 C  
HETATM   19  O   UNL     1     -10.965   7.008  70.854  1.00  0.00    -0.239 OA 
HETATM   20  O   UNL     1     -10.022   5.690  72.421  1.00  0.00    -0.167 OA 
ENDBRANCH  16  17
ENDBRANCH  15  16
ENDBRANCH  14  15
ENDBRANCH  13  14
ENDBRANCH  12  13
ENDBRANCH  11  12
ENDBRANCH  10  11
ENDBRANCH   8   9
ENDBRANCH   7   8
ENDBRANCH   5   6
ENDBRANCH   4   5
ENDBRANCH   2   3
TORSDOF 12
ENDMDL
MODEL      432
REMARK 921   NORMALIZED FREE ENERGY PREDICTED BY IDOCK:   -2.39 KCAL/MOL
REMARK 922        TOTAL FREE ENERGY PREDICTED BY IDOCK:   -5.90 KCAL/MOL
REMARK 923 INTER-LIGAND FREE ENERGY PREDICTED BY IDOCK:   -4.95 KCAL/MOL
REMARK 924 INTRA-LIGAND FREE ENERGY PREDICTED BY IDOCK:   -0.96 KCAL/MOL
REMARK 927      BINDING AFFINITY PREDICTED BY RF-SCORE:    0.00 PKD
ROOT
HETATM    1  C   UNL     1     -13.186  13.088  71.397  1.00  0.00    -0.276 C  
HETATM    2  C   UNL     1     -13.037  14.531  70.941  1.00  0.00    -0.405 C  
ENDROOT
BRANCH   2   3
HETATM    3  C   UNL     1     -11.646  14.821  70.452  1.00  0.00    -0.333 C  
HETATM    4  C   UNL     1     -11.110  14.373  69.305  1.00  0.00    -0.300 C  
BRANCH   4   5
HETATM    5  C   UNL     1     -11.814  13.469  68.334  1.00  0.00    -0.408 C  
BRANCH   5   6
HETATM    6  C   UNL     1     -12.023  14.116  66.995  1.00  0.00    -0.471 C  
HETATM    7  C   UNL     1     -11.308  13.852  65.887  1.00  0.00    -0.314 C  
BRANCH   7   8
HETATM    8  C   UNL     1     -10.156  12.889  65.846  1.00  0.00    -0.295 C  
BRANCH   8   9
HETATM    9  C   UNL     1     -10.368  11.785  64.852  1.00  0.00    -0.334 C  
HETATM   10  C   UNL     1     -10.219  10.475  65.115  1.00  0.00    -0.358 C  
BRANCH  10  11
HETATM   11  C   UNL     1      -9.884   9.938  66.478  1.00  0.00    -0.274 C  
BRANCH  11  12
HETATM   12  C   UNL     1     -10.628   8.647  66.801  1.00  0.00    -0.223 C  
BRANCH  12  13
HETATM   13  C   UNL     1     -10.090   8.034  68.094  1.00  0.00    -0.234 C  
BRANCH  13  14
HETATM   14  C   UNL     1      -8.789   8.711  68.515  1.00  0.00    -0.142 C  
BRANCH  14  15
HETATM   15  C   UNL     1      -7.711   7.685  68.864  1.00  0.00    -0.117 C  
BRANCH  15  16
HETATM   16  C   UNL     1      -6.446   8.387  69.353  1.00  0.00    -0.038 C  
BRANCH  16  17
HETATM   17  C   UNL     1      -5.879   7.722  70.604  1.00  0.00    -0.030 C  
HETATM   18  C   UNL     1      -6.028   8.607  71.822  1.00  0.00    -0.057 C  
HETATM   19  O   UNL     1      -6.540   9.715  71.836  1.00  0.00    -0.295 OA 
HETATM   20  O   UNL     1      -5.521   8.033  72.938  1.00  0.00    -0.043 OA 
ENDBRANCH  16  17
ENDBRANCH  15  16
ENDBRANCH  14  15
ENDBRANCH  13  14
ENDBRANCH  12  13
ENDBRANCH  11  12
ENDBRANCH  10  11
ENDBRANCH   8   9
ENDBRANCH   7   8
ENDBRANCH   5   6
ENDBRANCH   4   5
ENDBRANCH   2   3
TORSDOF 12
ENDMDL
MODEL      433
REMARK 921   NORMALIZED FREE ENERGY PREDICTED BY IDOCK:   -2.37 KCAL/MOL
REMARK 922        TOTAL FREE ENERGY PREDICTED BY IDOCK:   -5.88 KCAL/MOL
REMARK 923 INTER-LIGAND FREE ENERGY PREDICTED BY IDOCK:   -3.88 KCAL/MOL
REMARK 924 INTRA-LIGAND FREE ENERGY PREDICTED BY IDOCK:   -2.00 KCAL/MOL
REMARK 927      BINDING AFFINITY PREDICTED BY RF-SCORE:    0.00 PKD
ROOT
HETATM    1  C   UNL     1      -5.816  11.069  68.989  1.00  0.00    -0.040 C  
HETATM    2  C   UNL     1      -6.527  10.539  67.754  1.00  0.00    -0.060 C  
ENDROOT
BRANCH   2   3
HETATM    3  C   UNL     1      -7.995  10.859  67.775  1.00  0.00    -0.111 C  
HETATM    4  C   UNL     1      -8.938  10.164  68.431  1.00  0.00    -0.123 C  
BRANCH   4   5
HETATM    5  C   UNL     1      -8.676   8.919  69.230  1.00  0.00    -0.138 C  
BRANCH   5   6
HETATM    6  C   UNL     1      -8.822   9.143  70.708  1.00  0.00    -0.291 C  
HETATM    7  C   UNL     1      -9.991   9.198  71.371  1.00  0.00    -0.373 C  
BRANCH   7   8
HETATM    8  C   UNL     1     -11.333   9.085  70.708  1.00  0.00    -0.329 C  
BRANCH   8   9
HETATM    9  C   UNL     1     -12.193   8.028  71.336  1.00  0.00    -0.335 C  
HETATM   10  C   UNL     1     -12.212   6.734  70.969  1.00  0.00    -0.405 C  
BRANCH  10  11
HETATM   11  C   UNL     1     -11.308   6.161  69.915  1.00  0.00    -0.454 C  
BRANCH  11  12
HETATM   12  C   UNL     1     -10.031   5.564  70.497  1.00  0.00    -0.276 C  
BRANCH  12  13
HETATM   13  C   UNL     1      -9.745   4.202  69.863  1.00  0.00    -0.280 C  
BRANCH  13  14
HETATM   14  C   UNL     1      -8.949   4.360  68.572  1.00  0.00    -0.151 C  
BRANCH  14  15
HETATM   15  C   UNL     1      -7.577   4.982  68.832  1.00  0.00    -0.073 C  
BRANCH  15  16
HETATM   16  C   UNL     1      -7.218   5.965  67.719  1.00  0.00    -0.076 C  
BRANCH  16  17
HETATM   17  C   UNL     1      -8.250   5.950  66.597  1.00  0.00    -0.106 C  
HETATM   18  C   UNL     1      -7.700   5.310  65.342  1.00  0.00    -0.088 C  
HETATM   19  O   UNL     1      -6.577   4.848  65.214  1.00  0.00    -0.035 OA 
HETATM   20  O   UNL     1      -8.603   5.298  64.334  1.00  0.00    -0.140 OA 
ENDBRANCH  16  17
ENDBRANCH  15  16
ENDBRANCH  14  15
ENDBRANCH  13  14
ENDBRANCH  12  13
ENDBRANCH  11  12
ENDBRANCH  10  11
ENDBRANCH   8   9
ENDBRANCH   7   8
ENDBRANCH   5   6
ENDBRANCH   4   5
ENDBRANCH   2   3
TORSDOF 12
ENDMDL
MODEL      434
REMARK 921   NORMALIZED FREE ENERGY PREDICTED BY IDOCK:   -2.37 KCAL/MOL
REMARK 922        TOTAL FREE ENERGY PREDICTED BY IDOCK:   -5.87 KCAL/MOL
REMARK 923 INTER-LIGAND FREE ENERGY PREDICTED BY IDOCK:   -4.81 KCAL/MOL
REMARK 924 INTRA-LIGAND FREE ENERGY PREDICTED BY IDOCK:   -1.07 KCAL/MOL
REMARK 927      BINDING AFFINITY PREDICTED BY RF-SCORE:    0.00 PKD
ROOT
HETATM    1  C   UNL     1      -6.307   4.325  67.082  1.00  0.00    -0.040 C  
HETATM    2  C   UNL     1      -7.460   5.074  67.731  1.00  0.00    -0.079 C  
ENDROOT
BRANCH   2   3
HETATM    3  C   UNL     1      -7.900   6.247  66.902  1.00  0.00    -0.104 C  
HETATM    4  C   UNL     1      -8.896   7.094  67.210  1.00  0.00    -0.120 C  
BRANCH   4   5
HETATM    5  C   UNL     1      -9.763   6.978  68.432  1.00  0.00    -0.139 C  
BRANCH   5   6
HETATM    6  C   UNL     1      -9.059   7.428  69.680  1.00  0.00    -0.140 C  
HETATM    7  C   UNL     1      -8.936   8.705  70.083  1.00  0.00    -0.157 C  
BRANCH   7   8
HETATM    8  C   UNL     1      -9.459   9.880  69.306  1.00  0.00    -0.218 C  
BRANCH   8   9
HETATM    9  C   UNL     1     -10.914  10.136  69.567  1.00  0.00    -0.295 C  
HETATM   10  C   UNL     1     -11.570  11.259  69.224  1.00  0.00    -0.390 C  
BRANCH  10  11
HETATM   11  C   UNL     1     -10.936  12.387  68.461  1.00  0.00    -0.277 C  
BRANCH  11  12
HETATM   12  C   UNL     1     -11.832  12.923  67.351  1.00  0.00    -0.418 C  
BRANCH  12  13
HETATM   13  C   UNL     1     -11.623  12.120  66.066  1.00  0.00    -0.420 C  
BRANCH  13  14
HETATM   14  C   UNL     1     -10.823  12.925  65.047  1.00  0.00    -0.323 C  
BRANCH  14  15
HETATM   15  C   UNL     1     -11.716  13.892  64.270  1.00  0.00    -0.406 C  
BRANCH  15  16
HETATM   16  C   UNL     1     -11.367  15.337  64.619  1.00  0.00    -0.364 C  
BRANCH  16  17
HETATM   17  C   UNL     1      -9.936  15.466  65.132  1.00  0.00    -0.229 C  
HETATM   18  C   UNL     1      -9.874  16.259  66.418  1.00  0.00    -0.291 C  
HETATM   19  O   UNL     1     -10.832  16.743  67.001  1.00  0.00    -0.211 OA 
HETATM   20  O   UNL     1      -8.608  16.388  66.880  1.00  0.00    -0.182 OA 
ENDBRANCH  16  17
ENDBRANCH  15  16
ENDBRANCH  14  15
ENDBRANCH  13  14
ENDBRANCH  12  13
ENDBRANCH  11  12
ENDBRANCH  10  11
ENDBRANCH   8   9
ENDBRANCH   7   8
ENDBRANCH   5   6
ENDBRANCH   4   5
ENDBRANCH   2   3
TORSDOF 12
ENDMDL
MODEL      435
REMARK 921   NORMALIZED FREE ENERGY PREDICTED BY IDOCK:   -2.34 KCAL/MOL
REMARK 922        TOTAL FREE ENERGY PREDICTED BY IDOCK:   -5.83 KCAL/MOL
REMARK 923 INTER-LIGAND FREE ENERGY PREDICTED BY IDOCK:   -4.28 KCAL/MOL
REMARK 924 INTRA-LIGAND FREE ENERGY PREDICTED BY IDOCK:   -1.55 KCAL/MOL
REMARK 927      BINDING AFFINITY PREDICTED BY RF-SCORE:    0.00 PKD
ROOT
HETATM    1  C   UNL     1     -10.892  10.068  70.397  1.00  0.00    -0.380 C  
HETATM    2  C   UNL     1     -12.085  10.848  69.867  1.00  0.00    -0.428 C  
ENDROOT
BRANCH   2   3
HETATM    3  C   UNL     1     -12.466  11.975  70.785  1.00  0.00    -0.372 C  
HETATM    4  C   UNL     1     -12.277  13.282  70.540  1.00  0.00    -0.416 C  
BRANCH   4   5
HETATM    5  C   UNL     1     -11.613  13.829  69.308  1.00  0.00    -0.362 C  
BRANCH   5   6
HETATM    6  C   UNL     1     -11.921  15.282  69.087  1.00  0.00    -0.308 C  
HETATM    7  C   UNL     1     -11.004  16.260  68.982  1.00  0.00    -0.325 C  
BRANCH   7   8
HETATM    8  C   UNL     1      -9.525  16.037  69.115  1.00  0.00    -0.253 C  
BRANCH   8   9
HETATM    9  C   UNL     1      -8.789  16.305  67.836  1.00  0.00    -0.183 C  
HETATM   10  C   UNL     1      -8.357  15.359  66.983  1.00  0.00    -0.268 C  
BRANCH  10  11
HETATM   11  C   UNL     1      -8.624  13.892  67.173  1.00  0.00    -0.217 C  
BRANCH  11  12
HETATM   12  C   UNL     1      -7.760  13.274  68.266  1.00  0.00    -0.141 C  
BRANCH  12  13
HETATM   13  C   UNL     1      -8.008  11.767  68.350  1.00  0.00    -0.147 C  
BRANCH  13  14
HETATM   14  C   UNL     1      -7.315  11.039  67.202  1.00  0.00    -0.116 C  
BRANCH  14  15
HETATM   15  C   UNL     1      -7.398   9.522  67.370  1.00  0.00    -0.087 C  
BRANCH  15  16
HETATM   16  C   UNL     1      -7.395   9.149  68.851  1.00  0.00    -0.074 C  
BRANCH  16  17
HETATM   17  C   UNL     1      -7.683   7.665  69.060  1.00  0.00    -0.117 C  
HETATM   18  C   UNL     1      -6.407   6.863  69.188  1.00  0.00    -0.028 C  
HETATM   19  O   UNL     1      -5.275   7.317  69.142  1.00  0.00    -0.014 OA 
HETATM   20  O   UNL     1      -6.647   5.543  69.366  1.00  0.00    -0.046 OA 
ENDBRANCH  16  17
ENDBRANCH  15  16
ENDBRANCH  14  15
ENDBRANCH  13  14
ENDBRANCH  12  13
ENDBRANCH  11  12
ENDBRANCH  10  11
ENDBRANCH   8   9
ENDBRANCH   7   8
ENDBRANCH   5   6
ENDBRANCH   4   5
ENDBRANCH   2   3
TORSDOF 12
ENDMDL
MODEL      436
REMARK 921   NORMALIZED FREE ENERGY PREDICTED BY IDOCK:   -2.32 KCAL/MOL
REMARK 922        TOTAL FREE ENERGY PREDICTED BY IDOCK:   -5.79 KCAL/MOL
REMARK 923 INTER-LIGAND FREE ENERGY PREDICTED BY IDOCK:   -4.93 KCAL/MOL
REMARK 924 INTRA-LIGAND FREE ENERGY PREDICTED BY IDOCK:   -0.86 KCAL/MOL
REMARK 927      BINDING AFFINITY PREDICTED BY RF-SCORE:    0.00 PKD
ROOT
HETATM    1  C   UNL     1      -7.604   2.122  64.927  1.00  0.00    -0.068 C  
HETATM    2  C   UNL     1      -9.064   2.352  65.282  1.00  0.00    -0.123 C  
ENDROOT
BRANCH   2   3
HETATM    3  C   UNL     1      -9.249   2.594  66.753  1.00  0.00    -0.106 C  
HETATM    4  C   UNL     1      -9.249   3.795  67.355  1.00  0.00    -0.212 C  
BRANCH   4   5
HETATM    5  C   UNL     1      -9.024   5.100  66.647  1.00  0.00    -0.115 C  
BRANCH   5   6
HETATM    6  C   UNL     1      -8.171   6.046  67.443  1.00  0.00    -0.106 C  
HETATM    7  C   UNL     1      -8.580   7.226  67.941  1.00  0.00    -0.120 C  
BRANCH   7   8
HETATM    8  C   UNL     1      -9.956   7.789  67.731  1.00  0.00    -0.220 C  
BRANCH   8   9
HETATM    9  C   UNL     1     -10.002   8.783  66.608  1.00  0.00    -0.355 C  
HETATM   10  C   UNL     1     -10.371  10.071  66.734  1.00  0.00    -0.283 C  
BRANCH  10  11
HETATM   11  C   UNL     1     -10.722  10.704  68.050  1.00  0.00    -0.275 C  
BRANCH  11  12
HETATM   12  C   UNL     1     -10.679  12.227  68.000  1.00  0.00    -0.245 C  
BRANCH  12  13
HETATM   13  C   UNL     1     -12.020  12.811  68.444  1.00  0.00    -0.275 C  
BRANCH  13  14
HETATM   14  C   UNL     1     -11.842  13.719  69.656  1.00  0.00    -0.393 C  
BRANCH  14  15
HETATM   15  C   UNL     1     -10.935  14.907  69.338  1.00  0.00    -0.284 C  
BRANCH  15  16
HETATM   16  C   UNL     1     -11.514  15.727  68.186  1.00  0.00    -0.302 C  
BRANCH  16  17
HETATM   17  C   UNL     1     -10.573  15.757  66.986  1.00  0.00    -0.316 C  
HETATM   18  C   UNL     1      -9.914  17.109  66.828  1.00  0.00    -0.291 C  
HETATM   19  O   UNL     1     -10.088  18.073  67.557  1.00  0.00    -0.320 OA 
HETATM   20  O   UNL     1      -9.082  17.153  65.761  1.00  0.00    -0.525 OA 
ENDBRANCH  16  17
ENDBRANCH  15  16
ENDBRANCH  14  15
ENDBRANCH  13  14
ENDBRANCH  12  13
ENDBRANCH  11  12
ENDBRANCH  10  11
ENDBRANCH   8   9
ENDBRANCH   7   8
ENDBRANCH   5   6
ENDBRANCH   4   5
ENDBRANCH   2   3
TORSDOF 12
ENDMDL
MODEL      437
REMARK 921   NORMALIZED FREE ENERGY PREDICTED BY IDOCK:   -2.31 KCAL/MOL
REMARK 922        TOTAL FREE ENERGY PREDICTED BY IDOCK:   -5.78 KCAL/MOL
REMARK 923 INTER-LIGAND FREE ENERGY PREDICTED BY IDOCK:   -4.89 KCAL/MOL
REMARK 924 INTRA-LIGAND FREE ENERGY PREDICTED BY IDOCK:   -0.88 KCAL/MOL
REMARK 927      BINDING AFFINITY PREDICTED BY RF-SCORE:    0.00 PKD
ROOT
HETATM    1  C   UNL     1     -11.253   6.146  70.626  1.00  0.00    -0.387 C  
HETATM    2  C   UNL     1     -12.451   7.048  70.875  1.00  0.00    -0.319 C  
ENDROOT
BRANCH   2   3
HETATM    3  C   UNL     1     -12.183   8.043  71.967  1.00  0.00    -0.374 C  
HETATM    4  C   UNL     1     -12.295   9.377  71.856  1.00  0.00    -0.450 C  
BRANCH   4   5
HETATM    5  C   UNL     1     -12.677  10.096  70.594  1.00  0.00    -0.334 C  
BRANCH   5   6
HETATM    6  C   UNL     1     -11.506  10.775  69.943  1.00  0.00    -0.398 C  
HETATM    7  C   UNL     1     -11.427  12.090  69.671  1.00  0.00    -0.322 C  
BRANCH   7   8
HETATM    8  C   UNL     1     -12.533  13.068  69.946  1.00  0.00    -0.061 C  
BRANCH   8   9
HETATM    9  C   UNL     1     -12.180  14.038  71.036  1.00  0.00    -0.430 C  
HETATM   10  C   UNL     1     -11.683  15.271  70.835  1.00  0.00    -0.386 C  
BRANCH  10  11
HETATM   11  C   UNL     1     -11.481  15.870  69.472  1.00  0.00    -0.342 C  
BRANCH  11  12
HETATM   12  C   UNL     1     -10.743  17.203  69.518  1.00  0.00    -0.017 C  
BRANCH  12  13
HETATM   13  C   UNL     1     -11.110  18.055  68.303  1.00  0.00     0.304 C  
BRANCH  13  14
HETATM   14  C   UNL     1      -9.856  18.538  67.581  1.00  0.00    -0.335 C  
BRANCH  14  15
HETATM   15  C   UNL     1      -8.592  17.926  68.183  1.00  0.00    -0.265 C  
BRANCH  15  16
HETATM   16  C   UNL     1      -7.375  18.790  67.860  1.00  0.00    -0.259 C  
BRANCH  16  17
HETATM   17  C   UNL     1      -7.670  19.789  66.745  1.00  0.00    -0.306 C  
HETATM   18  C   UNL     1      -7.276  19.244  65.390  1.00  0.00    -0.008 C  
HETATM   19  O   UNL     1      -6.787  18.145  65.182  1.00  0.00    -0.414 OA 
HETATM   20  O   UNL     1      -7.525  20.123  64.392  1.00  0.00     0.211 OA 
ENDBRANCH  16  17
ENDBRANCH  15  16
ENDBRANCH  14  15
ENDBRANCH  13  14
ENDBRANCH  12  13
ENDBRANCH  11  12
ENDBRANCH  10  11
ENDBRANCH   8   9
ENDBRANCH   7   8
ENDBRANCH   5   6
ENDBRANCH   4   5
ENDBRANCH   2   3
TORSDOF 12
ENDMDL
MODEL      438
REMARK 921   NORMALIZED FREE ENERGY PREDICTED BY IDOCK:   -2.29 KCAL/MOL
REMARK 922        TOTAL FREE ENERGY PREDICTED BY IDOCK:   -5.73 KCAL/MOL
REMARK 923 INTER-LIGAND FREE ENERGY PREDICTED BY IDOCK:   -3.87 KCAL/MOL
REMARK 924 INTRA-LIGAND FREE ENERGY PREDICTED BY IDOCK:   -1.87 KCAL/MOL
REMARK 927      BINDING AFFINITY PREDICTED BY RF-SCORE:    0.00 PKD
ROOT
HETATM    1  C   UNL     1     -11.894  12.087  69.085  1.00  0.00    -0.369 C  
HETATM    2  C   UNL     1     -11.089  11.324  68.044  1.00  0.00    -0.325 C  
ENDROOT
BRANCH   2   3
HETATM    3  C   UNL     1      -9.627  11.665  68.110  1.00  0.00    -0.190 C  
HETATM    4  C   UNL     1      -8.685  10.951  68.749  1.00  0.00    -0.158 C  
BRANCH   4   5
HETATM    5  C   UNL     1      -8.955   9.702  69.538  1.00  0.00    -0.203 C  
BRANCH   5   6
HETATM    6  C   UNL     1      -8.046   8.570  69.151  1.00  0.00    -0.117 C  
HETATM    7  C   UNL     1      -8.156   7.837  68.029  1.00  0.00    -0.123 C  
BRANCH   7   8
HETATM    8  C   UNL     1      -9.246   8.024  67.014  1.00  0.00    -0.181 C  
BRANCH   8   9
HETATM    9  C   UNL     1     -10.506   7.298  67.387  1.00  0.00    -0.359 C  
HETATM   10  C   UNL     1     -10.763   6.009  67.103  1.00  0.00    -0.409 C  
BRANCH  10  11
HETATM   11  C   UNL     1      -9.777   5.098  66.428  1.00  0.00    -0.186 C  
BRANCH  11  12
HETATM   12  C   UNL     1      -9.118   4.123  67.397  1.00  0.00    -0.163 C  
BRANCH  12  13
HETATM   13  C   UNL     1      -9.885   4.089  68.720  1.00  0.00    -0.045 C  
BRANCH  13  14
HETATM   14  C   UNL     1      -9.068   3.394  69.804  1.00  0.00    -0.198 C  
BRANCH  14  15
HETATM   15  C   UNL     1      -9.200   4.107  71.149  1.00  0.00    -0.196 C  
BRANCH  15  16
HETATM   16  C   UNL     1      -8.745   5.560  71.030  1.00  0.00    -0.134 C  
BRANCH  16  17
HETATM   17  C   UNL     1      -7.877   5.979  72.212  1.00  0.00    -0.102 C  
HETATM   18  C   UNL     1      -8.715   6.469  73.372  1.00  0.00    -0.123 C  
HETATM   19  O   UNL     1      -9.934   6.527  73.393  1.00  0.00    -0.169 OA 
HETATM   20  O   UNL     1      -7.957   6.853  74.426  1.00  0.00    -0.116 OA 
ENDBRANCH  16  17
ENDBRANCH  15  16
ENDBRANCH  14  15
ENDBRANCH  13  14
ENDBRANCH  12  13
ENDBRANCH  11  12
ENDBRANCH  10  11
ENDBRANCH   8   9
ENDBRANCH   7   8
ENDBRANCH   5   6
ENDBRANCH   4   5
ENDBRANCH   2   3
TORSDOF 12
ENDMDL
MODEL      439
REMARK 921   NORMALIZED FREE ENERGY PREDICTED BY IDOCK:   -2.26 KCAL/MOL
REMARK 922        TOTAL FREE ENERGY PREDICTED BY IDOCK:   -5.70 KCAL/MOL
REMARK 923 INTER-LIGAND FREE ENERGY PREDICTED BY IDOCK:   -5.21 KCAL/MOL
REMARK 924 INTRA-LIGAND FREE ENERGY PREDICTED BY IDOCK:   -0.49 KCAL/MOL
REMARK 927      BINDING AFFINITY PREDICTED BY RF-SCORE:    0.00 PKD
ROOT
HETATM    1  C   UNL     1      -8.573   6.870  65.989  1.00  0.00    -0.150 C  
HETATM    2  C   UNL     1      -7.263   6.982  66.752  1.00  0.00    -0.076 C  
ENDROOT
BRANCH   2   3
HETATM    3  C   UNL     1      -6.973   8.399  67.157  1.00  0.00    -0.075 C  
HETATM    4  C   UNL     1      -7.628   9.488  66.721  1.00  0.00    -0.098 C  
BRANCH   4   5
HETATM    5  C   UNL     1      -8.745   9.462  65.717  1.00  0.00    -0.183 C  
BRANCH   5   6
HETATM    6  C   UNL     1      -8.372  10.132  64.425  1.00  0.00    -0.171 C  
HETATM    7  C   UNL     1      -9.194  10.895  63.683  1.00  0.00    -0.242 C  
BRANCH   7   8
HETATM    8  C   UNL     1     -10.634  11.150  64.027  1.00  0.00    -0.436 C  
BRANCH   8   9
HETATM    9  C   UNL     1     -10.964  12.614  64.052  1.00  0.00    -0.448 C  
HETATM   10  C   UNL     1     -10.985  13.378  65.158  1.00  0.00    -0.315 C  
BRANCH  10  11
HETATM   11  C   UNL     1     -10.606  12.871  66.521  1.00  0.00    -0.272 C  
BRANCH  11  12
HETATM   12  C   UNL     1     -11.817  12.613  67.410  1.00  0.00    -0.393 C  
BRANCH  12  13
HETATM   13  C   UNL     1     -11.402  11.828  68.656  1.00  0.00    -0.327 C  
BRANCH  13  14
HETATM   14  C   UNL     1     -11.234  10.347  68.333  1.00  0.00    -0.318 C  
BRANCH  14  15
HETATM   15  C   UNL     1      -9.981   9.770  68.991  1.00  0.00    -0.189 C  
BRANCH  15  16
HETATM   16  C   UNL     1     -10.210   9.566  70.487  1.00  0.00    -0.349 C  
BRANCH  16  17
HETATM   17  C   UNL     1     -11.576   8.949  70.771  1.00  0.00    -0.301 C  
HETATM   18  C   UNL     1     -11.490   7.445  70.912  1.00  0.00    -0.286 C  
HETATM   19  O   UNL     1     -10.470   6.781  70.822  1.00  0.00    -0.209 OA 
HETATM   20  O   UNL     1     -12.697   6.884  71.155  1.00  0.00    -0.369 OA 
ENDBRANCH  16  17
ENDBRANCH  15  16
ENDBRANCH  14  15
ENDBRANCH  13  14
ENDBRANCH  12  13
ENDBRANCH  11  12
ENDBRANCH  10  11
ENDBRANCH   8   9
ENDBRANCH   7   8
ENDBRANCH   5   6
ENDBRANCH   4   5
ENDBRANCH   2   3
TORSDOF 12
ENDMDL
MODEL      440
REMARK 921   NORMALIZED FREE ENERGY PREDICTED BY IDOCK:   -2.24 KCAL/MOL
REMARK 922        TOTAL FREE ENERGY PREDICTED BY IDOCK:   -5.65 KCAL/MOL
REMARK 923 INTER-LIGAND FREE ENERGY PREDICTED BY IDOCK:   -4.50 KCAL/MOL
REMARK 924 INTRA-LIGAND FREE ENERGY PREDICTED BY IDOCK:   -1.15 KCAL/MOL
REMARK 927      BINDING AFFINITY PREDICTED BY RF-SCORE:    0.00 PKD
ROOT
HETATM    1  C   UNL     1      -8.802  13.192  67.828  1.00  0.00    -0.191 C  
HETATM    2  C   UNL     1     -10.115  12.511  68.184  1.00  0.00    -0.225 C  
ENDROOT
BRANCH   2   3
HETATM    3  C   UNL     1     -10.553  11.552  67.114  1.00  0.00    -0.273 C  
HETATM    4  C   UNL     1     -10.292  10.234  67.089  1.00  0.00    -0.292 C  
BRANCH   4   5
HETATM    5  C   UNL     1      -9.480   9.509  68.124  1.00  0.00    -0.145 C  
BRANCH   5   6
HETATM    6  C   UNL     1      -9.935   9.806  69.524  1.00  0.00    -0.230 C  
HETATM    7  C   UNL     1     -10.523   8.924  70.351  1.00  0.00    -0.245 C  
BRANCH   7   8
HETATM    8  C   UNL     1     -10.850   7.509  69.967  1.00  0.00    -0.260 C  
BRANCH   8   9
HETATM    9  C   UNL     1     -12.101   7.011  70.629  1.00  0.00    -0.332 C  
HETATM   10  C   UNL     1     -12.142   6.361  71.806  1.00  0.00    -0.351 C  
BRANCH  10  11
HETATM   11  C   UNL     1     -10.927   6.109  72.653  1.00  0.00    -0.291 C  
BRANCH  11  12
HETATM   12  C   UNL     1     -10.861   4.678  73.175  1.00  0.00    -0.338 C  
BRANCH  12  13
HETATM   13  C   UNL     1      -9.445   4.121  73.020  1.00  0.00    -0.143 C  
BRANCH  13  14
HETATM   14  C   UNL     1      -8.920   4.360  71.608  1.00  0.00    -0.160 C  
BRANCH  14  15
HETATM   15  C   UNL     1      -9.504   3.354  70.616  1.00  0.00    -0.243 C  
BRANCH  15  16
HETATM   16  C   UNL     1      -9.604   3.975  69.224  1.00  0.00    -0.247 C  
BRANCH  16  17
HETATM   17  C   UNL     1      -8.528   3.436  68.286  1.00  0.00    -0.104 C  
HETATM   18  C   UNL     1      -8.908   3.626  66.835  1.00  0.00    -0.130 C  
HETATM   19  O   UNL     1      -9.936   4.148  66.432  1.00  0.00    -0.218 OA 
HETATM   20  O   UNL     1      -7.965   3.144  65.991  1.00  0.00    -0.084 OA 
ENDBRANCH  16  17
ENDBRANCH  15  16
ENDBRANCH  14  15
ENDBRANCH  13  14
ENDBRANCH  12  13
ENDBRANCH  11  12
ENDBRANCH  10  11
ENDBRANCH   8   9
ENDBRANCH   7   8
ENDBRANCH   5   6
ENDBRANCH   4   5
ENDBRANCH   2   3
TORSDOF 12
ENDMDL
MODEL      441
REMARK 921   NORMALIZED FREE ENERGY PREDICTED BY IDOCK:   -2.24 KCAL/MOL
REMARK 922        TOTAL FREE ENERGY PREDICTED BY IDOCK:   -5.65 KCAL/MOL
REMARK 923 INTER-LIGAND FREE ENERGY PREDICTED BY IDOCK:   -4.93 KCAL/MOL
REMARK 924 INTRA-LIGAND FREE ENERGY PREDICTED BY IDOCK:   -0.73 KCAL/MOL
REMARK 927      BINDING AFFINITY PREDICTED BY RF-SCORE:    0.00 PKD
ROOT
HETATM    1  C   UNL     1     -13.575  13.951  72.446  1.00  0.00    -0.676 C  
HETATM    2  C   UNL     1     -13.690  15.069  71.422  1.00  0.00    -0.552 C  
ENDROOT
BRANCH   2   3
HETATM    3  C   UNL     1     -12.354  15.687  71.119  1.00  0.00    -0.482 C  
HETATM    4  C   UNL     1     -11.604  15.436  70.033  1.00  0.00    -0.343 C  
BRANCH   4   5
HETATM    5  C   UNL     1     -11.971  14.459  68.953  1.00  0.00    -0.337 C  
BRANCH   5   6
HETATM    6  C   UNL     1     -11.793  15.031  67.576  1.00  0.00    -0.185 C  
HETATM    7  C   UNL     1     -11.517  14.317  66.471  1.00  0.00    -0.368 C  
BRANCH   7   8
HETATM    8  C   UNL     1     -11.302  12.831  66.469  1.00  0.00    -0.369 C  
BRANCH   8   9
HETATM    9  C   UNL     1     -11.421  12.238  65.095  1.00  0.00    -0.390 C  
HETATM   10  C   UNL     1     -10.646  11.249  64.615  1.00  0.00    -0.392 C  
BRANCH  10  11
HETATM   11  C   UNL     1      -9.594  10.553  65.431  1.00  0.00    -0.291 C  
BRANCH  11  12
HETATM   12  C   UNL     1      -8.466   9.986  64.576  1.00  0.00    -0.180 C  
BRANCH  12  13
HETATM   13  C   UNL     1      -7.704   8.910  65.350  1.00  0.00    -0.092 C  
BRANCH  13  14
HETATM   14  C   UNL     1      -6.664   9.538  66.271  1.00  0.00    -0.075 C  
BRANCH  14  15
HETATM   15  C   UNL     1      -5.866   8.474  67.024  1.00  0.00    -0.042 C  
BRANCH  15  16
HETATM   16  C   UNL     1      -6.793   7.631  67.898  1.00  0.00    -0.068 C  
BRANCH  16  17
HETATM   17  C   UNL     1      -6.418   7.725  69.374  1.00  0.00    -0.035 C  
HETATM   18  C   UNL     1      -5.868   6.415  69.893  1.00  0.00    -0.014 C  
HETATM   19  O   UNL     1      -5.723   5.396  69.237  1.00  0.00    -0.011 OA 
HETATM   20  O   UNL     1      -5.539   6.482  71.204  1.00  0.00    -0.025 OA 
ENDBRANCH  16  17
ENDBRANCH  15  16
ENDBRANCH  14  15
ENDBRANCH  13  14
ENDBRANCH  12  13
ENDBRANCH  11  12
ENDBRANCH  10  11
ENDBRANCH   8   9
ENDBRANCH   7   8
ENDBRANCH   5   6
ENDBRANCH   4   5
ENDBRANCH   2   3
TORSDOF 12
ENDMDL
MODEL      442
REMARK 921   NORMALIZED FREE ENERGY PREDICTED BY IDOCK:   -2.23 KCAL/MOL
REMARK 922        TOTAL FREE ENERGY PREDICTED BY IDOCK:   -5.63 KCAL/MOL
REMARK 923 INTER-LIGAND FREE ENERGY PREDICTED BY IDOCK:   -3.75 KCAL/MOL
REMARK 924 INTRA-LIGAND FREE ENERGY PREDICTED BY IDOCK:   -1.88 KCAL/MOL
REMARK 927      BINDING AFFINITY PREDICTED BY RF-SCORE:    0.00 PKD
ROOT
HETATM    1  C   UNL     1      -6.977   5.696  72.935  1.00  0.00    -0.084 C  
HETATM    2  C   UNL     1      -7.917   6.461  73.853  1.00  0.00    -0.100 C  
ENDROOT
BRANCH   2   3
HETATM    3  C   UNL     1      -8.671   7.529  73.113  1.00  0.00    -0.202 C  
HETATM    4  C   UNL     1      -9.906   7.403  72.599  1.00  0.00    -0.224 C  
BRANCH   4   5
HETATM    5  C   UNL     1     -10.724   6.144  72.651  1.00  0.00    -0.261 C  
BRANCH   5   6
HETATM    6  C   UNL     1     -10.258   5.115  71.661  1.00  0.00    -0.276 C  
HETATM    7  C   UNL     1     -10.536   5.124  70.346  1.00  0.00    -0.287 C  
BRANCH   7   8
HETATM    8  C   UNL     1     -11.400   6.157  69.682  1.00  0.00    -0.442 C  
BRANCH   8   9
HETATM    9  C   UNL     1     -10.711   6.822  68.527  1.00  0.00    -0.280 C  
HETATM   10  C   UNL     1     -10.402   8.130  68.465  1.00  0.00    -0.230 C  
BRANCH  10  11
HETATM   11  C   UNL     1     -10.648   9.091  69.593  1.00  0.00    -0.230 C  
BRANCH  11  12
HETATM   12  C   UNL     1      -9.778  10.340  69.502  1.00  0.00    -0.235 C  
BRANCH  12  13
HETATM   13  C   UNL     1      -8.301   9.968  69.635  1.00  0.00    -0.188 C  
BRANCH  13  14
HETATM   14  C   UNL     1      -7.528  10.353  68.377  1.00  0.00    -0.091 C  
BRANCH  14  15
HETATM   15  C   UNL     1      -8.390  11.176  67.421  1.00  0.00    -0.135 C  
BRANCH  15  16
HETATM   16  C   UNL     1      -8.178  10.715  65.980  1.00  0.00    -0.158 C  
BRANCH  16  17
HETATM   17  C   UNL     1      -7.661   9.281  65.917  1.00  0.00    -0.098 C  
HETATM   18  C   UNL     1      -6.570   9.128  64.880  1.00  0.00    -0.070 C  
HETATM   19  O   UNL     1      -6.132  10.022  64.173  1.00  0.00    -0.115 OA 
HETATM   20  O   UNL     1      -6.108   7.858  64.807  1.00  0.00    -0.044 OA 
ENDBRANCH  16  17
ENDBRANCH  15  16
ENDBRANCH  14  15
ENDBRANCH  13  14
ENDBRANCH  12  13
ENDBRANCH  11  12
ENDBRANCH  10  11
ENDBRANCH   8   9
ENDBRANCH   7   8
ENDBRANCH   5   6
ENDBRANCH   4   5
ENDBRANCH   2   3
TORSDOF 12
ENDMDL
MODEL      443
REMARK 921   NORMALIZED FREE ENERGY PREDICTED BY IDOCK:   -2.22 KCAL/MOL
REMARK 922        TOTAL FREE ENERGY PREDICTED BY IDOCK:   -5.62 KCAL/MOL
REMARK 923 INTER-LIGAND FREE ENERGY PREDICTED BY IDOCK:   -3.75 KCAL/MOL
REMARK 924 INTRA-LIGAND FREE ENERGY PREDICTED BY IDOCK:   -1.87 KCAL/MOL
REMARK 927      BINDING AFFINITY PREDICTED BY RF-SCORE:    0.00 PKD
ROOT
HETATM    1  C   UNL     1     -10.356   8.422  71.864  1.00  0.00    -0.353 C  
HETATM    2  C   UNL     1     -11.005   8.132  70.519  1.00  0.00    -0.248 C  
ENDROOT
BRANCH   2   3
HETATM    3  C   UNL     1     -11.434   6.697  70.405  1.00  0.00    -0.444 C  
HETATM    4  C   UNL     1     -11.145   5.873  69.384  1.00  0.00    -0.369 C  
BRANCH   4   5
HETATM    5  C   UNL     1     -10.367   6.273  68.163  1.00  0.00    -0.236 C  
BRANCH   5   6
HETATM    6  C   UNL     1     -10.847   5.576  66.922  1.00  0.00    -0.224 C  
HETATM    7  C   UNL     1     -10.097   5.328  65.834  1.00  0.00    -0.102 C  
BRANCH   7   8
HETATM    8  C   UNL     1      -8.666   5.758  65.690  1.00  0.00    -0.151 C  
BRANCH   8   9
HETATM    9  C   UNL     1      -8.253   5.897  64.254  1.00  0.00    -0.088 C  
HETATM   10  C   UNL     1      -7.789   7.028  63.693  1.00  0.00    -0.112 C  
BRANCH  10  11
HETATM   11  C   UNL     1      -7.556   8.297  64.463  1.00  0.00    -0.108 C  
BRANCH  11  12
HETATM   12  C   UNL     1      -8.819   9.139  64.605  1.00  0.00    -0.183 C  
BRANCH  12  13
HETATM   13  C   UNL     1      -8.574  10.307  65.560  1.00  0.00    -0.173 C  
BRANCH  13  14
HETATM   14  C   UNL     1      -7.685   9.879  66.723  1.00  0.00    -0.099 C  
BRANCH  14  15
HETATM   15  C   UNL     1      -8.508   9.307  67.877  1.00  0.00    -0.117 C  
BRANCH  15  16
HETATM   16  C   UNL     1      -7.600   8.932  69.046  1.00  0.00    -0.085 C  
BRANCH  16  17
HETATM   17  C   UNL     1      -7.476  10.072  70.053  1.00  0.00    -0.181 C  
HETATM   18  C   UNL     1      -6.204  10.863  69.845  1.00  0.00    -0.117 C  
HETATM   19  O   UNL     1      -5.366  10.646  68.984  1.00  0.00    -0.042 OA 
HETATM   20  O   UNL     1      -6.077  11.873  70.737  1.00  0.00    -0.323 OA 
ENDBRANCH  16  17
ENDBRANCH  15  16
ENDBRANCH  14  15
ENDBRANCH  13  14
ENDBRANCH  12  13
ENDBRANCH  11  12
ENDBRANCH  10  11
ENDBRANCH   8   9
ENDBRANCH   7   8
ENDBRANCH   5   6
ENDBRANCH   4   5
ENDBRANCH   2   3
TORSDOF 12
ENDMDL
MODEL      444
REMARK 921   NORMALIZED FREE ENERGY PREDICTED BY IDOCK:   -2.21 KCAL/MOL
REMARK 922        TOTAL FREE ENERGY PREDICTED BY IDOCK:   -5.60 KCAL/MOL
REMARK 923 INTER-LIGAND FREE ENERGY PREDICTED BY IDOCK:   -3.99 KCAL/MOL
REMARK 924 INTRA-LIGAND FREE ENERGY PREDICTED BY IDOCK:   -1.61 KCAL/MOL
REMARK 927      BINDING AFFINITY PREDICTED BY RF-SCORE:    0.00 PKD
ROOT
HETATM    1  C   UNL     1     -11.296  11.142  68.344  1.00  0.00    -0.357 C  
HETATM    2  C   UNL     1     -10.548  10.270  67.348  1.00  0.00    -0.324 C  
ENDROOT
BRANCH   2   3
HETATM    3  C   UNL     1      -9.121  10.711  67.182  1.00  0.00    -0.154 C  
HETATM    4  C   UNL     1      -8.048  10.106  67.718  1.00  0.00    -0.109 C  
BRANCH   4   5
HETATM    5  C   UNL     1      -8.109   8.898  68.608  1.00  0.00    -0.111 C  
BRANCH   5   6
HETATM    6  C   UNL     1      -8.912   9.142  69.854  1.00  0.00    -0.183 C  
HETATM    7  C   UNL     1      -8.496   8.885  71.106  1.00  0.00    -0.250 C  
BRANCH   7   8
HETATM    8  C   UNL     1      -7.167   8.269  71.435  1.00  0.00    -0.080 C  
BRANCH   8   9
HETATM    9  C   UNL     1      -7.273   6.799  71.718  1.00  0.00    -0.084 C  
HETATM   10  C   UNL     1      -7.772   6.267  72.848  1.00  0.00    -0.104 C  
BRANCH  10  11
HETATM   11  C   UNL     1      -8.360   7.091  73.959  1.00  0.00    -0.167 C  
BRANCH  11  12
HETATM   12  C   UNL     1      -9.849   6.830  74.159  1.00  0.00    -0.352 C  
BRANCH  12  13
HETATM   13  C   UNL     1     -10.322   5.714  73.226  1.00  0.00    -0.234 C  
BRANCH  13  14
HETATM   14  C   UNL     1     -11.511   6.175  72.389  1.00  0.00    -0.349 C  
BRANCH  14  15
HETATM   15  C   UNL     1     -11.070   6.662  71.009  1.00  0.00    -0.330 C  
BRANCH  15  16
HETATM   16  C   UNL     1     -10.941   5.485  70.044  1.00  0.00    -0.205 C  
BRANCH  16  17
HETATM   17  C   UNL     1     -10.456   5.932  68.669  1.00  0.00    -0.302 C  
HETATM   18  C   UNL     1      -9.009   5.555  68.438  1.00  0.00    -0.110 C  
HETATM   19  O   UNL     1      -8.296   4.960  69.231  1.00  0.00    -0.084 OA 
HETATM   20  O   UNL     1      -8.563   5.953  67.225  1.00  0.00    -0.108 OA 
ENDBRANCH  16  17
ENDBRANCH  15  16
ENDBRANCH  14  15
ENDBRANCH  13  14
ENDBRANCH  12  13
ENDBRANCH  11  12
ENDBRANCH  10  11
ENDBRANCH   8   9
ENDBRANCH   7   8
ENDBRANCH   5   6
ENDBRANCH   4   5
ENDBRANCH   2   3
TORSDOF 12
ENDMDL
MODEL      445
REMARK 921   NORMALIZED FREE ENERGY PREDICTED BY IDOCK:   -2.19 KCAL/MOL
REMARK 922        TOTAL FREE ENERGY PREDICTED BY IDOCK:   -5.58 KCAL/MOL
REMARK 923 INTER-LIGAND FREE ENERGY PREDICTED BY IDOCK:   -5.10 KCAL/MOL
REMARK 924 INTRA-LIGAND FREE ENERGY PREDICTED BY IDOCK:   -0.48 KCAL/MOL
REMARK 927      BINDING AFFINITY PREDICTED BY RF-SCORE:    0.00 PKD
ROOT
HETATM    1  C   UNL     1     -11.046   6.011  71.493  1.00  0.00    -0.336 C  
HETATM    2  C   UNL     1     -11.765   6.520  70.253  1.00  0.00    -0.430 C  
ENDROOT
BRANCH   2   3
HETATM    3  C   UNL     1     -10.897   6.434  69.030  1.00  0.00    -0.385 C  
HETATM    4  C   UNL     1      -9.969   7.334  68.664  1.00  0.00    -0.169 C  
BRANCH   4   5
HETATM    5  C   UNL     1      -9.674   8.604  69.411  1.00  0.00    -0.176 C  
BRANCH   5   6
HETATM    6  C   UNL     1     -10.813   9.582  69.353  1.00  0.00    -0.226 C  
HETATM    7  C   UNL     1     -11.103  10.370  68.303  1.00  0.00    -0.338 C  
BRANCH   7   8
HETATM    8  C   UNL     1     -10.292  10.412  67.040  1.00  0.00    -0.295 C  
BRANCH   8   9
HETATM    9  C   UNL     1      -9.105  11.323  67.154  1.00  0.00    -0.160 C  
HETATM   10  C   UNL     1      -9.150  12.663  67.047  1.00  0.00    -0.215 C  
BRANCH  10  11
HETATM   11  C   UNL     1     -10.427  13.434  66.866  1.00  0.00    -0.273 C  
BRANCH  11  12
HETATM   12  C   UNL     1     -10.185  14.907  66.555  1.00  0.00    -0.281 C  
BRANCH  12  13
HETATM   13  C   UNL     1      -9.392  15.565  67.684  1.00  0.00    -0.203 C  
BRANCH  13  14
HETATM   14  C   UNL     1      -7.899  15.564  67.371  1.00  0.00    -0.213 C  
BRANCH  14  15
HETATM   15  C   UNL     1      -7.183  16.730  68.053  1.00  0.00    -0.163 C  
BRANCH  15  16
HETATM   16  C   UNL     1      -6.102  17.300  67.138  1.00  0.00    -0.184 C  
BRANCH  16  17
HETATM   17  C   UNL     1      -6.700  17.959  65.898  1.00  0.00    -0.312 C  
HETATM   18  C   UNL     1      -6.814  19.458  66.063  1.00  0.00    -0.251 C  
HETATM   19  O   UNL     1      -6.471  20.091  67.049  1.00  0.00    -0.190 OA 
HETATM   20  O   UNL     1      -7.351  20.054  64.974  1.00  0.00    -0.304 OA 
ENDBRANCH  16  17
ENDBRANCH  15  16
ENDBRANCH  14  15
ENDBRANCH  13  14
ENDBRANCH  12  13
ENDBRANCH  11  12
ENDBRANCH  10  11
ENDBRANCH   8   9
ENDBRANCH   7   8
ENDBRANCH   5   6
ENDBRANCH   4   5
ENDBRANCH   2   3
TORSDOF 12
ENDMDL
MODEL      446
REMARK 921   NORMALIZED FREE ENERGY PREDICTED BY IDOCK:   -2.15 KCAL/MOL
REMARK 922        TOTAL FREE ENERGY PREDICTED BY IDOCK:   -5.50 KCAL/MOL
REMARK 923 INTER-LIGAND FREE ENERGY PREDICTED BY IDOCK:   -4.07 KCAL/MOL
REMARK 924 INTRA-LIGAND FREE ENERGY PREDICTED BY IDOCK:   -1.44 KCAL/MOL
REMARK 927      BINDING AFFINITY PREDICTED BY RF-SCORE:    0.00 PKD
ROOT
HETATM    1  C   UNL     1     -11.906  11.400  68.689  1.00  0.00    -0.377 C  
HETATM    2  C   UNL     1     -11.336  11.642  67.300  1.00  0.00    -0.372 C  
ENDROOT
BRANCH   2   3
HETATM    3  C   UNL     1     -11.898  12.887  66.675  1.00  0.00    -0.461 C  
HETATM    4  C   UNL     1     -11.186  13.956  66.283  1.00  0.00    -0.310 C  
BRANCH   4   5
HETATM    5  C   UNL     1      -9.698  14.092  66.443  1.00  0.00    -0.309 C  
BRANCH   5   6
HETATM    6  C   UNL     1      -9.272  14.083  67.883  1.00  0.00    -0.195 C  
HETATM    7  C   UNL     1      -8.184  13.457  68.364  1.00  0.00    -0.139 C  
BRANCH   7   8
HETATM    8  C   UNL     1      -7.253  12.633  67.522  1.00  0.00    -0.155 C  
BRANCH   8   9
HETATM    9  C   UNL     1      -7.848  11.309  67.142  1.00  0.00    -0.151 C  
HETATM   10  C   UNL     1      -7.952  10.248  67.962  1.00  0.00    -0.101 C  
BRANCH  10  11
HETATM   11  C   UNL     1      -7.542  10.278  69.407  1.00  0.00    -0.137 C  
BRANCH  11  12
HETATM   12  C   UNL     1      -8.592   9.668  70.329  1.00  0.00    -0.234 C  
BRANCH  12  13
HETATM   13  C   UNL     1      -7.932   8.719  71.330  1.00  0.00    -0.175 C  
BRANCH  13  14
HETATM   14  C   UNL     1      -8.280   7.268  71.014  1.00  0.00    -0.107 C  
BRANCH  14  15
HETATM   15  C   UNL     1      -9.224   7.167  69.815  1.00  0.00    -0.143 C  
BRANCH  15  16
HETATM   16  C   UNL     1      -8.510   6.526  68.627  1.00  0.00    -0.121 C  
BRANCH  16  17
HETATM   17  C   UNL     1      -9.010   5.109  68.365  1.00  0.00    -0.118 C  
HETATM   18  C   UNL     1      -9.240   4.863  66.890  1.00  0.00    -0.122 C  
HETATM   19  O   UNL     1      -9.051   5.674  65.997  1.00  0.00    -0.154 OA 
HETATM   20  O   UNL     1      -9.692   3.612  66.644  1.00  0.00    -0.182 OA 
ENDBRANCH  16  17
ENDBRANCH  15  16
ENDBRANCH  14  15
ENDBRANCH  13  14
ENDBRANCH  12  13
ENDBRANCH  11  12
ENDBRANCH  10  11
ENDBRANCH   8   9
ENDBRANCH   7   8
ENDBRANCH   5   6
ENDBRANCH   4   5
ENDBRANCH   2   3
TORSDOF 12
ENDMDL
MODEL      447
REMARK 921   NORMALIZED FREE ENERGY PREDICTED BY IDOCK:   -2.13 KCAL/MOL
REMARK 922        TOTAL FREE ENERGY PREDICTED BY IDOCK:   -5.47 KCAL/MOL
REMARK 923 INTER-LIGAND FREE ENERGY PREDICTED BY IDOCK:   -4.44 KCAL/MOL
REMARK 924 INTRA-LIGAND FREE ENERGY PREDICTED BY IDOCK:   -1.03 KCAL/MOL
REMARK 927      BINDING AFFINITY PREDICTED BY RF-SCORE:    0.00 PKD
ROOT
HETATM    1  C   UNL     1      -8.664  16.067  67.398  1.00  0.00    -0.195 C  
HETATM    2  C   UNL     1     -10.166  15.835  67.332  1.00  0.00    -0.270 C  
ENDROOT
BRANCH   2   3
HETATM    3  C   UNL     1     -10.907  16.702  68.310  1.00  0.00    -0.356 C  
HETATM    4  C   UNL     1     -11.104  16.424  69.609  1.00  0.00    -0.306 C  
BRANCH   4   5
HETATM    5  C   UNL     1     -10.639  15.168  70.290  1.00  0.00    -0.195 C  
BRANCH   5   6
HETATM    6  C   UNL     1     -11.760  14.198  70.534  1.00  0.00    -0.284 C  
HETATM    7  C   UNL     1     -11.949  13.048  69.863  1.00  0.00    -0.381 C  
BRANCH   7   8
HETATM    8  C   UNL     1     -11.076  12.588  68.731  1.00  0.00    -0.314 C  
BRANCH   8   9
HETATM    9  C   UNL     1     -11.771  12.671  67.404  1.00  0.00    -0.432 C  
HETATM   10  C   UNL     1     -11.185  12.450  66.213  1.00  0.00    -0.361 C  
BRANCH  10  11
HETATM   11  C   UNL     1      -9.754  12.018  66.065  1.00  0.00    -0.256 C  
BRANCH  11  12
HETATM   12  C   UNL     1      -9.621  10.614  65.485  1.00  0.00    -0.271 C  
BRANCH  12  13
HETATM   13  C   UNL     1     -10.349   9.603  66.372  1.00  0.00    -0.246 C  
BRANCH  13  14
HETATM   14  C   UNL     1      -9.493   8.359  66.592  1.00  0.00    -0.267 C  
BRANCH  14  15
HETATM   15  C   UNL     1      -8.135   8.714  67.197  1.00  0.00    -0.100 C  
BRANCH  15  16
HETATM   16  C   UNL     1      -7.023   8.498  66.173  1.00  0.00    -0.076 C  
BRANCH  16  17
HETATM   17  C   UNL     1      -6.656   9.793  65.455  1.00  0.00    -0.085 C  
HETATM   18  C   UNL     1      -7.046   9.750  63.994  1.00  0.00    -0.123 C  
HETATM   19  O   UNL     1      -7.593   8.814  63.433  1.00  0.00    -0.104 OA 
HETATM   20  O   UNL     1      -6.719  10.890  63.343  1.00  0.00     0.186 OA 
ENDBRANCH  16  17
ENDBRANCH  15  16
ENDBRANCH  14  15
ENDBRANCH  13  14
ENDBRANCH  12  13
ENDBRANCH  11  12
ENDBRANCH  10  11
ENDBRANCH   8   9
ENDBRANCH   7   8
ENDBRANCH   5   6
ENDBRANCH   4   5
ENDBRANCH   2   3
TORSDOF 12
ENDMDL
MODEL      448
REMARK 921   NORMALIZED FREE ENERGY PREDICTED BY IDOCK:   -2.11 KCAL/MOL
REMARK 922        TOTAL FREE ENERGY PREDICTED BY IDOCK:   -5.43 KCAL/MOL
REMARK 923 INTER-LIGAND FREE ENERGY PREDICTED BY IDOCK:   -4.68 KCAL/MOL
REMARK 924 INTRA-LIGAND FREE ENERGY PREDICTED BY IDOCK:   -0.75 KCAL/MOL
REMARK 927      BINDING AFFINITY PREDICTED BY RF-SCORE:    0.00 PKD
ROOT
HETATM    1  C   UNL     1      -6.380   4.721  68.018  1.00  0.00    -0.037 C  
HETATM    2  C   UNL     1      -7.652   5.532  67.827  1.00  0.00    -0.088 C  
ENDROOT
BRANCH   2   3
HETATM    3  C   UNL     1      -7.373   6.864  67.189  1.00  0.00    -0.090 C  
HETATM    4  C   UNL     1      -8.298   7.708  66.703  1.00  0.00    -0.127 C  
BRANCH   4   5
HETATM    5  C   UNL     1      -9.775   7.433  66.687  1.00  0.00    -0.262 C  
BRANCH   5   6
HETATM    6  C   UNL     1     -10.389   7.518  68.055  1.00  0.00    -0.254 C  
HETATM    7  C   UNL     1     -10.525   8.646  68.774  1.00  0.00    -0.209 C  
BRANCH   7   8
HETATM    8  C   UNL     1     -10.034   9.991  68.319  1.00  0.00    -0.173 C  
BRANCH   8   9
HETATM    9  C   UNL     1     -10.943  10.616  67.302  1.00  0.00    -0.348 C  
HETATM   10  C   UNL     1     -11.528  11.820  67.430  1.00  0.00    -0.375 C  
BRANCH  10  11
HETATM   11  C   UNL     1     -11.286  12.737  68.596  1.00  0.00    -0.322 C  
BRANCH  11  12
HETATM   12  C   UNL     1     -11.823  14.144  68.360  1.00  0.00    -0.388 C  
BRANCH  12  13
HETATM   13  C   UNL     1     -11.388  14.654  66.986  1.00  0.00    -0.362 C  
BRANCH  13  14
HETATM   14  C   UNL     1     -10.032  15.348  67.069  1.00  0.00    -0.239 C  
BRANCH  14  15
HETATM   15  C   UNL     1     -10.184  16.846  67.331  1.00  0.00    -0.298 C  
BRANCH  15  16
HETATM   16  C   UNL     1      -9.559  17.218  68.674  1.00  0.00    -0.284 C  
BRANCH  16  17
HETATM   17  C   UNL     1      -8.040  17.329  68.578  1.00  0.00    -0.262 C  
HETATM   18  C   UNL     1      -7.353  16.170  69.266  1.00  0.00    -0.231 C  
HETATM   19  O   UNL     1      -7.915  15.244  69.829  1.00  0.00    -0.204 OA 
HETATM   20  O   UNL     1      -6.004  16.260  69.196  1.00  0.00    -0.129 OA 
ENDBRANCH  16  17
ENDBRANCH  15  16
ENDBRANCH  14  15
ENDBRANCH  13  14
ENDBRANCH  12  13
ENDBRANCH  11  12
ENDBRANCH  10  11
ENDBRANCH   8   9
ENDBRANCH   7   8
ENDBRANCH   5   6
ENDBRANCH   4   5
ENDBRANCH   2   3
TORSDOF 12
ENDMDL
MODEL      449
REMARK 921   NORMALIZED FREE ENERGY PREDICTED BY IDOCK:   -2.11 KCAL/MOL
REMARK 922        TOTAL FREE ENERGY PREDICTED BY IDOCK:   -5.43 KCAL/MOL
REMARK 923 INTER-LIGAND FREE ENERGY PREDICTED BY IDOCK:   -4.20 KCAL/MOL
REMARK 924 INTRA-LIGAND FREE ENERGY PREDICTED BY IDOCK:   -1.23 KCAL/MOL
REMARK 927      BINDING AFFINITY PREDICTED BY RF-SCORE:    0.00 PKD
ROOT
HETATM    1  C   UNL     1      -5.176  10.062  69.758  1.00  0.00    -0.037 C  
HETATM    2  C   UNL     1      -6.207   9.397  68.861  1.00  0.00    -0.043 C  
ENDROOT
BRANCH   2   3
HETATM    3  C   UNL     1      -7.514  10.138  68.870  1.00  0.00    -0.086 C  
HETATM    4  C   UNL     1      -7.800  11.232  68.145  1.00  0.00    -0.127 C  
BRANCH   4   5
HETATM    5  C   UNL     1      -6.830  11.918  67.225  1.00  0.00    -0.142 C  
BRANCH   5   6
HETATM    6  C   UNL     1      -6.103  13.048  67.895  1.00  0.00    -0.131 C  
HETATM    7  C   UNL     1      -6.612  14.273  68.117  1.00  0.00    -0.132 C  
BRANCH   7   8
HETATM    8  C   UNL     1      -7.984  14.699  67.680  1.00  0.00    -0.193 C  
BRANCH   8   9
HETATM    9  C   UNL     1      -7.944  15.664  66.531  1.00  0.00    -0.097 C  
HETATM   10  C   UNL     1      -8.993  16.386  66.096  1.00  0.00    -0.367 C  
BRANCH  10  11
HETATM   11  C   UNL     1     -10.340  16.369  66.761  1.00  0.00    -0.293 C  
BRANCH  11  12
HETATM   12  C   UNL     1     -10.501  17.483  67.790  1.00  0.00    -0.381 C  
BRANCH  12  13
HETATM   13  C   UNL     1     -10.656  16.892  69.192  1.00  0.00    -0.330 C  
BRANCH  13  14
HETATM   14  C   UNL     1     -11.866  15.966  69.259  1.00  0.00    -0.328 C  
BRANCH  14  15
HETATM   15  C   UNL     1     -12.200  15.585  70.702  1.00  0.00    -0.445 C  
BRANCH  15  16
HETATM   16  C   UNL     1     -11.827  14.128  70.969  1.00  0.00    -0.255 C  
BRANCH  16  17
HETATM   17  C   UNL     1     -12.659  13.168  70.125  1.00  0.00    -0.077 C  
HETATM   18  C   UNL     1     -11.791  12.338  69.206  1.00  0.00    -0.306 C  
HETATM   19  O   UNL     1     -10.574  12.399  69.132  1.00  0.00    -0.110 OA 
HETATM   20  O   UNL     1     -12.518  11.486  68.445  1.00  0.00    -0.319 OA 
ENDBRANCH  16  17
ENDBRANCH  15  16
ENDBRANCH  14  15
ENDBRANCH  13  14
ENDBRANCH  12  13
ENDBRANCH  11  12
ENDBRANCH  10  11
ENDBRANCH   8   9
ENDBRANCH   7   8
ENDBRANCH   5   6
ENDBRANCH   4   5
ENDBRANCH   2   3
TORSDOF 12
ENDMDL
MODEL      450
REMARK 921   NORMALIZED FREE ENERGY PREDICTED BY IDOCK:   -2.11 KCAL/MOL
REMARK 922        TOTAL FREE ENERGY PREDICTED BY IDOCK:   -5.43 KCAL/MOL
REMARK 923 INTER-LIGAND FREE ENERGY PREDICTED BY IDOCK:   -4.60 KCAL/MOL
REMARK 924 INTRA-LIGAND FREE ENERGY PREDICTED BY IDOCK:   -0.83 KCAL/MOL
REMARK 927      BINDING AFFINITY PREDICTED BY RF-SCORE:    0.00 PKD
ROOT
HETATM    1  C   UNL     1      -7.209  11.071  69.122  1.00  0.00    -0.121 C  
HETATM    2  C   UNL     1      -7.242  12.524  68.675  1.00  0.00    -0.103 C  
ENDROOT
BRANCH   2   3
HETATM    3  C   UNL     1      -5.956  13.234  68.991  1.00  0.00    -0.083 C  
HETATM    4  C   UNL     1      -5.811  14.560  69.145  1.00  0.00    -0.092 C  
BRANCH   4   5
HETATM    5  C   UNL     1      -6.921  15.560  68.987  1.00  0.00    -0.141 C  
BRANCH   5   6
HETATM    6  C   UNL     1      -7.233  15.850  67.546  1.00  0.00    -0.204 C  
HETATM    7  C   UNL     1      -6.446  16.549  66.710  1.00  0.00    -0.123 C  
BRANCH   7   8
HETATM    8  C   UNL     1      -5.147  17.183  67.118  1.00  0.00    -0.174 C  
BRANCH   8   9
HETATM    9  C   UNL     1      -5.157  18.673  66.941  1.00  0.00    -0.137 C  
HETATM   10  C   UNL     1      -5.926  19.525  67.643  1.00  0.00    -0.208 C  
BRANCH  10  11
HETATM   11  C   UNL     1      -6.834  19.092  68.759  1.00  0.00    -0.342 C  
BRANCH  11  12
HETATM   12  C   UNL     1      -8.255  19.624  68.601  1.00  0.00    -0.311 C  
BRANCH  12  13
HETATM   13  C   UNL     1      -8.384  20.414  67.298  1.00  0.00    -0.398 C  
BRANCH  13  14
HETATM   14  C   UNL     1      -9.844  20.749  67.010  1.00  0.00    -0.339 C  
BRANCH  14  15
HETATM   15  C   UNL     1     -10.646  19.498  66.654  1.00  0.00    -0.583 C  
BRANCH  15  16
HETATM   16  C   UNL     1      -9.712  18.312  66.424  1.00  0.00    -0.334 C  
BRANCH  16  17
HETATM   17  C   UNL     1     -10.474  16.991  66.389  1.00  0.00    -0.252 C  
HETATM   18  C   UNL     1     -11.064  16.652  67.740  1.00  0.00    -0.157 C  
HETATM   19  O   UNL     1     -10.967  17.334  68.748  1.00  0.00    -0.232 OA 
HETATM   20  O   UNL     1     -11.736  15.478  67.726  1.00  0.00    -0.260 OA 
ENDBRANCH  16  17
ENDBRANCH  15  16
ENDBRANCH  14  15
ENDBRANCH  13  14
ENDBRANCH  12  13
ENDBRANCH  11  12
ENDBRANCH  10  11
ENDBRANCH   8   9
ENDBRANCH   7   8
ENDBRANCH   5   6
ENDBRANCH   4   5
ENDBRANCH   2   3
TORSDOF 12
ENDMDL
MODEL      451
REMARK 921   NORMALIZED FREE ENERGY PREDICTED BY IDOCK:   -2.10 KCAL/MOL
REMARK 922        TOTAL FREE ENERGY PREDICTED BY IDOCK:   -5.41 KCAL/MOL
REMARK 923 INTER-LIGAND FREE ENERGY PREDICTED BY IDOCK:   -4.20 KCAL/MOL
REMARK 924 INTRA-LIGAND FREE ENERGY PREDICTED BY IDOCK:   -1.21 KCAL/MOL
REMARK 927      BINDING AFFINITY PREDICTED BY RF-SCORE:    0.00 PKD
ROOT
HETATM    1  C   UNL     1      -6.982   7.131  69.329  1.00  0.00    -0.070 C  
HETATM    2  C   UNL     1      -6.506   5.690  69.234  1.00  0.00    -0.045 C  
ENDROOT
BRANCH   2   3
HETATM    3  C   UNL     1      -5.997   5.183  70.553  1.00  0.00    -0.018 C  
HETATM    4  C   UNL     1      -6.757   4.847  71.609  1.00  0.00    -0.043 C  
BRANCH   4   5
HETATM    5  C   UNL     1      -8.254   4.961  71.649  1.00  0.00    -0.114 C  
BRANCH   5   6
HETATM    6  C   UNL     1      -8.934   3.893  70.840  1.00  0.00    -0.157 C  
HETATM    7  C   UNL     1      -9.693   4.112  69.752  1.00  0.00    -0.278 C  
BRANCH   7   8
HETATM    8  C   UNL     1     -10.007   5.478  69.213  1.00  0.00    -0.263 C  
BRANCH   8   9
HETATM    9  C   UNL     1     -10.541   5.430  67.811  1.00  0.00    -0.172 C  
HETATM   10  C   UNL     1     -10.852   6.508  67.069  1.00  0.00    -0.465 C  
BRANCH  10  11
HETATM   11  C   UNL     1     -10.631   7.921  67.532  1.00  0.00    -0.312 C  
BRANCH  11  12
HETATM   12  C   UNL     1     -10.232   8.856  66.396  1.00  0.00    -0.273 C  
BRANCH  12  13
HETATM   13  C   UNL     1      -8.853   9.459  66.665  1.00  0.00    -0.151 C  
BRANCH  13  14
HETATM   14  C   UNL     1      -8.644  10.725  65.840  1.00  0.00    -0.182 C  
BRANCH  14  15
HETATM   15  C   UNL     1      -9.972  11.406  65.513  1.00  0.00    -0.282 C  
BRANCH  15  16
HETATM   16  C   UNL     1     -10.085  12.738  66.253  1.00  0.00    -0.267 C  
BRANCH  16  17
HETATM   17  C   UNL     1     -10.978  12.625  67.485  1.00  0.00    -0.280 C  
HETATM   18  C   UNL     1     -11.136  13.958  68.182  1.00  0.00    -0.256 C  
HETATM   19  O   UNL     1     -10.631  15.011  67.825  1.00  0.00    -0.256 OA 
HETATM   20  O   UNL     1     -11.919  13.871  69.282  1.00  0.00    -0.321 OA 
ENDBRANCH  16  17
ENDBRANCH  15  16
ENDBRANCH  14  15
ENDBRANCH  13  14
ENDBRANCH  12  13
ENDBRANCH  11  12
ENDBRANCH  10  11
ENDBRANCH   8   9
ENDBRANCH   7   8
ENDBRANCH   5   6
ENDBRANCH   4   5
ENDBRANCH   2   3
TORSDOF 12
ENDMDL
MODEL      452
REMARK 921   NORMALIZED FREE ENERGY PREDICTED BY IDOCK:   -2.07 KCAL/MOL
REMARK 922        TOTAL FREE ENERGY PREDICTED BY IDOCK:   -5.36 KCAL/MOL
REMARK 923 INTER-LIGAND FREE ENERGY PREDICTED BY IDOCK:   -4.71 KCAL/MOL
REMARK 924 INTRA-LIGAND FREE ENERGY PREDICTED BY IDOCK:   -0.65 KCAL/MOL
REMARK 927      BINDING AFFINITY PREDICTED BY RF-SCORE:    0.00 PKD
ROOT
HETATM    1  C   UNL     1      -8.190   4.573  65.561  1.00  0.00    -0.110 C  
HETATM    2  C   UNL     1      -8.609   5.535  66.661  1.00  0.00    -0.116 C  
ENDROOT
BRANCH   2   3
HETATM    3  C   UNL     1     -10.097   5.748  66.679  1.00  0.00    -0.235 C  
HETATM    4  C   UNL     1     -10.717   6.938  66.742  1.00  0.00    -0.296 C  
BRANCH   4   5
HETATM    5  C   UNL     1     -10.011   8.260  66.841  1.00  0.00    -0.343 C  
BRANCH   5   6
HETATM    6  C   UNL     1     -10.061   8.835  68.228  1.00  0.00    -0.220 C  
HETATM    7  C   UNL     1     -10.751   9.932  68.586  1.00  0.00    -0.256 C  
BRANCH   7   8
HETATM    8  C   UNL     1     -11.544  10.771  67.626  1.00  0.00    -0.087 C  
BRANCH   8   9
HETATM    9  C   UNL     1     -10.668  11.585  66.720  1.00  0.00    -0.311 C  
HETATM   10  C   UNL     1      -9.993  12.688  67.090  1.00  0.00    -0.217 C  
BRANCH  10  11
HETATM   11  C   UNL     1      -9.974  13.211  68.498  1.00  0.00    -0.182 C  
BRANCH  11  12
HETATM   12  C   UNL     1      -9.741  14.717  68.562  1.00  0.00    -0.218 C  
BRANCH  12  13
HETATM   13  C   UNL     1     -10.219  15.383  67.271  1.00  0.00    -0.254 C  
BRANCH  13  14
HETATM   14  C   UNL     1      -9.156  16.330  66.723  1.00  0.00    -0.257 C  
BRANCH  14  15
HETATM   15  C   UNL     1      -7.782  16.039  67.326  1.00  0.00    -0.215 C  
BRANCH  15  16
HETATM   16  C   UNL     1      -7.134  17.329  67.826  1.00  0.00    -0.173 C  
BRANCH  16  17
HETATM   17  C   UNL     1      -7.890  18.564  67.345  1.00  0.00    -0.241 C  
HETATM   18  C   UNL     1      -7.495  18.946  65.936  1.00  0.00    -0.210 C  
HETATM   19  O   UNL     1      -6.682  18.356  65.242  1.00  0.00    -0.490 OA 
HETATM   20  O   UNL     1      -8.153  20.045  65.500  1.00  0.00    -0.281 OA 
ENDBRANCH  16  17
ENDBRANCH  15  16
ENDBRANCH  14  15
ENDBRANCH  13  14
ENDBRANCH  12  13
ENDBRANCH  11  12
ENDBRANCH  10  11
ENDBRANCH   8   9
ENDBRANCH   7   8
ENDBRANCH   5   6
ENDBRANCH   4   5
ENDBRANCH   2   3
TORSDOF 12
ENDMDL
MODEL      453
REMARK 921   NORMALIZED FREE ENERGY PREDICTED BY IDOCK:   -2.07 KCAL/MOL
REMARK 922        TOTAL FREE ENERGY PREDICTED BY IDOCK:   -5.36 KCAL/MOL
REMARK 923 INTER-LIGAND FREE ENERGY PREDICTED BY IDOCK:   -4.14 KCAL/MOL
REMARK 924 INTRA-LIGAND FREE ENERGY PREDICTED BY IDOCK:   -1.22 KCAL/MOL
REMARK 927      BINDING AFFINITY PREDICTED BY RF-SCORE:    0.00 PKD
ROOT
HETATM    1  C   UNL     1     -11.878  11.518  68.883  1.00  0.00    -0.406 C  
HETATM    2  C   UNL     1     -11.746  11.846  67.404  1.00  0.00    -0.326 C  
ENDROOT
BRANCH   2   3
HETATM    3  C   UNL     1     -12.014  13.298  67.129  1.00  0.00    -0.400 C  
HETATM    4  C   UNL     1     -11.109  14.193  66.698  1.00  0.00    -0.314 C  
BRANCH   4   5
HETATM    5  C   UNL     1      -9.659  13.886  66.455  1.00  0.00    -0.299 C  
BRANCH   5   6
HETATM    6  C   UNL     1      -8.896  13.671  67.731  1.00  0.00    -0.190 C  
HETATM    7  C   UNL     1      -7.858  12.829  67.879  1.00  0.00    -0.156 C  
BRANCH   7   8
HETATM    8  C   UNL     1      -7.338  11.943  66.784  1.00  0.00    -0.011 C  
BRANCH   8   9
HETATM    9  C   UNL     1      -8.232  10.765  66.528  1.00  0.00    -0.148 C  
HETATM   10  C   UNL     1      -8.465   9.772  67.405  1.00  0.00    -0.121 C  
BRANCH  10  11
HETATM   11  C   UNL     1      -7.906   9.753  68.800  1.00  0.00    -0.082 C  
BRANCH  11  12
HETATM   12  C   UNL     1      -8.990   9.841  69.869  1.00  0.00    -0.254 C  
BRANCH  12  13
HETATM   13  C   UNL     1      -8.596   9.015  71.093  1.00  0.00    -0.250 C  
BRANCH  13  14
HETATM   14  C   UNL     1      -9.616   7.911  71.355  1.00  0.00    -0.187 C  
BRANCH  14  15
HETATM   15  C   UNL     1      -8.952   6.536  71.411  1.00  0.00    -0.140 C  
BRANCH  15  16
HETATM   16  C   UNL     1      -8.626   6.159  72.854  1.00  0.00    -0.123 C  
BRANCH  16  17
HETATM   17  C   UNL     1      -8.895   4.682  73.127  1.00  0.00    -0.111 C  
HETATM   18  C   UNL     1     -10.067   4.493  74.064  1.00  0.00    -0.185 C  
HETATM   19  O   UNL     1     -10.738   5.389  74.552  1.00  0.00    -0.293 OA 
HETATM   20  O   UNL     1     -10.312   3.187  74.322  1.00  0.00    -0.146 OA 
ENDBRANCH  16  17
ENDBRANCH  15  16
ENDBRANCH  14  15
ENDBRANCH  13  14
ENDBRANCH  12  13
ENDBRANCH  11  12
ENDBRANCH  10  11
ENDBRANCH   8   9
ENDBRANCH   7   8
ENDBRANCH   5   6
ENDBRANCH   4   5
ENDBRANCH   2   3
TORSDOF 12
ENDMDL
MODEL      454
REMARK 921   NORMALIZED FREE ENERGY PREDICTED BY IDOCK:   -2.06 KCAL/MOL
REMARK 922        TOTAL FREE ENERGY PREDICTED BY IDOCK:   -5.35 KCAL/MOL
REMARK 923 INTER-LIGAND FREE ENERGY PREDICTED BY IDOCK:   -4.12 KCAL/MOL
REMARK 924 INTRA-LIGAND FREE ENERGY PREDICTED BY IDOCK:   -1.24 KCAL/MOL
REMARK 927      BINDING AFFINITY PREDICTED BY RF-SCORE:    0.00 PKD
ROOT
HETATM    1  C   UNL     1     -11.076   9.540  71.352  1.00  0.00    -0.438 C  
HETATM    2  C   UNL     1     -11.657   8.164  71.067  1.00  0.00    -0.301 C  
ENDROOT
BRANCH   2   3
HETATM    3  C   UNL     1     -11.148   7.132  72.033  1.00  0.00    -0.278 C  
HETATM    4  C   UNL     1     -10.437   6.040  71.708  1.00  0.00    -0.268 C  
BRANCH   4   5
HETATM    5  C   UNL     1     -10.064   5.655  70.305  1.00  0.00    -0.287 C  
BRANCH   5   6
HETATM    6  C   UNL     1      -9.801   4.182  70.164  1.00  0.00    -0.242 C  
HETATM    7  C   UNL     1      -9.359   3.578  69.047  1.00  0.00    -0.240 C  
BRANCH   7   8
HETATM    8  C   UNL     1      -9.105   4.297  67.753  1.00  0.00    -0.157 C  
BRANCH   8   9
HETATM    9  C   UNL     1     -10.373   4.607  67.013  1.00  0.00    -0.115 C  
HETATM   10  C   UNL     1     -10.703   5.816  66.525  1.00  0.00    -0.274 C  
BRANCH  10  11
HETATM   11  C   UNL     1      -9.796   7.012  66.599  1.00  0.00    -0.223 C  
BRANCH  11  12
HETATM   12  C   UNL     1     -10.246   8.027  67.645  1.00  0.00    -0.291 C  
BRANCH  12  13
HETATM   13  C   UNL     1      -9.053   8.846  68.137  1.00  0.00    -0.142 C  
BRANCH  13  14
HETATM   14  C   UNL     1      -7.759   8.049  68.012  1.00  0.00    -0.118 C  
BRANCH  14  15
HETATM   15  C   UNL     1      -6.912   8.536  66.836  1.00  0.00    -0.074 C  
BRANCH  15  16
HETATM   16  C   UNL     1      -7.763   9.358  65.871  1.00  0.00    -0.099 C  
BRANCH  16  17
HETATM   17  C   UNL     1      -6.905  10.077  64.833  1.00  0.00    -0.133 C  
HETATM   18  C   UNL     1      -7.360   9.768  63.424  1.00  0.00    -0.125 C  
HETATM   19  O   UNL     1      -8.296   9.045  63.123  1.00  0.00    -0.180 OA 
HETATM   20  O   UNL     1      -6.602  10.393  62.493  1.00  0.00    -0.133 OA 
ENDBRANCH  16  17
ENDBRANCH  15  16
ENDBRANCH  14  15
ENDBRANCH  13  14
ENDBRANCH  12  13
ENDBRANCH  11  12
ENDBRANCH  10  11
ENDBRANCH   8   9
ENDBRANCH   7   8
ENDBRANCH   5   6
ENDBRANCH   4   5
ENDBRANCH   2   3
TORSDOF 12
ENDMDL
MODEL      455
REMARK 921   NORMALIZED FREE ENERGY PREDICTED BY IDOCK:   -2.01 KCAL/MOL
REMARK 922        TOTAL FREE ENERGY PREDICTED BY IDOCK:   -5.27 KCAL/MOL
REMARK 923 INTER-LIGAND FREE ENERGY PREDICTED BY IDOCK:   -2.98 KCAL/MOL
REMARK 924 INTRA-LIGAND FREE ENERGY PREDICTED BY IDOCK:   -2.29 KCAL/MOL
REMARK 927      BINDING AFFINITY PREDICTED BY RF-SCORE:    0.00 PKD
ROOT
HETATM    1  C   UNL     1     -12.326  14.238  64.538  1.00  0.00    -0.432 C  
HETATM    2  C   UNL     1     -12.067  13.438  65.804  1.00  0.00    -0.481 C  
ENDROOT
BRANCH   2   3
HETATM    3  C   UNL     1     -10.980  14.052  66.640  1.00  0.00    -0.300 C  
HETATM    4  C   UNL     1      -9.735  13.569  66.783  1.00  0.00    -0.271 C  
BRANCH   4   5
HETATM    5  C   UNL     1      -9.237  12.302  66.149  1.00  0.00    -0.132 C  
BRANCH   5   6
HETATM    6  C   UNL     1      -9.484  11.094  67.007  1.00  0.00    -0.193 C  
HETATM    7  C   UNL     1      -8.723  10.717  68.049  1.00  0.00    -0.126 C  
BRANCH   7   8
HETATM    8  C   UNL     1      -7.477  11.437  68.478  1.00  0.00    -0.113 C  
BRANCH   8   9
HETATM    9  C   UNL     1      -6.421  10.500  68.987  1.00  0.00    -0.054 C  
HETATM   10  C   UNL     1      -5.647   9.719  68.212  1.00  0.00    -0.039 C  
BRANCH  10  11
HETATM   11  C   UNL     1      -5.694   9.740  66.711  1.00  0.00    -0.050 C  
BRANCH  11  12
HETATM   12  C   UNL     1      -5.447   8.367  66.096  1.00  0.00    -0.035 C  
BRANCH  12  13
HETATM   13  C   UNL     1      -6.417   7.340  66.683  1.00  0.00    -0.052 C  
BRANCH  13  14
HETATM   14  C   UNL     1      -7.797   7.472  66.046  1.00  0.00    -0.101 C  
BRANCH  14  15
HETATM   15  C   UNL     1      -8.902   7.046  67.012  1.00  0.00    -0.124 C  
BRANCH  15  16
HETATM   16  C   UNL     1      -8.299   6.465  68.290  1.00  0.00    -0.116 C  
BRANCH  16  17
HETATM   17  C   UNL     1      -8.722   7.255  69.524  1.00  0.00    -0.134 C  
HETATM   18  C   UNL     1      -7.574   7.430  70.494  1.00  0.00    -0.087 C  
HETATM   19  O   UNL     1      -6.439   7.010  70.333  1.00  0.00    -0.041 OA 
HETATM   20  O   UNL     1      -7.937   8.123  71.598  1.00  0.00    -0.102 OA 
ENDBRANCH  16  17
ENDBRANCH  15  16
ENDBRANCH  14  15
ENDBRANCH  13  14
ENDBRANCH  12  13
ENDBRANCH  11  12
ENDBRANCH  10  11
ENDBRANCH   8   9
ENDBRANCH   7   8
ENDBRANCH   5   6
ENDBRANCH   4   5
ENDBRANCH   2   3
TORSDOF 12
ENDMDL
MODEL      456
REMARK 921   NORMALIZED FREE ENERGY PREDICTED BY IDOCK:   -1.97 KCAL/MOL
REMARK 922        TOTAL FREE ENERGY PREDICTED BY IDOCK:   -5.20 KCAL/MOL
REMARK 923 INTER-LIGAND FREE ENERGY PREDICTED BY IDOCK:   -4.02 KCAL/MOL
REMARK 924 INTRA-LIGAND FREE ENERGY PREDICTED BY IDOCK:   -1.18 KCAL/MOL
REMARK 927      BINDING AFFINITY PREDICTED BY RF-SCORE:    0.00 PKD
ROOT
HETATM    1  C   UNL     1      -6.049   4.887  73.991  1.00  0.00    -0.042 C  
HETATM    2  C   UNL     1      -6.005   6.302  74.547  1.00  0.00    -0.064 C  
ENDROOT
BRANCH   2   3
HETATM    3  C   UNL     1      -6.282   7.327  73.484  1.00  0.00    -0.064 C  
HETATM    4  C   UNL     1      -7.421   8.027  73.349  1.00  0.00    -0.187 C  
BRANCH   4   5
HETATM    5  C   UNL     1      -8.627   7.866  74.231  1.00  0.00    -0.247 C  
BRANCH   5   6
HETATM    6  C   UNL     1      -9.523   6.748  73.781  1.00  0.00    -0.215 C  
HETATM    7  C   UNL     1     -10.611   6.893  73.005  1.00  0.00    -0.307 C  
BRANCH   7   8
HETATM    8  C   UNL     1     -11.113   8.219  72.509  1.00  0.00    -0.439 C  
BRANCH   8   9
HETATM    9  C   UNL     1     -10.322   8.729  71.340  1.00  0.00    -0.348 C  
HETATM   10  C   UNL     1      -9.959   7.990  70.276  1.00  0.00    -0.189 C  
BRANCH  10  11
HETATM   11  C   UNL     1     -10.369   6.557  70.087  1.00  0.00    -0.241 C  
BRANCH  11  12
HETATM   12  C   UNL     1     -11.241   6.353  68.852  1.00  0.00    -0.385 C  
BRANCH  12  13
HETATM   13  C   UNL     1     -10.687   7.154  67.673  1.00  0.00    -0.314 C  
BRANCH  13  14
HETATM   14  C   UNL     1      -9.717   6.311  66.852  1.00  0.00    -0.184 C  
BRANCH  14  15
HETATM   15  C   UNL     1     -10.136   4.841  66.825  1.00  0.00    -0.261 C  
BRANCH  15  16
HETATM   16  C   UNL     1      -8.982   3.949  67.277  1.00  0.00    -0.151 C  
BRANCH  16  17
HETATM   17  C   UNL     1      -9.371   3.087  68.475  1.00  0.00    -0.243 C  
HETATM   18  C   UNL     1      -8.170   2.388  69.071  1.00  0.00    -0.051 C  
HETATM   19  O   UNL     1      -7.020   2.486  68.672  1.00  0.00    -0.043 OA 
HETATM   20  O   UNL     1      -8.501   1.612  70.130  1.00  0.00    -0.044 OA 
ENDBRANCH  16  17
ENDBRANCH  15  16
ENDBRANCH  14  15
ENDBRANCH  13  14
ENDBRANCH  12  13
ENDBRANCH  11  12
ENDBRANCH  10  11
ENDBRANCH   8   9
ENDBRANCH   7   8
ENDBRANCH   5   6
ENDBRANCH   4   5
ENDBRANCH   2   3
TORSDOF 12
ENDMDL
MODEL      457
REMARK 921   NORMALIZED FREE ENERGY PREDICTED BY IDOCK:   -1.97 KCAL/MOL
REMARK 922        TOTAL FREE ENERGY PREDICTED BY IDOCK:   -5.20 KCAL/MOL
REMARK 923 INTER-LIGAND FREE ENERGY PREDICTED BY IDOCK:   -4.54 KCAL/MOL
REMARK 924 INTRA-LIGAND FREE ENERGY PREDICTED BY IDOCK:   -0.66 KCAL/MOL
REMARK 927      BINDING AFFINITY PREDICTED BY RF-SCORE:    0.00 PKD
ROOT
HETATM    1  C   UNL     1      -7.458   2.716  69.766  1.00  0.00    -0.044 C  
HETATM    2  C   UNL     1      -7.427   2.415  68.276  1.00  0.00    -0.048 C  
ENDROOT
BRANCH   2   3
HETATM    3  C   UNL     1      -6.516   3.353  67.536  1.00  0.00    -0.037 C  
HETATM    4  C   UNL     1      -6.798   4.625  67.210  1.00  0.00    -0.056 C  
BRANCH   4   5
HETATM    5  C   UNL     1      -8.102   5.309  67.507  1.00  0.00    -0.100 C  
BRANCH   5   6
HETATM    6  C   UNL     1      -8.644   6.053  66.320  1.00  0.00    -0.137 C  
HETATM    7  C   UNL     1      -9.025   7.343  66.323  1.00  0.00    -0.192 C  
BRANCH   7   8
HETATM    8  C   UNL     1      -9.003   8.218  67.543  1.00  0.00    -0.141 C  
BRANCH   8   9
HETATM    9  C   UNL     1     -10.149   7.937  68.469  1.00  0.00    -0.216 C  
HETATM   10  C   UNL     1     -10.785   8.863  69.210  1.00  0.00    -0.177 C  
BRANCH  10  11
HETATM   11  C   UNL     1     -10.468  10.330  69.148  1.00  0.00    -0.246 C  
BRANCH  11  12
HETATM   12  C   UNL     1     -11.369  11.086  68.178  1.00  0.00    -0.374 C  
BRANCH  12  13
HETATM   13  C   UNL     1     -11.657  12.491  68.707  1.00  0.00    -0.366 C  
BRANCH  13  14
HETATM   14  C   UNL     1     -11.990  13.444  67.563  1.00  0.00    -0.381 C  
BRANCH  14  15
HETATM   15  C   UNL     1     -11.283  14.789  67.731  1.00  0.00    -0.323 C  
BRANCH  15  16
HETATM   16  C   UNL     1     -10.651  15.227  66.412  1.00  0.00    -0.308 C  
BRANCH  16  17
HETATM   17  C   UNL     1      -9.148  15.448  66.552  1.00  0.00    -0.334 C  
HETATM   18  C   UNL     1      -8.761  16.874  66.228  1.00  0.00    -0.286 C  
HETATM   19  O   UNL     1      -9.533  17.762  65.899  1.00  0.00    -0.521 OA 
HETATM   20  O   UNL     1      -7.429  17.082  66.340  1.00  0.00    -0.254 OA 
ENDBRANCH  16  17
ENDBRANCH  15  16
ENDBRANCH  14  15
ENDBRANCH  13  14
ENDBRANCH  12  13
ENDBRANCH  11  12
ENDBRANCH  10  11
ENDBRANCH   8   9
ENDBRANCH   7   8
ENDBRANCH   5   6
ENDBRANCH   4   5
ENDBRANCH   2   3
TORSDOF 12
ENDMDL
MODEL      458
REMARK 921   NORMALIZED FREE ENERGY PREDICTED BY IDOCK:   -1.97 KCAL/MOL
REMARK 922        TOTAL FREE ENERGY PREDICTED BY IDOCK:   -5.20 KCAL/MOL
REMARK 923 INTER-LIGAND FREE ENERGY PREDICTED BY IDOCK:   -3.51 KCAL/MOL
REMARK 924 INTRA-LIGAND FREE ENERGY PREDICTED BY IDOCK:   -1.69 KCAL/MOL
REMARK 927      BINDING AFFINITY PREDICTED BY RF-SCORE:    0.00 PKD
ROOT
HETATM    1  C   UNL     1      -9.653  12.542  67.954  1.00  0.00    -0.206 C  
HETATM    2  C   UNL     1      -8.691  13.436  67.187  1.00  0.00    -0.220 C  
ENDROOT
BRANCH   2   3
HETATM    3  C   UNL     1      -7.258  13.075  67.458  1.00  0.00    -0.154 C  
HETATM    4  C   UNL     1      -6.655  11.932  67.090  1.00  0.00    -0.148 C  
BRANCH   4   5
HETATM    5  C   UNL     1      -7.338  10.804  66.371  1.00  0.00    -0.142 C  
BRANCH   5   6
HETATM    6  C   UNL     1      -6.797   9.459  66.766  1.00  0.00    -0.080 C  
HETATM    7  C   UNL     1      -7.206   8.741  67.827  1.00  0.00    -0.084 C  
BRANCH   7   8
HETATM    8  C   UNL     1      -8.246   9.210  68.803  1.00  0.00    -0.109 C  
BRANCH   8   9
HETATM    9  C   UNL     1      -7.913   8.835  70.217  1.00  0.00    -0.106 C  
HETATM   10  C   UNL     1      -8.251   7.673  70.804  1.00  0.00    -0.109 C  
BRANCH  10  11
HETATM   11  C   UNL     1      -8.955   6.558  70.084  1.00  0.00    -0.155 C  
BRANCH  11  12
HETATM   12  C   UNL     1     -10.417   6.422  70.496  1.00  0.00    -0.270 C  
BRANCH  12  13
HETATM   13  C   UNL     1     -11.301   6.243  69.261  1.00  0.00    -0.411 C  
BRANCH  13  14
HETATM   14  C   UNL     1     -10.573   6.701  68.002  1.00  0.00    -0.300 C  
BRANCH  14  15
HETATM   15  C   UNL     1     -10.784   5.722  66.846  1.00  0.00    -0.381 C  
BRANCH  15  16
HETATM   16  C   UNL     1      -9.741   4.607  66.895  1.00  0.00    -0.215 C  
BRANCH  16  17
HETATM   17  C   UNL     1      -8.344   5.126  66.567  1.00  0.00    -0.108 C  
HETATM   18  C   UNL     1      -8.092   5.146  65.076  1.00  0.00    -0.117 C  
HETATM   19  O   UNL     1      -8.889   4.804  64.217  1.00  0.00    -0.148 OA 
HETATM   20  O   UNL     1      -6.853   5.596  64.772  1.00  0.00    -0.048 OA 
ENDBRANCH  16  17
ENDBRANCH  15  16
ENDBRANCH  14  15
ENDBRANCH  13  14
ENDBRANCH  12  13
ENDBRANCH  11  12
ENDBRANCH  10  11
ENDBRANCH   8   9
ENDBRANCH   7   8
ENDBRANCH   5   6
ENDBRANCH   4   5
ENDBRANCH   2   3
TORSDOF 12
ENDMDL
MODEL      459
REMARK 921   NORMALIZED FREE ENERGY PREDICTED BY IDOCK:   -1.95 KCAL/MOL
REMARK 922        TOTAL FREE ENERGY PREDICTED BY IDOCK:   -5.15 KCAL/MOL
REMARK 923 INTER-LIGAND FREE ENERGY PREDICTED BY IDOCK:   -3.39 KCAL/MOL
REMARK 924 INTRA-LIGAND FREE ENERGY PREDICTED BY IDOCK:   -1.76 KCAL/MOL
REMARK 927      BINDING AFFINITY PREDICTED BY RF-SCORE:    0.00 PKD
ROOT
HETATM    1  C   UNL     1      -6.856   5.650  72.440  1.00  0.00    -0.077 C  
HETATM    2  C   UNL     1      -7.649   6.702  73.200  1.00  0.00    -0.088 C  
ENDROOT
BRANCH   2   3
HETATM    3  C   UNL     1      -8.162   7.780  72.288  1.00  0.00    -0.149 C  
HETATM    4  C   UNL     1      -9.371   7.800  71.702  1.00  0.00    -0.174 C  
BRANCH   4   5
HETATM    5  C   UNL     1     -10.400   6.714  71.839  1.00  0.00    -0.219 C  
BRANCH   5   6
HETATM    6  C   UNL     1     -10.112   5.535  70.955  1.00  0.00    -0.276 C  
HETATM    7  C   UNL     1     -10.531   5.399  69.684  1.00  0.00    -0.361 C  
BRANCH   7   8
HETATM    8  C   UNL     1     -11.394   6.405  68.978  1.00  0.00    -0.332 C  
BRANCH   8   9
HETATM    9  C   UNL     1     -11.156   6.422  67.497  1.00  0.00    -0.401 C  
HETATM   10  C   UNL     1     -10.358   7.296  66.856  1.00  0.00    -0.358 C  
BRANCH  10  11
HETATM   11  C   UNL     1      -9.537   8.337  67.563  1.00  0.00    -0.194 C  
BRANCH  11  12
HETATM   12  C   UNL     1      -8.309   8.759  66.764  1.00  0.00    -0.108 C  
BRANCH  12  13
HETATM   13  C   UNL     1      -7.127   7.845  67.086  1.00  0.00    -0.079 C  
BRANCH  13  14
HETATM   14  C   UNL     1      -6.803   6.940  65.902  1.00  0.00    -0.056 C  
BRANCH  14  15
HETATM   15  C   UNL     1      -7.282   7.548  64.584  1.00  0.00    -0.068 C  
BRANCH  15  16
HETATM   16  C   UNL     1      -7.760   6.453  63.633  1.00  0.00    -0.114 C  
BRANCH  16  17
HETATM   17  C   UNL     1      -8.427   5.305  64.384  1.00  0.00    -0.126 C  
HETATM   18  C   UNL     1      -7.910   3.961  63.921  1.00  0.00    -0.084 C  
HETATM   19  O   UNL     1      -7.060   3.785  63.063  1.00  0.00    -0.042 OA 
HETATM   20  O   UNL     1      -8.500   2.932  64.573  1.00  0.00    -0.089 OA 
ENDBRANCH  16  17
ENDBRANCH  15  16
ENDBRANCH  14  15
ENDBRANCH  13  14
ENDBRANCH  12  13
ENDBRANCH  11  12
ENDBRANCH  10  11
ENDBRANCH   8   9
ENDBRANCH   7   8
ENDBRANCH   5   6
ENDBRANCH   4   5
ENDBRANCH   2   3
TORSDOF 12
ENDMDL
MODEL      460
REMARK 921   NORMALIZED FREE ENERGY PREDICTED BY IDOCK:   -1.93 KCAL/MOL
REMARK 922        TOTAL FREE ENERGY PREDICTED BY IDOCK:   -5.13 KCAL/MOL
REMARK 923 INTER-LIGAND FREE ENERGY PREDICTED BY IDOCK:   -3.49 KCAL/MOL
REMARK 924 INTRA-LIGAND FREE ENERGY PREDICTED BY IDOCK:   -1.64 KCAL/MOL
REMARK 927      BINDING AFFINITY PREDICTED BY RF-SCORE:    0.00 PKD
ROOT
HETATM    1  C   UNL     1      -7.674   3.890  65.235  1.00  0.00    -0.082 C  
HETATM    2  C   UNL     1      -7.404   3.858  66.731  1.00  0.00    -0.072 C  
ENDROOT
BRANCH   2   3
HETATM    3  C   UNL     1      -8.539   4.453  67.515  1.00  0.00    -0.106 C  
HETATM    4  C   UNL     1      -8.444   5.483  68.372  1.00  0.00    -0.101 C  
BRANCH   4   5
HETATM    5  C   UNL     1      -7.162   6.189  68.713  1.00  0.00    -0.084 C  
BRANCH   5   6
HETATM    6  C   UNL     1      -7.016   6.434  70.188  1.00  0.00    -0.063 C  
HETATM    7  C   UNL     1      -7.280   7.596  70.810  1.00  0.00    -0.062 C  
BRANCH   7   8
HETATM    8  C   UNL     1      -7.724   8.842  70.099  1.00  0.00    -0.084 C  
BRANCH   8   9
HETATM    9  C   UNL     1      -9.182   9.128  70.303  1.00  0.00    -0.249 C  
HETATM   10  C   UNL     1     -10.095   9.214  69.318  1.00  0.00    -0.196 C  
BRANCH  10  11
HETATM   11  C   UNL     1      -9.776   8.959  67.872  1.00  0.00    -0.190 C  
BRANCH  11  12
HETATM   12  C   UNL     1     -10.289  10.062  66.953  1.00  0.00    -0.297 C  
BRANCH  12  13
HETATM   13  C   UNL     1      -9.440  11.324  67.113  1.00  0.00    -0.183 C  
BRANCH  13  14
HETATM   14  C   UNL     1     -10.321  12.543  67.368  1.00  0.00    -0.222 C  
BRANCH  14  15
HETATM   15  C   UNL     1     -11.805  12.195  67.251  1.00  0.00    -0.293 C  
BRANCH  15  16
HETATM   16  C   UNL     1     -12.620  13.442  66.914  1.00  0.00     0.109 C  
BRANCH  16  17
HETATM   17  C   UNL     1     -11.808  14.443  66.097  1.00  0.00    -0.391 C  
HETATM   18  C   UNL     1     -12.137  14.356  64.623  1.00  0.00    -0.471 C  
HETATM   19  O   UNL     1     -12.949  13.596  64.120  1.00  0.00    -0.430 OA 
HETATM   20  O   UNL     1     -11.418  15.234  63.885  1.00  0.00    -0.021 OA 
ENDBRANCH  16  17
ENDBRANCH  15  16
ENDBRANCH  14  15
ENDBRANCH  13  14
ENDBRANCH  12  13
ENDBRANCH  11  12
ENDBRANCH  10  11
ENDBRANCH   8   9
ENDBRANCH   7   8
ENDBRANCH   5   6
ENDBRANCH   4   5
ENDBRANCH   2   3
TORSDOF 12
ENDMDL
MODEL      461
REMARK 921   NORMALIZED FREE ENERGY PREDICTED BY IDOCK:   -1.89 KCAL/MOL
REMARK 922        TOTAL FREE ENERGY PREDICTED BY IDOCK:   -5.07 KCAL/MOL
REMARK 923 INTER-LIGAND FREE ENERGY PREDICTED BY IDOCK:   -4.59 KCAL/MOL
REMARK 924 INTRA-LIGAND FREE ENERGY PREDICTED BY IDOCK:   -0.48 KCAL/MOL
REMARK 927      BINDING AFFINITY PREDICTED BY RF-SCORE:    0.00 PKD
ROOT
HETATM    1  C   UNL     1      -7.461   2.856  69.859  1.00  0.00    -0.044 C  
HETATM    2  C   UNL     1      -8.345   2.277  68.766  1.00  0.00    -0.080 C  
ENDROOT
BRANCH   2   3
HETATM    3  C   UNL     1      -8.124   2.962  67.447  1.00  0.00    -0.077 C  
HETATM    4  C   UNL     1      -8.542   4.198  67.127  1.00  0.00    -0.105 C  
BRANCH   4   5
HETATM    5  C   UNL     1      -9.340   5.088  68.038  1.00  0.00    -0.152 C  
BRANCH   5   6
HETATM    6  C   UNL     1     -10.553   5.661  67.363  1.00  0.00    -0.312 C  
HETATM    7  C   UNL     1     -10.811   6.972  67.218  1.00  0.00    -0.403 C  
BRANCH   7   8
HETATM    8  C   UNL     1      -9.929   8.062  67.756  1.00  0.00    -0.224 C  
BRANCH   8   9
HETATM    9  C   UNL     1     -10.119   8.275  69.229  1.00  0.00    -0.199 C  
HETATM   10  C   UNL     1     -10.483   9.439  69.797  1.00  0.00    -0.243 C  
BRANCH  10  11
HETATM   11  C   UNL     1     -10.819  10.673  69.010  1.00  0.00    -0.277 C  
BRANCH  11  12
HETATM   12  C   UNL     1      -9.592  11.316  68.372  1.00  0.00    -0.195 C  
BRANCH  12  13
HETATM   13  C   UNL     1     -10.016  12.306  67.286  1.00  0.00    -0.210 C  
BRANCH  13  14
HETATM   14  C   UNL     1      -9.013  13.450  67.175  1.00  0.00    -0.227 C  
BRANCH  14  15
HETATM   15  C   UNL     1      -9.701  14.763  66.798  1.00  0.00    -0.264 C  
BRANCH  15  16
HETATM   16  C   UNL     1      -8.981  15.946  67.442  1.00  0.00    -0.203 C  
BRANCH  16  17
HETATM   17  C   UNL     1      -9.956  17.044  67.854  1.00  0.00    -0.281 C  
HETATM   18  C   UNL     1      -9.662  18.346  67.142  1.00  0.00    -0.300 C  
HETATM   19  O   UNL     1      -8.770  18.525  66.329  1.00  0.00    -0.392 OA 
HETATM   20  O   UNL     1     -10.515  19.332  67.505  1.00  0.00    -0.403 OA 
ENDBRANCH  16  17
ENDBRANCH  15  16
ENDBRANCH  14  15
ENDBRANCH  13  14
ENDBRANCH  12  13
ENDBRANCH  11  12
ENDBRANCH  10  11
ENDBRANCH   8   9
ENDBRANCH   7   8
ENDBRANCH   5   6
ENDBRANCH   4   5
ENDBRANCH   2   3
TORSDOF 12
ENDMDL
MODEL      462
REMARK 921   NORMALIZED FREE ENERGY PREDICTED BY IDOCK:   -1.89 KCAL/MOL
REMARK 922        TOTAL FREE ENERGY PREDICTED BY IDOCK:   -5.06 KCAL/MOL
REMARK 923 INTER-LIGAND FREE ENERGY PREDICTED BY IDOCK:   -3.62 KCAL/MOL
REMARK 924 INTRA-LIGAND FREE ENERGY PREDICTED BY IDOCK:   -1.44 KCAL/MOL
REMARK 927      BINDING AFFINITY PREDICTED BY RF-SCORE:    0.00 PKD
ROOT
HETATM    1  C   UNL     1     -12.342  14.252  64.505  1.00  0.00    -0.432 C  
HETATM    2  C   UNL     1     -12.275  13.265  65.660  1.00  0.00    -0.514 C  
ENDROOT
BRANCH   2   3
HETATM    3  C   UNL     1     -11.200  13.631  66.644  1.00  0.00    -0.324 C  
HETATM    4  C   UNL     1     -10.010  13.019  66.768  1.00  0.00    -0.245 C  
BRANCH   4   5
HETATM    5  C   UNL     1      -9.576  11.833  65.954  1.00  0.00    -0.249 C  
BRANCH   5   6
HETATM    6  C   UNL     1      -9.974  10.529  66.583  1.00  0.00    -0.260 C  
HETATM    7  C   UNL     1      -9.289   9.896  67.552  1.00  0.00    -0.159 C  
BRANCH   7   8
HETATM    8  C   UNL     1      -7.990  10.393  68.118  1.00  0.00    -0.110 C  
BRANCH   8   9
HETATM    9  C   UNL     1      -7.018   9.280  68.380  1.00  0.00    -0.067 C  
HETATM   10  C   UNL     1      -6.257   8.687  67.442  1.00  0.00    -0.056 C  
BRANCH  10  11
HETATM   11  C   UNL     1      -6.233   9.119  66.003  1.00  0.00    -0.063 C  
BRANCH  11  12
HETATM   12  C   UNL     1      -5.841   7.989  65.057  1.00  0.00    -0.045 C  
BRANCH  12  13
HETATM   13  C   UNL     1      -6.560   6.697  65.446  1.00  0.00    -0.050 C  
BRANCH  13  14
HETATM   14  C   UNL     1      -6.617   5.731  64.267  1.00  0.00    -0.041 C  
BRANCH  14  15
HETATM   15  C   UNL     1      -7.758   4.727  64.420  1.00  0.00    -0.082 C  
BRANCH  15  16
HETATM   16  C   UNL     1      -8.279   4.725  65.856  1.00  0.00    -0.112 C  
BRANCH  16  17
HETATM   17  C   UNL     1      -9.725   5.205  65.933  1.00  0.00    -0.159 C  
HETATM   18  C   UNL     1      -9.946   6.120  67.117  1.00  0.00    -0.154 C  
HETATM   19  O   UNL     1      -9.093   6.457  67.923  1.00  0.00    -0.115 OA 
HETATM   20  O   UNL     1     -11.227   6.547  67.203  1.00  0.00    -0.388 OA 
ENDBRANCH  16  17
ENDBRANCH  15  16
ENDBRANCH  14  15
ENDBRANCH  13  14
ENDBRANCH  12  13
ENDBRANCH  11  12
ENDBRANCH  10  11
ENDBRANCH   8   9
ENDBRANCH   7   8
ENDBRANCH   5   6
ENDBRANCH   4   5
ENDBRANCH   2   3
TORSDOF 12
ENDMDL
MODEL      463
REMARK 921   NORMALIZED FREE ENERGY PREDICTED BY IDOCK:   -1.88 KCAL/MOL
REMARK 922        TOTAL FREE ENERGY PREDICTED BY IDOCK:   -5.04 KCAL/MOL
REMARK 923 INTER-LIGAND FREE ENERGY PREDICTED BY IDOCK:   -5.40 KCAL/MOL
REMARK 924 INTRA-LIGAND FREE ENERGY PREDICTED BY IDOCK:    0.36 KCAL/MOL
REMARK 927      BINDING AFFINITY PREDICTED BY RF-SCORE:    0.00 PKD
ROOT
HETATM    1  C   UNL     1     -11.126   6.581  70.426  1.00  0.00    -0.389 C  
HETATM    2  C   UNL     1      -9.653   6.952  70.495  1.00  0.00    -0.171 C  
ENDROOT
BRANCH   2   3
HETATM    3  C   UNL     1      -9.456   8.377  70.929  1.00  0.00    -0.205 C  
HETATM    4  C   UNL     1      -9.212   9.416  70.114  1.00  0.00    -0.268 C  
BRANCH   4   5
HETATM    5  C   UNL     1      -9.058   9.311  68.623  1.00  0.00    -0.132 C  
BRANCH   5   6
HETATM    6  C   UNL     1      -7.947  10.173  68.097  1.00  0.00    -0.104 C  
HETATM    7  C   UNL     1      -8.036  11.495  67.868  1.00  0.00    -0.126 C  
BRANCH   7   8
HETATM    8  C   UNL     1      -9.290  12.296  68.068  1.00  0.00    -0.195 C  
BRANCH   8   9
HETATM    9  C   UNL     1     -10.482  11.663  67.412  1.00  0.00    -0.239 C  
HETATM   10  C   UNL     1     -11.604  12.318  67.061  1.00  0.00    -0.418 C  
BRANCH  10  11
HETATM   11  C   UNL     1     -11.779  13.801  67.220  1.00  0.00    -0.416 C  
BRANCH  11  12
HETATM   12  C   UNL     1     -10.484  14.574  66.996  1.00  0.00    -0.268 C  
BRANCH  12  13
HETATM   13  C   UNL     1     -10.781  16.060  66.793  1.00  0.00    -0.259 C  
BRANCH  13  14
HETATM   14  C   UNL     1     -10.742  16.808  68.121  1.00  0.00    -0.361 C  
BRANCH  14  15
HETATM   15  C   UNL     1      -9.327  17.278  68.458  1.00  0.00    -0.276 C  
BRANCH  15  16
HETATM   16  C   UNL     1      -9.264  18.804  68.486  1.00  0.00    -0.386 C  
BRANCH  16  17
HETATM   17  C   UNL     1      -7.851  19.306  68.767  1.00  0.00    -0.388 C  
HETATM   18  C   UNL     1      -7.314  20.129  67.617  1.00  0.00    -0.293 C  
HETATM   19  O   UNL     1      -7.914  20.383  66.585  1.00  0.00    -0.274 OA 
HETATM   20  O   UNL     1      -6.057  20.574  67.849  1.00  0.00    -0.227 OA 
ENDBRANCH  16  17
ENDBRANCH  15  16
ENDBRANCH  14  15
ENDBRANCH  13  14
ENDBRANCH  12  13
ENDBRANCH  11  12
ENDBRANCH  10  11
ENDBRANCH   8   9
ENDBRANCH   7   8
ENDBRANCH   5   6
ENDBRANCH   4   5
ENDBRANCH   2   3
TORSDOF 12
ENDMDL
MODEL      464
REMARK 921   NORMALIZED FREE ENERGY PREDICTED BY IDOCK:   -1.85 KCAL/MOL
REMARK 922        TOTAL FREE ENERGY PREDICTED BY IDOCK:   -4.99 KCAL/MOL
REMARK 923 INTER-LIGAND FREE ENERGY PREDICTED BY IDOCK:   -3.76 KCAL/MOL
REMARK 924 INTRA-LIGAND FREE ENERGY PREDICTED BY IDOCK:   -1.24 KCAL/MOL
REMARK 927      BINDING AFFINITY PREDICTED BY RF-SCORE:    0.00 PKD
ROOT
HETATM    1  C   UNL     1      -7.747   4.006  65.222  1.00  0.00    -0.085 C  
HETATM    2  C   UNL     1      -7.468   4.526  66.623  1.00  0.00    -0.082 C  
ENDROOT
BRANCH   2   3
HETATM    3  C   UNL     1      -8.613   5.342  67.153  1.00  0.00    -0.105 C  
HETATM    4  C   UNL     1      -8.607   6.672  67.339  1.00  0.00    -0.119 C  
BRANCH   4   5
HETATM    5  C   UNL     1      -7.425   7.562  67.075  1.00  0.00    -0.098 C  
BRANCH   5   6
HETATM    6  C   UNL     1      -6.975   8.298  68.304  1.00  0.00    -0.076 C  
HETATM    7  C   UNL     1      -7.215   9.596  68.561  1.00  0.00    -0.070 C  
BRANCH   7   8
HETATM    8  C   UNL     1      -7.941  10.513  67.619  1.00  0.00    -0.106 C  
BRANCH   8   9
HETATM    9  C   UNL     1      -7.006  11.405  66.856  1.00  0.00    -0.140 C  
HETATM   10  C   UNL     1      -6.678  12.660  67.212  1.00  0.00    -0.105 C  
BRANCH  10  11
HETATM   11  C   UNL     1      -7.158  13.312  68.477  1.00  0.00    -0.105 C  
BRANCH  11  12
HETATM   12  C   UNL     1      -7.559  14.769  68.272  1.00  0.00    -0.115 C  
BRANCH  12  13
HETATM   13  C   UNL     1      -8.779  14.860  67.354  1.00  0.00    -0.208 C  
BRANCH  13  14
HETATM   14  C   UNL     1      -8.599  15.968  66.321  1.00  0.00    -0.363 C  
BRANCH  14  15
HETATM   15  C   UNL     1      -7.286  16.721  66.530  1.00  0.00    -0.306 C  
BRANCH  15  16
HETATM   16  C   UNL     1      -7.502  18.225  66.368  1.00  0.00    -0.284 C  
BRANCH  16  17
HETATM   17  C   UNL     1      -8.919  18.637  66.755  1.00  0.00    -0.297 C  
HETATM   18  C   UNL     1      -8.985  19.132  68.183  1.00  0.00    -0.322 C  
HETATM   19  O   UNL     1      -8.039  19.211  68.951  1.00  0.00    -0.344 OA 
HETATM   20  O   UNL     1     -10.238  19.493  68.543  1.00  0.00    -0.425 OA 
ENDBRANCH  16  17
ENDBRANCH  15  16
ENDBRANCH  14  15
ENDBRANCH  13  14
ENDBRANCH  12  13
ENDBRANCH  11  12
ENDBRANCH  10  11
ENDBRANCH   8   9
ENDBRANCH   7   8
ENDBRANCH   5   6
ENDBRANCH   4   5
ENDBRANCH   2   3
TORSDOF 12
ENDMDL
MODEL      465
REMARK 921   NORMALIZED FREE ENERGY PREDICTED BY IDOCK:   -1.85 KCAL/MOL
REMARK 922        TOTAL FREE ENERGY PREDICTED BY IDOCK:   -4.99 KCAL/MOL
REMARK 923 INTER-LIGAND FREE ENERGY PREDICTED BY IDOCK:   -3.21 KCAL/MOL
REMARK 924 INTRA-LIGAND FREE ENERGY PREDICTED BY IDOCK:   -1.78 KCAL/MOL
REMARK 927      BINDING AFFINITY PREDICTED BY RF-SCORE:    0.00 PKD
ROOT
HETATM    1  C   UNL     1     -10.322   8.350  71.789  1.00  0.00    -0.333 C  
HETATM    2  C   UNL     1     -10.956   8.102  70.429  1.00  0.00    -0.248 C  
ENDROOT
BRANCH   2   3
HETATM    3  C   UNL     1     -11.378   6.670  70.263  1.00  0.00    -0.431 C  
HETATM    4  C   UNL     1     -11.117   5.896  69.196  1.00  0.00    -0.328 C  
BRANCH   4   5
HETATM    5  C   UNL     1     -10.384   6.359  67.969  1.00  0.00    -0.234 C  
BRANCH   5   6
HETATM    6  C   UNL     1     -10.853   5.664  66.723  1.00  0.00    -0.296 C  
HETATM    7  C   UNL     1     -10.052   5.127  65.787  1.00  0.00    -0.093 C  
BRANCH   7   8
HETATM    8  C   UNL     1      -8.552   5.186  65.838  1.00  0.00    -0.128 C  
BRANCH   8   9
HETATM    9  C   UNL     1      -7.933   5.188  64.471  1.00  0.00    -0.106 C  
HETATM   10  C   UNL     1      -7.237   6.211  63.943  1.00  0.00    -0.061 C  
BRANCH  10  11
HETATM   11  C   UNL     1      -6.926   7.473  64.696  1.00  0.00    -0.052 C  
BRANCH  11  12
HETATM   12  C   UNL     1      -8.071   8.480  64.655  1.00  0.00    -0.153 C  
BRANCH  12  13
HETATM   13  C   UNL     1      -7.763   9.671  65.563  1.00  0.00    -0.112 C  
BRANCH  13  14
HETATM   14  C   UNL     1      -7.245   9.200  66.918  1.00  0.00    -0.086 C  
BRANCH  14  15
HETATM   15  C   UNL     1      -8.378   9.065  67.935  1.00  0.00    -0.117 C  
BRANCH  15  16
HETATM   16  C   UNL     1      -7.883   8.358  69.195  1.00  0.00    -0.105 C  
BRANCH  16  17
HETATM   17  C   UNL     1      -7.138   7.068  68.864  1.00  0.00    -0.085 C  
HETATM   18  C   UNL     1      -7.435   5.979  69.870  1.00  0.00    -0.080 C  
HETATM   19  O   UNL     1      -8.179   6.085  70.833  1.00  0.00    -0.121 OA 
HETATM   20  O   UNL     1      -6.774   4.831  69.593  1.00  0.00    -0.044 OA 
ENDBRANCH  16  17
ENDBRANCH  15  16
ENDBRANCH  14  15
ENDBRANCH  13  14
ENDBRANCH  12  13
ENDBRANCH  11  12
ENDBRANCH  10  11
ENDBRANCH   8   9
ENDBRANCH   7   8
ENDBRANCH   5   6
ENDBRANCH   4   5
ENDBRANCH   2   3
TORSDOF 12
ENDMDL
MODEL      466
REMARK 921   NORMALIZED FREE ENERGY PREDICTED BY IDOCK:   -1.84 KCAL/MOL
REMARK 922        TOTAL FREE ENERGY PREDICTED BY IDOCK:   -4.98 KCAL/MOL
REMARK 923 INTER-LIGAND FREE ENERGY PREDICTED BY IDOCK:   -4.52 KCAL/MOL
REMARK 924 INTRA-LIGAND FREE ENERGY PREDICTED BY IDOCK:   -0.46 KCAL/MOL
REMARK 927      BINDING AFFINITY PREDICTED BY RF-SCORE:    0.00 PKD
ROOT
HETATM    1  C   UNL     1      -6.019   3.063  64.929  1.00  0.00    -0.019 C  
HETATM    2  C   UNL     1      -7.221   2.187  65.245  1.00  0.00    -0.057 C  
ENDROOT
BRANCH   2   3
HETATM    3  C   UNL     1      -8.396   2.999  65.710  1.00  0.00    -0.101 C  
HETATM    4  C   UNL     1      -8.340   4.053  66.542  1.00  0.00    -0.104 C  
BRANCH   4   5
HETATM    5  C   UNL     1      -7.079   4.569  67.176  1.00  0.00    -0.068 C  
BRANCH   5   6
HETATM    6  C   UNL     1      -7.353   5.498  68.324  1.00  0.00    -0.073 C  
HETATM    7  C   UNL     1      -8.000   6.673  68.233  1.00  0.00    -0.111 C  
BRANCH   7   8
HETATM    8  C   UNL     1      -8.509   7.248  66.942  1.00  0.00    -0.119 C  
BRANCH   8   9
HETATM    9  C   UNL     1      -9.977   7.557  66.995  1.00  0.00    -0.304 C  
HETATM   10  C   UNL     1     -10.498   8.772  67.245  1.00  0.00    -0.353 C  
BRANCH  10  11
HETATM   11  C   UNL     1      -9.663  10.006  67.436  1.00  0.00    -0.196 C  
BRANCH  11  12
HETATM   12  C   UNL     1      -9.840  10.627  68.818  1.00  0.00    -0.196 C  
BRANCH  12  13
HETATM   13  C   UNL     1      -9.275   9.698  69.893  1.00  0.00    -0.255 C  
BRANCH  13  14
HETATM   14  C   UNL     1     -10.301   9.459  70.997  1.00  0.00    -0.382 C  
BRANCH  14  15
HETATM   15  C   UNL     1      -9.836   8.375  71.968  1.00  0.00    -0.354 C  
BRANCH  15  16
HETATM   16  C   UNL     1     -11.033   7.746  72.679  1.00  0.00    -0.422 C  
BRANCH  16  17
HETATM   17  C   UNL     1     -12.101   7.289  71.690  1.00  0.00    -0.359 C  
HETATM   18  C   UNL     1     -13.384   8.072  71.853  1.00  0.00    -0.306 C  
HETATM   19  O   UNL     1     -13.571   8.969  72.660  1.00  0.00    -0.465 OA 
HETATM   20  O   UNL     1     -14.343   7.671  70.987  1.00  0.00    -0.271 OA 
ENDBRANCH  16  17
ENDBRANCH  15  16
ENDBRANCH  14  15
ENDBRANCH  13  14
ENDBRANCH  12  13
ENDBRANCH  11  12
ENDBRANCH  10  11
ENDBRANCH   8   9
ENDBRANCH   7   8
ENDBRANCH   5   6
ENDBRANCH   4   5
ENDBRANCH   2   3
TORSDOF 12
ENDMDL
MODEL      467
REMARK 921   NORMALIZED FREE ENERGY PREDICTED BY IDOCK:   -1.78 KCAL/MOL
REMARK 922        TOTAL FREE ENERGY PREDICTED BY IDOCK:   -4.87 KCAL/MOL
REMARK 923 INTER-LIGAND FREE ENERGY PREDICTED BY IDOCK:   -3.59 KCAL/MOL
REMARK 924 INTRA-LIGAND FREE ENERGY PREDICTED BY IDOCK:   -1.28 KCAL/MOL
REMARK 927      BINDING AFFINITY PREDICTED BY RF-SCORE:    0.00 PKD
ROOT
HETATM    1  C   UNL     1      -5.864  11.043  68.966  1.00  0.00    -0.040 C  
HETATM    2  C   UNL     1      -6.769  10.404  67.924  1.00  0.00    -0.066 C  
ENDROOT
BRANCH   2   3
HETATM    3  C   UNL     1      -8.212  10.764  68.143  1.00  0.00    -0.119 C  
HETATM    4  C   UNL     1      -9.079  10.087  68.913  1.00  0.00    -0.159 C  
BRANCH   4   5
HETATM    5  C   UNL     1      -8.749   8.824  69.657  1.00  0.00    -0.136 C  
BRANCH   5   6
HETATM    6  C   UNL     1      -8.675   9.036  71.143  1.00  0.00    -0.266 C  
HETATM    7  C   UNL     1      -9.711   8.927  71.993  1.00  0.00    -0.304 C  
BRANCH   7   8
HETATM    8  C   UNL     1     -11.116   8.615  71.563  1.00  0.00    -0.358 C  
BRANCH   8   9
HETATM    9  C   UNL     1     -11.747   7.547  72.406  1.00  0.00    -0.335 C  
HETATM   10  C   UNL     1     -11.582   6.225  72.222  1.00  0.00    -0.355 C  
BRANCH  10  11
HETATM   11  C   UNL     1     -10.673   5.643  71.177  1.00  0.00    -0.310 C  
BRANCH  11  12
HETATM   12  C   UNL     1     -11.244   5.762  69.769  1.00  0.00    -0.179 C  
BRANCH  12  13
HETATM   13  C   UNL     1     -10.194   6.337  68.817  1.00  0.00    -0.213 C  
BRANCH  13  14
HETATM   14  C   UNL     1      -9.174   5.271  68.428  1.00  0.00    -0.135 C  
BRANCH  14  15
HETATM   15  C   UNL     1      -9.670   4.424  67.256  1.00  0.00    -0.222 C  
BRANCH  15  16
HETATM   16  C   UNL     1      -9.202   2.978  67.408  1.00  0.00    -0.225 C  
BRANCH  16  17
HETATM   17  C   UNL     1      -8.082   2.851  68.436  1.00  0.00    -0.071 C  
HETATM   18  C   UNL     1      -6.739   2.638  67.773  1.00  0.00    -0.040 C  
HETATM   19  O   UNL     1      -6.543   2.577  66.569  1.00  0.00    -0.037 OA 
HETATM   20  O   UNL     1      -5.737   2.516  68.674  1.00  0.00    -0.021 OA 
ENDBRANCH  16  17
ENDBRANCH  15  16
ENDBRANCH  14  15
ENDBRANCH  13  14
ENDBRANCH  12  13
ENDBRANCH  11  12
ENDBRANCH  10  11
ENDBRANCH   8   9
ENDBRANCH   7   8
ENDBRANCH   5   6
ENDBRANCH   4   5
ENDBRANCH   2   3
TORSDOF 12
ENDMDL
MODEL      468
REMARK 921   NORMALIZED FREE ENERGY PREDICTED BY IDOCK:   -1.58 KCAL/MOL
REMARK 922        TOTAL FREE ENERGY PREDICTED BY IDOCK:   -4.53 KCAL/MOL
REMARK 923 INTER-LIGAND FREE ENERGY PREDICTED BY IDOCK:   -2.65 KCAL/MOL
REMARK 924 INTRA-LIGAND FREE ENERGY PREDICTED BY IDOCK:   -1.88 KCAL/MOL
REMARK 927      BINDING AFFINITY PREDICTED BY RF-SCORE:    0.00 PKD
ROOT
HETATM    1  C   UNL     1      -7.818   3.361  64.433  1.00  0.00    -0.082 C  
HETATM    2  C   UNL     1      -7.961   2.503  65.680  1.00  0.00    -0.082 C  
ENDROOT
BRANCH   2   3
HETATM    3  C   UNL     1      -9.266   2.754  66.382  1.00  0.00    -0.093 C  
HETATM    4  C   UNL     1      -9.409   3.343  67.580  1.00  0.00    -0.246 C  
BRANCH   4   5
HETATM    5  C   UNL     1      -8.270   3.820  68.435  1.00  0.00    -0.087 C  
BRANCH   5   6
HETATM    6  C   UNL     1      -8.678   4.044  69.863  1.00  0.00    -0.117 C  
HETATM    7  C   UNL     1      -9.076   5.220  70.379  1.00  0.00    -0.173 C  
BRANCH   7   8
HETATM    8  C   UNL     1      -9.127   6.501  69.597  1.00  0.00    -0.141 C  
BRANCH   8   9
HETATM    9  C   UNL     1     -10.467   6.729  68.962  1.00  0.00    -0.229 C  
HETATM   10  C   UNL     1     -10.671   6.925  67.646  1.00  0.00    -0.344 C  
BRANCH  10  11
HETATM   11  C   UNL     1      -9.573   6.870  66.623  1.00  0.00    -0.218 C  
BRANCH  11  12
HETATM   12  C   UNL     1      -9.203   8.247  66.083  1.00  0.00    -0.250 C  
BRANCH  12  13
HETATM   13  C   UNL     1      -7.969   8.786  66.808  1.00  0.00    -0.097 C  
BRANCH  13  14
HETATM   14  C   UNL     1      -8.177  10.239  67.223  1.00  0.00    -0.121 C  
BRANCH  14  15
HETATM   15  C   UNL     1      -8.118  10.402  68.742  1.00  0.00    -0.125 C  
BRANCH  15  16
HETATM   16  C   UNL     1      -8.668  11.766  69.154  1.00  0.00     0.392 C  
BRANCH  16  17
HETATM   17  C   UNL     1      -9.592  12.348  68.088  1.00  0.00    -0.218 C  
HETATM   18  C   UNL     1     -10.739  13.116  68.705  1.00  0.00    -0.250 C  
HETATM   19  O   UNL     1     -10.926  13.275  69.901  1.00  0.00     0.125 OA 
HETATM   20  O   UNL     1     -11.572  13.632  67.771  1.00  0.00    -0.299 OA 
ENDBRANCH  16  17
ENDBRANCH  15  16
ENDBRANCH  14  15
ENDBRANCH  13  14
ENDBRANCH  12  13
ENDBRANCH  11  12
ENDBRANCH  10  11
ENDBRANCH   8   9
ENDBRANCH   7   8
ENDBRANCH   5   6
ENDBRANCH   4   5
ENDBRANCH   2   3
TORSDOF 12
ENDMDL
MODEL      469
REMARK 921   NORMALIZED FREE ENERGY PREDICTED BY IDOCK:   -1.54 KCAL/MOL
REMARK 922        TOTAL FREE ENERGY PREDICTED BY IDOCK:   -4.47 KCAL/MOL
REMARK 923 INTER-LIGAND FREE ENERGY PREDICTED BY IDOCK:   -3.91 KCAL/MOL
REMARK 924 INTRA-LIGAND FREE ENERGY PREDICTED BY IDOCK:   -0.56 KCAL/MOL
REMARK 927      BINDING AFFINITY PREDICTED BY RF-SCORE:    0.00 PKD
ROOT
HETATM    1  C   UNL     1      -5.326  10.602  67.644  1.00  0.00    -0.043 C  
HETATM    2  C   UNL     1      -6.487  10.898  68.580  1.00  0.00    -0.054 C  
ENDROOT
BRANCH   2   3
HETATM    3  C   UNL     1      -6.576  12.360  68.914  1.00  0.00    -0.095 C  
HETATM    4  C   UNL     1      -7.536  13.202  68.499  1.00  0.00    -0.122 C  
BRANCH   4   5
HETATM    5  C   UNL     1      -8.670  12.816  67.592  1.00  0.00    -0.180 C  
BRANCH   5   6
HETATM    6  C   UNL     1      -9.680  11.939  68.275  1.00  0.00    -0.200 C  
HETATM    7  C   UNL     1     -10.824  11.500  67.723  1.00  0.00    -0.270 C  
BRANCH   7   8
HETATM    8  C   UNL     1     -11.278  11.866  66.339  1.00  0.00    -0.387 C  
BRANCH   8   9
HETATM    9  C   UNL     1     -10.186  11.715  65.321  1.00  0.00    -0.316 C  
HETATM   10  C   UNL     1      -9.567  10.558  65.022  1.00  0.00    -0.331 C  
BRANCH  10  11
HETATM   11  C   UNL     1      -9.946   9.238  65.631  1.00  0.00    -0.130 C  
BRANCH  11  12
HETATM   12  C   UNL     1      -8.795   8.588  66.390  1.00  0.00    -0.178 C  
BRANCH  12  13
HETATM   13  C   UNL     1      -9.307   7.418  67.230  1.00  0.00    -0.159 C  
BRANCH  13  14
HETATM   14  C   UNL     1      -8.151   6.538  67.697  1.00  0.00    -0.118 C  
BRANCH  14  15
HETATM   15  C   UNL     1      -8.563   5.646  68.867  1.00  0.00    -0.101 C  
BRANCH  15  16
HETATM   16  C   UNL     1      -9.608   6.349  69.732  1.00  0.00    -0.163 C  
BRANCH  16  17
HETATM   17  C   UNL     1      -9.976   5.520  70.958  1.00  0.00    -0.253 C  
HETATM   18  C   UNL     1     -11.015   6.217  71.810  1.00  0.00    -0.264 C  
HETATM   19  O   UNL     1     -11.519   7.302  71.568  1.00  0.00    -0.249 OA 
HETATM   20  O   UNL     1     -11.345   5.496  72.907  1.00  0.00    -0.291 OA 
ENDBRANCH  16  17
ENDBRANCH  15  16
ENDBRANCH  14  15
ENDBRANCH  13  14
ENDBRANCH  12  13
ENDBRANCH  11  12
ENDBRANCH  10  11
ENDBRANCH   8   9
ENDBRANCH   7   8
ENDBRANCH   5   6
ENDBRANCH   4   5
ENDBRANCH   2   3
TORSDOF 12
ENDMDL
MODEL      470
REMARK 921   NORMALIZED FREE ENERGY PREDICTED BY IDOCK:   -1.46 KCAL/MOL
REMARK 922        TOTAL FREE ENERGY PREDICTED BY IDOCK:   -4.33 KCAL/MOL
REMARK 923 INTER-LIGAND FREE ENERGY PREDICTED BY IDOCK:   -2.51 KCAL/MOL
REMARK 924 INTRA-LIGAND FREE ENERGY PREDICTED BY IDOCK:   -1.83 KCAL/MOL
REMARK 927      BINDING AFFINITY PREDICTED BY RF-SCORE:    0.00 PKD
ROOT
HETATM    1  C   UNL     1      -6.512   2.668  64.294  1.00  0.00    -0.027 C  
HETATM    2  C   UNL     1      -7.614   2.196  65.228  1.00  0.00    -0.071 C  
ENDROOT
BRANCH   2   3
HETATM    3  C   UNL     1      -8.811   3.102  65.182  1.00  0.00    -0.129 C  
HETATM    4  C   UNL     1      -9.114   4.047  66.087  1.00  0.00    -0.141 C  
BRANCH   4   5
HETATM    5  C   UNL     1      -8.311   4.325  67.326  1.00  0.00    -0.100 C  
BRANCH   5   6
HETATM    6  C   UNL     1      -9.167   4.763  68.480  1.00  0.00    -0.165 C  
HETATM    7  C   UNL     1      -9.386   6.040  68.840  1.00  0.00    -0.131 C  
BRANCH   7   8
HETATM    8  C   UNL     1      -8.760   7.221  68.155  1.00  0.00    -0.128 C  
BRANCH   8   9
HETATM    9  C   UNL     1      -9.665   7.829  67.124  1.00  0.00    -0.243 C  
HETATM   10  C   UNL     1      -9.333   8.043  65.838  1.00  0.00    -0.093 C  
BRANCH  10  11
HETATM   11  C   UNL     1      -8.016   7.628  65.246  1.00  0.00    -0.129 C  
BRANCH  11  12
HETATM   12  C   UNL     1      -7.528   8.589  64.167  1.00  0.00    -0.112 C  
BRANCH  12  13
HETATM   13  C   UNL     1      -6.190   9.209  64.575  1.00  0.00    -0.071 C  
BRANCH  13  14
HETATM   14  C   UNL     1      -6.405  10.411  65.489  1.00  0.00    -0.126 C  
BRANCH  14  15
HETATM   15  C   UNL     1      -6.196  10.043  66.957  1.00  0.00    -0.063 C  
BRANCH  15  16
HETATM   16  C   UNL     1      -6.882  11.061  67.865  1.00  0.00    -0.068 C  
BRANCH  16  17
HETATM   17  C   UNL     1      -6.964  12.437  67.211  1.00  0.00    -0.129 C  
HETATM   18  C   UNL     1      -8.244  13.154  67.578  1.00  0.00    -0.183 C  
HETATM   19  O   UNL     1      -9.118  12.715  68.309  1.00  0.00    -0.199 OA 
HETATM   20  O   UNL     1      -8.334  14.373  66.997  1.00  0.00    -0.198 OA 
ENDBRANCH  16  17
ENDBRANCH  15  16
ENDBRANCH  14  15
ENDBRANCH  13  14
ENDBRANCH  12  13
ENDBRANCH  11  12
ENDBRANCH  10  11
ENDBRANCH   8   9
ENDBRANCH   7   8
ENDBRANCH   5   6
ENDBRANCH   4   5
ENDBRANCH   2   3
TORSDOF 12
ENDMDL
MODEL      471
REMARK 921   NORMALIZED FREE ENERGY PREDICTED BY IDOCK:   -1.43 KCAL/MOL
REMARK 922        TOTAL FREE ENERGY PREDICTED BY IDOCK:   -4.27 KCAL/MOL
REMARK 923 INTER-LIGAND FREE ENERGY PREDICTED BY IDOCK:   -2.68 KCAL/MOL
REMARK 924 INTRA-LIGAND FREE ENERGY PREDICTED BY IDOCK:   -1.60 KCAL/MOL
REMARK 927      BINDING AFFINITY PREDICTED BY RF-SCORE:    0.00 PKD
ROOT
HETATM    1  C   UNL     1     -11.562   6.441  71.084  1.00  0.00    -0.378 C  
HETATM    2  C   UNL     1     -10.853   7.784  71.165  1.00  0.00    -0.254 C  
ENDROOT
BRANCH   2   3
HETATM    3  C   UNL     1     -11.726   8.839  71.783  1.00  0.00    -0.416 C  
HETATM    4  C   UNL     1     -11.849  10.105  71.350  1.00  0.00    -0.414 C  
BRANCH   4   5
HETATM    5  C   UNL     1     -11.094  10.683  70.187  1.00  0.00    -0.341 C  
BRANCH   5   6
HETATM    6  C   UNL     1     -11.518  10.089  68.875  1.00  0.00    -0.057 C  
HETATM    7  C   UNL     1     -10.880  10.264  67.704  1.00  0.00    -0.363 C  
BRANCH   7   8
HETATM    8  C   UNL     1      -9.662  11.125  67.536  1.00  0.00    -0.193 C  
BRANCH   8   9
HETATM    9  C   UNL     1      -9.731  11.980  66.305  1.00  0.00    -0.251 C  
HETATM   10  C   UNL     1      -8.790  12.024  65.345  1.00  0.00     0.436 C  
BRANCH  10  11
HETATM   11  C   UNL     1      -7.563  11.156  65.351  1.00  0.00     0.369 C  
BRANCH  11  12
HETATM   12  C   UNL     1      -7.645  10.015  64.343  1.00  0.00    -0.145 C  
BRANCH  12  13
HETATM   13  C   UNL     1      -6.802   8.830  64.813  1.00  0.00    -0.073 C  
BRANCH  13  14
HETATM   14  C   UNL     1      -7.659   7.575  64.952  1.00  0.00    -0.100 C  
BRANCH  14  15
HETATM   15  C   UNL     1      -7.473   6.918  66.319  1.00  0.00    -0.077 C  
BRANCH  15  16
HETATM   16  C   UNL     1      -8.451   7.509  67.333  1.00  0.00    -0.115 C  
BRANCH  16  17
HETATM   17  C   UNL     1      -8.235   6.932  68.729  1.00  0.00    -0.121 C  
HETATM   18  C   UNL     1      -7.243   7.752  69.523  1.00  0.00    -0.079 C  
HETATM   19  O   UNL     1      -6.675   8.758  69.128  1.00  0.00    -0.049 OA 
HETATM   20  O   UNL     1      -7.035   7.247  70.761  1.00  0.00    -0.055 OA 
ENDBRANCH  16  17
ENDBRANCH  15  16
ENDBRANCH  14  15
ENDBRANCH  13  14
ENDBRANCH  12  13
ENDBRANCH  11  12
ENDBRANCH  10  11
ENDBRANCH   8   9
ENDBRANCH   7   8
ENDBRANCH   5   6
ENDBRANCH   4   5
ENDBRANCH   2   3
TORSDOF 12
ENDMDL
MODEL      472
REMARK 921   NORMALIZED FREE ENERGY PREDICTED BY IDOCK:   -1.34 KCAL/MOL
REMARK 922        TOTAL FREE ENERGY PREDICTED BY IDOCK:   -4.13 KCAL/MOL
REMARK 923 INTER-LIGAND FREE ENERGY PREDICTED BY IDOCK:   -2.51 KCAL/MOL
REMARK 924 INTRA-LIGAND FREE ENERGY PREDICTED BY IDOCK:   -1.63 KCAL/MOL
REMARK 927      BINDING AFFINITY PREDICTED BY RF-SCORE:    0.00 PKD
ROOT
HETATM    1  C   UNL     1     -11.429  13.953  67.570  1.00  0.00    -0.368 C  
HETATM    2  C   UNL     1     -11.329  12.656  68.356  1.00  0.00    -0.329 C  
ENDROOT
BRANCH   2   3
HETATM    3  C   UNL     1     -11.712  12.845  69.796  1.00  0.00    -0.351 C  
HETATM    4  C   UNL     1     -11.681  11.896  70.746  1.00  0.00     0.219 C  
BRANCH   4   5
HETATM    5  C   UNL     1     -11.286  10.466  70.506  1.00  0.00    -0.424 C  
BRANCH   5   6
HETATM    6  C   UNL     1     -12.453   9.525  70.598  1.00  0.00    -0.105 C  
HETATM    7  C   UNL     1     -12.639   8.616  71.572  1.00  0.00    -0.360 C  
BRANCH   7   8
HETATM    8  C   UNL     1     -11.670   8.384  72.695  1.00  0.00    -0.364 C  
BRANCH   8   9
HETATM    9  C   UNL     1     -10.689   7.291  72.386  1.00  0.00    -0.283 C  
HETATM   10  C   UNL     1      -9.381   7.321  72.698  1.00  0.00    -0.176 C  
BRANCH  10  11
HETATM   11  C   UNL     1      -8.741   8.440  73.470  1.00  0.00    -0.160 C  
BRANCH  11  12
HETATM   12  C   UNL     1      -7.813   9.292  72.611  1.00  0.00     1.121 C  
BRANCH  12  13
HETATM   13  C   UNL     1      -7.352   8.503  71.385  1.00  0.00    -0.104 C  
BRANCH  13  14
HETATM   14  C   UNL     1      -7.467   9.348  70.121  1.00  0.00    -0.120 C  
BRANCH  14  15
HETATM   15  C   UNL     1      -7.833   8.494  68.907  1.00  0.00    -0.109 C  
BRANCH  15  16
HETATM   16  C   UNL     1      -8.023   7.035  69.320  1.00  0.00    -0.119 C  
BRANCH  16  17
HETATM   17  C   UNL     1      -7.803   6.084  68.148  1.00  0.00    -0.106 C  
HETATM   18  C   UNL     1      -8.926   6.173  67.139  1.00  0.00    -0.111 C  
HETATM   19  O   UNL     1      -9.896   6.910  67.220  1.00  0.00    -0.135 OA 
HETATM   20  O   UNL     1      -8.748   5.328  66.097  1.00  0.00    -0.122 OA 
ENDBRANCH  16  17
ENDBRANCH  15  16
ENDBRANCH  14  15
ENDBRANCH  13  14
ENDBRANCH  12  13
ENDBRANCH  11  12
ENDBRANCH  10  11
ENDBRANCH   8   9
ENDBRANCH   7   8
ENDBRANCH   5   6
ENDBRANCH   4   5
ENDBRANCH   2   3
TORSDOF 12
ENDMDL
MODEL      473
REMARK 921   NORMALIZED FREE ENERGY PREDICTED BY IDOCK:   -1.26 KCAL/MOL
REMARK 922        TOTAL FREE ENERGY PREDICTED BY IDOCK:   -3.98 KCAL/MOL
REMARK 923 INTER-LIGAND FREE ENERGY PREDICTED BY IDOCK:   -3.26 KCAL/MOL
REMARK 924 INTRA-LIGAND FREE ENERGY PREDICTED BY IDOCK:   -0.73 KCAL/MOL
REMARK 927      BINDING AFFINITY PREDICTED BY RF-SCORE:    0.00 PKD
ROOT
HETATM    1  C   UNL     1      -9.400  15.142  67.581  1.00  0.00    -0.189 C  
HETATM    2  C   UNL     1     -10.862  15.457  67.306  1.00  0.00    -0.316 C  
ENDROOT
BRANCH   2   3
HETATM    3  C   UNL     1     -11.529  16.091  68.494  1.00  0.00    -0.357 C  
HETATM    4  C   UNL     1     -11.684  15.523  69.701  1.00  0.00    -0.371 C  
BRANCH   4   5
HETATM    5  C   UNL     1     -11.241  14.130  70.048  1.00  0.00    -0.118 C  
BRANCH   5   6
HETATM    6  C   UNL     1     -12.070  13.078  69.369  1.00  0.00    -0.267 C  
HETATM    7  C   UNL     1     -11.581  12.017  68.704  1.00  0.00    -0.372 C  
BRANCH   7   8
HETATM    8  C   UNL     1     -10.115  11.757  68.508  1.00  0.00    -0.212 C  
BRANCH   8   9
HETATM    9  C   UNL     1      -9.821  11.111  67.186  1.00  0.00    -0.212 C  
HETATM   10  C   UNL     1      -9.263   9.897  67.030  1.00  0.00    -0.164 C  
BRANCH  10  11
HETATM   11  C   UNL     1      -8.923   8.990  68.179  1.00  0.00    -0.133 C  
BRANCH  11  12
HETATM   12  C   UNL     1      -7.939   9.624  69.157  1.00  0.00    -0.099 C  
BRANCH  12  13
HETATM   13  C   UNL     1      -8.490   9.557  70.582  1.00  0.00    -0.166 C  
BRANCH  13  14
HETATM   14  C   UNL     1      -7.384   9.214  71.575  1.00  0.00     0.035 C  
BRANCH  14  15
HETATM   15  C   UNL     1      -6.338   8.291  70.952  1.00  0.00    -0.037 C  
BRANCH  15  16
HETATM   16  C   UNL     1      -6.842   6.849  70.932  1.00  0.00    -0.055 C  
BRANCH  16  17
HETATM   17  C   UNL     1      -6.383   6.107  69.681  1.00  0.00    -0.034 C  
HETATM   18  C   UNL     1      -7.422   5.115  69.209  1.00  0.00    -0.058 C  
HETATM   19  O   UNL     1      -8.504   4.915  69.737  1.00  0.00    -0.082 OA 
HETATM   20  O   UNL     1      -7.024   4.443  68.104  1.00  0.00    -0.054 OA 
ENDBRANCH  16  17
ENDBRANCH  15  16
ENDBRANCH  14  15
ENDBRANCH  13  14
ENDBRANCH  12  13
ENDBRANCH  11  12
ENDBRANCH  10  11
ENDBRANCH   8   9
ENDBRANCH   7   8
ENDBRANCH   5   6
ENDBRANCH   4   5
ENDBRANCH   2   3
TORSDOF 12
ENDMDL
MODEL      474
REMARK 921   NORMALIZED FREE ENERGY PREDICTED BY IDOCK:   -0.85 KCAL/MOL
REMARK 922        TOTAL FREE ENERGY PREDICTED BY IDOCK:   -3.29 KCAL/MOL
REMARK 923 INTER-LIGAND FREE ENERGY PREDICTED BY IDOCK:   -3.88 KCAL/MOL
REMARK 924 INTRA-LIGAND FREE ENERGY PREDICTED BY IDOCK:    0.60 KCAL/MOL
REMARK 927      BINDING AFFINITY PREDICTED BY RF-SCORE:    0.00 PKD
ROOT
HETATM    1  C   UNL     1     -11.218   6.032  70.283  1.00  0.00    -0.392 C  
HETATM    2  C   UNL     1     -10.180   6.458  71.309  1.00  0.00    -0.232 C  
ENDROOT
BRANCH   2   3
HETATM    3  C   UNL     1     -10.227   7.938  71.568  1.00  0.00    -0.232 C  
HETATM    4  C   UNL     1      -9.663   8.885  70.800  1.00  0.00    -0.281 C  
BRANCH   4   5
HETATM    5  C   UNL     1      -8.854   8.607  69.565  1.00  0.00    -0.144 C  
BRANCH   5   6
HETATM    6  C   UNL     1      -7.812   9.660  69.312  1.00  0.00    -0.098 C  
HETATM    7  C   UNL     1      -8.038  10.845  68.718  1.00  0.00    -0.145 C  
BRANCH   7   8
HETATM    8  C   UNL     1      -9.373  11.268  68.178  1.00  0.00    -0.181 C  
BRANCH   8   9
HETATM    9  C   UNL     1     -10.326  10.117  68.044  1.00  0.00    -0.227 C  
HETATM   10  C   UNL     1     -11.085   9.868  66.961  1.00  0.00     0.042 C  
BRANCH  10  11
HETATM   11  C   UNL     1     -11.020  10.685  65.702  1.00  0.00     0.110 C  
BRANCH  11  12
HETATM   12  C   UNL     1      -9.602  11.134  65.365  1.00  0.00    -0.266 C  
BRANCH  12  13
HETATM   13  C   UNL     1      -9.620  12.542  64.768  1.00  0.00     0.154 C  
BRANCH  13  14
HETATM   14  C   UNL     1      -9.927  13.582  65.840  1.00  0.00    -0.295 C  
BRANCH  14  15
HETATM   15  C   UNL     1     -11.067  14.507  65.413  1.00  0.00    -0.345 C  
BRANCH  15  16
HETATM   16  C   UNL     1     -12.090  14.647  66.538  1.00  0.00    -0.230 C  
BRANCH  16  17
HETATM   17  C   UNL     1     -11.826  13.658  67.669  1.00  0.00    -0.404 C  
HETATM   18  C   UNL     1     -11.539  14.367  68.973  1.00  0.00    -0.296 C  
HETATM   19  O   UNL     1     -11.521  15.577  69.135  1.00  0.00    -0.300 OA 
HETATM   20  O   UNL     1     -11.294  13.501  69.984  1.00  0.00    -0.121 OA 
ENDBRANCH  16  17
ENDBRANCH  15  16
ENDBRANCH  14  15
ENDBRANCH  13  14
ENDBRANCH  12  13
ENDBRANCH  11  12
ENDBRANCH  10  11
ENDBRANCH   8   9
ENDBRANCH   7   8
ENDBRANCH   5   6
ENDBRANCH   4   5
ENDBRANCH   2   3
TORSDOF 12
ENDMDL
MODEL      475
REMARK 921   NORMALIZED FREE ENERGY PREDICTED BY IDOCK:   -0.69 KCAL/MOL
REMARK 922        TOTAL FREE ENERGY PREDICTED BY IDOCK:   -3.01 KCAL/MOL
REMARK 923 INTER-LIGAND FREE ENERGY PREDICTED BY IDOCK:   -4.48 KCAL/MOL
REMARK 924 INTRA-LIGAND FREE ENERGY PREDICTED BY IDOCK:    1.47 KCAL/MOL
REMARK 927      BINDING AFFINITY PREDICTED BY RF-SCORE:    0.00 PKD
ROOT
HETATM    1  C   UNL     1     -11.208   6.054  70.286  1.00  0.00    -0.392 C  
HETATM    2  C   UNL     1     -10.203   6.470  71.349  1.00  0.00    -0.221 C  
ENDROOT
BRANCH   2   3
HETATM    3  C   UNL     1     -10.292   7.939  71.656  1.00  0.00    -0.250 C  
HETATM    4  C   UNL     1      -9.711   8.923  70.950  1.00  0.00    -0.300 C  
BRANCH   4   5
HETATM    5  C   UNL     1      -8.839   8.705  69.746  1.00  0.00    -0.137 C  
BRANCH   5   6
HETATM    6  C   UNL     1      -7.812   9.788  69.577  1.00  0.00    -0.128 C  
HETATM    7  C   UNL     1      -8.034  10.981  68.999  1.00  0.00    -0.114 C  
BRANCH   7   8
HETATM    8  C   UNL     1      -9.347  11.385  68.394  1.00  0.00    -0.194 C  
BRANCH   8   9
HETATM    9  C   UNL     1     -10.251  10.211  68.153  1.00  0.00    -0.200 C  
HETATM   10  C   UNL     1     -10.940   9.991  67.019  1.00  0.00    -0.119 C  
BRANCH  10  11
HETATM   11  C   UNL     1     -10.835  10.869  65.805  1.00  0.00    -0.120 C  
BRANCH  11  12
HETATM   12  C   UNL     1      -9.437  11.450  65.618  1.00  0.00    -0.253 C  
BRANCH  12  13
HETATM   13  C   UNL     1      -9.512  12.785  64.877  1.00  0.00     0.349 C  
BRANCH  13  14
HETATM   14  C   UNL     1     -10.087  13.874  65.777  1.00  0.00    -0.336 C  
BRANCH  14  15
HETATM   15  C   UNL     1      -9.402  13.891  67.143  1.00  0.00    -0.244 C  
BRANCH  15  16
HETATM   16  C   UNL     1      -9.004  15.315  67.523  1.00  0.00    -0.192 C  
BRANCH  16  17
HETATM   17  C   UNL     1      -9.176  16.280  66.354  1.00  0.00    -0.332 C  
HETATM   18  C   UNL     1     -10.180  17.367  66.671  1.00  0.00    -0.324 C  
HETATM   19  O   UNL     1     -10.787  17.487  67.723  1.00  0.00    -0.368 OA 
HETATM   20  O   UNL     1     -10.348  18.226  65.639  1.00  0.00    -0.607 OA 
ENDBRANCH  16  17
ENDBRANCH  15  16
ENDBRANCH  14  15
ENDBRANCH  13  14
ENDBRANCH  12  13
ENDBRANCH  11  12
ENDBRANCH  10  11
ENDBRANCH   8   9
ENDBRANCH   7   8
ENDBRANCH   5   6
ENDBRANCH   4   5
ENDBRANCH   2   3
TORSDOF 12
ENDMDL
MODEL      476
REMARK 921   NORMALIZED FREE ENERGY PREDICTED BY IDOCK:    0.26 KCAL/MOL
REMARK 922        TOTAL FREE ENERGY PREDICTED BY IDOCK:   -1.41 KCAL/MOL
REMARK 923 INTER-LIGAND FREE ENERGY PREDICTED BY IDOCK:   -2.23 KCAL/MOL
REMARK 924 INTRA-LIGAND FREE ENERGY PREDICTED BY IDOCK:    0.82 KCAL/MOL
REMARK 927      BINDING AFFINITY PREDICTED BY RF-SCORE:    0.00 PKD
ROOT
HETATM    1  C   UNL     1      -5.976  10.103  69.276  1.00  0.00    -0.037 C  
HETATM    2  C   UNL     1      -6.175   9.519  67.887  1.00  0.00    -0.053 C  
ENDROOT
BRANCH   2   3
HETATM    3  C   UNL     1      -7.491   8.803  67.766  1.00  0.00    -0.093 C  
HETATM    4  C   UNL     1      -7.894   7.773  68.528  1.00  0.00    -0.120 C  
BRANCH   4   5
HETATM    5  C   UNL     1      -7.067   7.142  69.612  1.00  0.00    -0.074 C  
BRANCH   5   6
HETATM    6  C   UNL     1      -7.604   7.430  70.985  1.00  0.00    -0.086 C  
HETATM    7  C   UNL     1      -8.820   7.937  71.250  1.00  0.00    -0.152 C  
BRANCH   7   8
HETATM    8  C   UNL     1      -9.810   8.332  70.191  1.00  0.00    -0.184 C  
BRANCH   8   9
HETATM    9  C   UNL     1     -11.041   7.475  70.213  1.00  0.00    -0.263 C  
HETATM   10  C   UNL     1     -11.144   6.262  69.641  1.00  0.00    -0.479 C  
BRANCH  10  11
HETATM   11  C   UNL     1      -9.998   5.570  68.959  1.00  0.00    -0.244 C  
BRANCH  11  12
HETATM   12  C   UNL     1     -10.458   4.481  67.995  1.00  0.00     0.326 C  
BRANCH  12  13
HETATM   13  C   UNL     1     -10.087   4.853  66.559  1.00  0.00    -0.285 C  
BRANCH  13  14
HETATM   14  C   UNL     1      -8.827   4.116  66.116  1.00  0.00    -0.118 C  
BRANCH  14  15
HETATM   15  C   UNL     1      -8.924   2.618  66.404  1.00  0.00    -0.147 C  
BRANCH  15  16
HETATM   16  C   UNL     1      -8.482   2.319  67.835  1.00  0.00    -0.094 C  
BRANCH  16  17
HETATM   17  C   UNL     1      -7.267   3.151  68.235  1.00  0.00    -0.050 C  
HETATM   18  C   UNL     1      -6.528   2.532  69.400  1.00  0.00    -0.029 C  
HETATM   19  O   UNL     1      -6.834   1.494  69.966  1.00  0.00    -0.032 OA 
HETATM   20  O   UNL     1      -5.452   3.265  69.772  1.00  0.00    -0.015 OA 
ENDBRANCH  16  17
ENDBRANCH  15  16
ENDBRANCH  14  15
ENDBRANCH  13  14
ENDBRANCH  12  13
ENDBRANCH  11  12
ENDBRANCH  10  11
ENDBRANCH   8   9
ENDBRANCH   7   8
ENDBRANCH   5   6
ENDBRANCH   4   5
ENDBRANCH   2   3
TORSDOF 12
ENDMDL
MODEL      477
REMARK 921   NORMALIZED FREE ENERGY PREDICTED BY IDOCK:   10.22 KCAL/MOL
REMARK 922        TOTAL FREE ENERGY PREDICTED BY IDOCK:   15.54 KCAL/MOL
REMARK 923 INTER-LIGAND FREE ENERGY PREDICTED BY IDOCK:   -0.04 KCAL/MOL
REMARK 924 INTRA-LIGAND FREE ENERGY PREDICTED BY IDOCK:   15.58 KCAL/MOL
REMARK 927      BINDING AFFINITY PREDICTED BY RF-SCORE:    0.00 PKD
ROOT
HETATM    1  C   UNL     1      -9.330  10.627  70.703  1.00  0.00     2.055 C  
HETATM    2  C   UNL     1      -9.262   9.788  69.437  1.00  0.00    -0.214 C  
ENDROOT
BRANCH   2   3
HETATM    3  C   UNL     1     -10.549   9.840  68.663  1.00  0.00    -0.249 C  
HETATM    4  C   UNL     1     -10.688  10.285  67.404  1.00  0.00    -0.339 C  
BRANCH   4   5
HETATM    5  C   UNL     1      -9.568  10.843  66.571  1.00  0.00    -0.224 C  
BRANCH   5   6
HETATM    6  C   UNL     1      -8.730  11.835  67.325  1.00  0.00    -0.163 C  
HETATM    7  C   UNL     1      -8.010  11.561  68.428  1.00  0.00    -0.143 C  
BRANCH   7   8
HETATM    8  C   UNL     1      -7.979  10.214  69.091  1.00  0.00    -0.124 C  
BRANCH   8   9
HETATM    9  C   UNL     1      -6.771   9.413  68.702  1.00  0.00    -0.053 C  
HETATM   10  C   UNL     1      -6.063   9.589  67.571  1.00  0.00    -0.053 C  
BRANCH  10  11
HETATM   11  C   UNL     1      -6.355  10.675  66.575  1.00  0.00    -0.102 C  
BRANCH  11  12
HETATM   12  C   UNL     1      -5.525  10.544  65.302  1.00  0.00    -0.139 C  
BRANCH  12  13
HETATM   13  C   UNL     1      -5.155   9.080  65.059  1.00  0.00    -0.037 C  
BRANCH  13  14
HETATM   14  C   UNL     1      -6.111   8.149  65.797  1.00  0.00    -0.041 C  
BRANCH  14  15
HETATM   15  C   UNL     1      -6.736   7.123  64.852  1.00  0.00    -0.047 C  
BRANCH  15  16
HETATM   16  C   UNL     1      -8.021   6.556  65.453  1.00  0.00    -0.120 C  
BRANCH  16  17
HETATM   17  C   UNL     1      -8.904   5.911  64.390  1.00  0.00     0.303 C  
HETATM   18  C   UNL     1      -8.688   4.416  64.319  1.00  0.00    -0.142 C  
HETATM   19  O   UNL     1      -7.917   3.776  65.015  1.00  0.00    -0.088 OA 
HETATM   20  O   UNL     1      -9.460   3.831  63.373  1.00  0.00    -0.120 OA 
ENDBRANCH  16  17
ENDBRANCH  15  16
ENDBRANCH  14  15
ENDBRANCH  13  14
ENDBRANCH  12  13
ENDBRANCH  11  12
ENDBRANCH  10  11
ENDBRANCH   8   9
ENDBRANCH   7   8
ENDBRANCH   5   6
ENDBRANCH   4   5
ENDBRANCH   2   3
TORSDOF 12
ENDMDL
MODEL      478
REMARK 921   NORMALIZED FREE ENERGY PREDICTED BY IDOCK:   15.02 KCAL/MOL
REMARK 922        TOTAL FREE ENERGY PREDICTED BY IDOCK:   23.72 KCAL/MOL
REMARK 923 INTER-LIGAND FREE ENERGY PREDICTED BY IDOCK:   19.47 KCAL/MOL
REMARK 924 INTRA-LIGAND FREE ENERGY PREDICTED BY IDOCK:    4.25 KCAL/MOL
REMARK 927      BINDING AFFINITY PREDICTED BY RF-SCORE:    0.00 PKD
ROOT
HETATM    1  C   UNL     1     -12.605   9.589  65.343  1.00  0.00    13.549 C  
HETATM    2  C   UNL     1     -13.240  10.287  64.151  1.00  0.00     8.838 C  
ENDROOT
BRANCH   2   3
HETATM    3  C   UNL     1     -12.722  11.687  63.983  1.00  0.00    -0.083 C  
HETATM    4  C   UNL     1     -11.454  12.082  64.187  1.00  0.00    -0.460 C  
BRANCH   4   5
HETATM    5  C   UNL     1     -10.348  11.180  64.657  1.00  0.00    -0.393 C  
BRANCH   5   6
HETATM    6  C   UNL     1      -9.475  10.707  63.529  1.00  0.00    -0.344 C  
HETATM    7  C   UNL     1      -8.537   9.749  63.626  1.00  0.00    -0.207 C  
BRANCH   7   8
HETATM    8  C   UNL     1      -8.198   9.038  64.905  1.00  0.00    -0.154 C  
BRANCH   8   9
HETATM    9  C   UNL     1      -6.827   9.386  65.406  1.00  0.00    -0.079 C  
HETATM   10  C   UNL     1      -6.439   9.322  66.693  1.00  0.00    -0.067 C  
BRANCH  10  11
HETATM   11  C   UNL     1      -7.323   8.817  67.798  1.00  0.00    -0.088 C  
BRANCH  11  12
HETATM   12  C   UNL     1      -8.172   7.624  67.373  1.00  0.00    -0.116 C  
BRANCH  12  13
HETATM   13  C   UNL     1      -7.570   6.958  66.135  1.00  0.00    -0.092 C  
BRANCH  13  14
HETATM   14  C   UNL     1      -7.732   5.443  66.201  1.00  0.00    -0.092 C  
BRANCH  14  15
HETATM   15  C   UNL     1      -9.063   4.996  65.596  1.00  0.00    -0.157 C  
BRANCH  15  16
HETATM   16  C   UNL     1      -9.430   3.598  66.090  1.00  0.00    -0.171 C  
BRANCH  16  17
HETATM   17  C   UNL     1      -9.523   2.599  64.941  1.00  0.00    -0.094 C  
HETATM   18  C   UNL     1      -9.233   3.254  63.608  1.00  0.00    -0.097 C  
HETATM   19  O   UNL     1      -8.951   4.430  63.442  1.00  0.00    -0.133 OA 
HETATM   20  O   UNL     1      -9.320   2.381  62.578  1.00  0.00    -0.090 OA 
ENDBRANCH  16  17
ENDBRANCH  15  16
ENDBRANCH  14  15
ENDBRANCH  13  14
ENDBRANCH  12  13
ENDBRANCH  11  12
ENDBRANCH  10  11
ENDBRANCH   8   9
ENDBRANCH   7   8
ENDBRANCH   5   6
ENDBRANCH   4   5
ENDBRANCH   2   3
TORSDOF 12
ENDMDL
