MODEL        1
REMARK 921   NORMALIZED FREE ENERGY PREDICTED BY IDOCK:   -5.29 KCAL/MOL
REMARK 922        TOTAL FREE ENERGY PREDICTED BY IDOCK:   -7.27 KCAL/MOL
REMARK 923 INTER-LIGAND FREE ENERGY PREDICTED BY IDOCK:   -6.84 KCAL/MOL
REMARK 924 INTRA-LIGAND FREE ENERGY PREDICTED BY IDOCK:   -0.43 KCAL/MOL
REMARK 927      BINDING AFFINITY PREDICTED BY RF-SCORE:    0.00 PKD
ROOT
HETATM    1  C   UNL     1     -11.024  12.567  64.017  1.00  0.00    -0.443 C  
HETATM    2  C   UNL     1     -12.338  12.600  64.780  1.00  0.00    -0.556 C  
ENDROOT
BRANCH   2   3
HETATM    3  C   UNL     1     -12.599  13.970  65.413  1.00  0.00    -0.529 C  
BRANCH   3   4
HETATM    4  C   UNL     1     -11.624  14.220  66.566  1.00  0.00    -0.390 C  
BRANCH   4   5
HETATM    5  C   UNL     1     -11.589  13.100  67.615  1.00  0.00    -0.392 C  
BRANCH   5   6
HETATM    6  C   UNL     1     -11.966  13.516  69.014  1.00  0.00    -0.376 C  
HETATM    7  C   UNL     1     -12.228  14.796  69.343  1.00  0.00    -0.251 C  
HETATM    8  C   UNL     1     -11.986  12.441  70.051  1.00  0.00    -0.299 C  
HETATM    9  O   UNL     1     -11.556  11.314  69.842  1.00  0.00    -0.289 OA 
BRANCH   7  10
HETATM   10  C   UNL     1     -12.545  15.249  70.697  1.00  0.00    -0.471 A  
HETATM   11  C   UNL     1     -11.519  15.656  71.559  1.00  0.00    -0.494 A  
HETATM   12  C   UNL     1     -11.805  15.957  72.890  1.00  0.00    -0.566 A  
HETATM   13  C   UNL     1     -13.112  15.855  73.363  1.00  0.00    -0.694 A  
HETATM   14  C   UNL     1     -14.140  15.471  72.502  1.00  0.00    -0.595 A  
HETATM   15  C   UNL     1     -13.859  15.173  71.169  1.00  0.00    -0.495 A  
ENDBRANCH   7  10
ENDBRANCH   5   6
ENDBRANCH   4   5
ENDBRANCH   3   4
ENDBRANCH   2   3
TORSDOF 5
ENDMDL
MODEL        2
REMARK 921   NORMALIZED FREE ENERGY PREDICTED BY IDOCK:   -5.29 KCAL/MOL
REMARK 922        TOTAL FREE ENERGY PREDICTED BY IDOCK:   -7.26 KCAL/MOL
REMARK 923 INTER-LIGAND FREE ENERGY PREDICTED BY IDOCK:   -6.85 KCAL/MOL
REMARK 924 INTRA-LIGAND FREE ENERGY PREDICTED BY IDOCK:   -0.41 KCAL/MOL
REMARK 927      BINDING AFFINITY PREDICTED BY RF-SCORE:    0.00 PKD
ROOT
HETATM    1  C   UNL     1     -12.549  12.179  63.702  1.00  0.00    -0.616 C  
HETATM    2  C   UNL     1     -11.363  13.067  64.039  1.00  0.00    -0.458 C  
ENDROOT
BRANCH   2   3
HETATM    3  C   UNL     1     -11.766  14.255  64.916  1.00  0.00    -0.399 C  
BRANCH   3   4
HETATM    4  C   UNL     1     -12.366  13.765  66.237  1.00  0.00    -0.479 C  
BRANCH   4   5
HETATM    5  C   UNL     1     -11.324  13.412  67.307  1.00  0.00    -0.348 C  
BRANCH   5   6
HETATM    6  C   UNL     1     -11.767  13.623  68.733  1.00  0.00    -0.383 C  
HETATM    7  C   UNL     1     -12.031  14.846  69.235  1.00  0.00    -0.326 C  
HETATM    8  C   UNL     1     -11.855  12.407  69.595  1.00  0.00    -0.311 C  
HETATM    9  O   UNL     1     -11.429  11.315  69.242  1.00  0.00    -0.244 OA 
BRANCH   7  10
HETATM   10  C   UNL     1     -12.412  15.099  70.624  1.00  0.00    -0.442 A  
HETATM   11  C   UNL     1     -13.754  14.997  71.013  1.00  0.00    -0.417 A  
HETATM   12  C   UNL     1     -14.137  15.370  72.301  1.00  0.00    -0.660 A  
HETATM   13  C   UNL     1     -13.184  15.841  73.203  1.00  0.00    -0.694 A  
HETATM   14  C   UNL     1     -11.844  15.922  72.827  1.00  0.00    -0.583 A  
HETATM   15  C   UNL     1     -11.456  15.547  71.540  1.00  0.00    -0.489 A  
ENDBRANCH   7  10
ENDBRANCH   5   6
ENDBRANCH   4   5
ENDBRANCH   3   4
ENDBRANCH   2   3
TORSDOF 5
ENDMDL
MODEL        3
REMARK 921   NORMALIZED FREE ENERGY PREDICTED BY IDOCK:   -5.21 KCAL/MOL
REMARK 922        TOTAL FREE ENERGY PREDICTED BY IDOCK:   -7.17 KCAL/MOL
REMARK 923 INTER-LIGAND FREE ENERGY PREDICTED BY IDOCK:   -6.83 KCAL/MOL
REMARK 924 INTRA-LIGAND FREE ENERGY PREDICTED BY IDOCK:   -0.34 KCAL/MOL
REMARK 927      BINDING AFFINITY PREDICTED BY RF-SCORE:    0.00 PKD
ROOT
HETATM    1  C   UNL     1     -10.705  12.011  63.822  1.00  0.00    -0.478 C  
HETATM    2  C   UNL     1     -12.073  12.661  63.944  1.00  0.00    -0.567 C  
ENDROOT
BRANCH   2   3
HETATM    3  C   UNL     1     -12.007  14.004  64.675  1.00  0.00    -0.449 C  
BRANCH   3   4
HETATM    4  C   UNL     1     -12.404  13.831  66.144  1.00  0.00    -0.496 C  
BRANCH   4   5
HETATM    5  C   UNL     1     -11.233  13.957  67.130  1.00  0.00    -0.328 C  
BRANCH   5   6
HETATM    6  C   UNL     1     -11.551  14.672  68.419  1.00  0.00    -0.351 C  
HETATM    7  C   UNL     1     -12.151  14.058  69.458  1.00  0.00    -0.397 C  
HETATM    8  C   UNL     1     -11.214  16.126  68.481  1.00  0.00    -0.365 C  
HETATM    9  O   UNL     1     -10.862  16.764  67.498  1.00  0.00    -0.307 OA 
BRANCH   7  10
HETATM   10  C   UNL     1     -12.523  14.727  70.704  1.00  0.00    -0.407 A  
HETATM   11  C   UNL     1     -11.546  15.009  71.667  1.00  0.00    -0.416 A  
HETATM   12  C   UNL     1     -11.920  15.521  72.910  1.00  0.00    -0.575 A  
HETATM   13  C   UNL     1     -13.265  15.755  73.192  1.00  0.00    -0.694 A  
HETATM   14  C   UNL     1     -14.238  15.495  72.228  1.00  0.00    -0.617 A  
HETATM   15  C   UNL     1     -13.868  14.987  70.983  1.00  0.00    -0.379 A  
ENDBRANCH   7  10
ENDBRANCH   5   6
ENDBRANCH   4   5
ENDBRANCH   3   4
ENDBRANCH   2   3
TORSDOF 5
ENDMDL
MODEL        4
REMARK 921   NORMALIZED FREE ENERGY PREDICTED BY IDOCK:   -5.14 KCAL/MOL
REMARK 922        TOTAL FREE ENERGY PREDICTED BY IDOCK:   -7.07 KCAL/MOL
REMARK 923 INTER-LIGAND FREE ENERGY PREDICTED BY IDOCK:   -6.80 KCAL/MOL
REMARK 924 INTRA-LIGAND FREE ENERGY PREDICTED BY IDOCK:   -0.27 KCAL/MOL
REMARK 927      BINDING AFFINITY PREDICTED BY RF-SCORE:    0.00 PKD
ROOT
HETATM    1  C   UNL     1     -12.324  16.411  74.490  1.00  0.00    -0.516 C  
HETATM    2  C   UNL     1     -12.514  15.137  73.684  1.00  0.00    -0.692 C  
ENDROOT
BRANCH   2   3
HETATM    3  C   UNL     1     -13.653  15.264  72.669  1.00  0.00    -0.617 C  
BRANCH   3   4
HETATM    4  C   UNL     1     -13.913  13.918  71.988  1.00  0.00    -0.585 C  
BRANCH   4   5
HETATM    5  C   UNL     1     -12.720  13.377  71.188  1.00  0.00    -0.411 C  
BRANCH   5   6
HETATM    6  C   UNL     1     -12.640  11.875  71.086  1.00  0.00    -0.390 C  
HETATM    7  C   UNL     1     -13.202  11.056  71.997  1.00  0.00    -0.447 C  
HETATM    8  C   UNL     1     -11.854  11.321  69.943  1.00  0.00    -0.360 C  
HETATM    9  O   UNL     1     -11.161  12.022  69.217  1.00  0.00    -0.234 OA 
BRANCH   7  10
HETATM   10  C   UNL     1     -13.103   9.598  71.964  1.00  0.00    -0.537 A  
HETATM   11  C   UNL     1     -11.863   8.974  72.148  1.00  0.00    -0.384 A  
HETATM   12  C   UNL     1     -11.744   7.595  71.981  1.00  0.00    -0.340 A  
HETATM   13  C   UNL     1     -12.860   6.835  71.634  1.00  0.00    -0.328 A  
HETATM   14  C   UNL     1     -14.102   7.450  71.472  1.00  0.00    -0.541 A  
HETATM   15  C   UNL     1     -14.225   8.829  71.641  1.00  0.00    -0.414 A  
ENDBRANCH   7  10
ENDBRANCH   5   6
ENDBRANCH   4   5
ENDBRANCH   3   4
ENDBRANCH   2   3
TORSDOF 5
ENDMDL
MODEL        5
REMARK 921   NORMALIZED FREE ENERGY PREDICTED BY IDOCK:   -5.12 KCAL/MOL
REMARK 922        TOTAL FREE ENERGY PREDICTED BY IDOCK:   -7.05 KCAL/MOL
REMARK 923 INTER-LIGAND FREE ENERGY PREDICTED BY IDOCK:   -6.57 KCAL/MOL
REMARK 924 INTRA-LIGAND FREE ENERGY PREDICTED BY IDOCK:   -0.48 KCAL/MOL
REMARK 927      BINDING AFFINITY PREDICTED BY RF-SCORE:    0.00 PKD
ROOT
HETATM    1  C   UNL     1     -13.004  15.842  73.102  1.00  0.00    -0.653 C  
HETATM    2  C   UNL     1     -13.178  15.426  71.651  1.00  0.00    -0.563 C  
ENDROOT
BRANCH   2   3
HETATM    3  C   UNL     1     -13.127  13.905  71.481  1.00  0.00    -0.441 C  
BRANCH   3   4
HETATM    4  C   UNL     1     -12.174  13.527  70.344  1.00  0.00    -0.426 C  
BRANCH   4   5
HETATM    5  C   UNL     1     -11.850  14.682  69.385  1.00  0.00    -0.368 C  
BRANCH   5   6
HETATM    6  C   UNL     1     -11.572  14.277  67.959  1.00  0.00    -0.364 C  
HETATM    7  C   UNL     1     -11.906  13.065  67.473  1.00  0.00    -0.408 C  
HETATM    8  C   UNL     1     -10.854  15.272  67.107  1.00  0.00    -0.322 C  
HETATM    9  O   UNL     1     -10.354  16.291  67.563  1.00  0.00    -0.275 OA 
BRANCH   7  10
HETATM   10  C   UNL     1     -11.608  12.614  66.114  1.00  0.00    -0.445 A  
HETATM   11  C   UNL     1     -12.534  12.827  65.085  1.00  0.00    -0.565 A  
HETATM   12  C   UNL     1     -12.312  12.278  63.823  1.00  0.00    -0.637 A  
HETATM   13  C   UNL     1     -11.166  11.521  63.583  1.00  0.00    -0.451 A  
HETATM   14  C   UNL     1     -10.230  11.327  64.598  1.00  0.00    -0.357 A  
HETATM   15  C   UNL     1     -10.447  11.877  65.862  1.00  0.00    -0.296 A  
ENDBRANCH   7  10
ENDBRANCH   5   6
ENDBRANCH   4   5
ENDBRANCH   3   4
ENDBRANCH   2   3
TORSDOF 5
ENDMDL
MODEL        6
REMARK 921   NORMALIZED FREE ENERGY PREDICTED BY IDOCK:   -5.08 KCAL/MOL
REMARK 922        TOTAL FREE ENERGY PREDICTED BY IDOCK:   -7.00 KCAL/MOL
REMARK 923 INTER-LIGAND FREE ENERGY PREDICTED BY IDOCK:   -6.67 KCAL/MOL
REMARK 924 INTRA-LIGAND FREE ENERGY PREDICTED BY IDOCK:   -0.32 KCAL/MOL
REMARK 927      BINDING AFFINITY PREDICTED BY RF-SCORE:    0.00 PKD
ROOT
HETATM    1  C   UNL     1     -12.696  15.965  73.706  1.00  0.00    -0.729 C  
HETATM    2  C   UNL     1     -12.028  15.454  72.440  1.00  0.00    -0.532 C  
ENDROOT
BRANCH   2   3
HETATM    3  C   UNL     1     -13.023  15.309  71.286  1.00  0.00    -0.511 C  
BRANCH   3   4
HETATM    4  C   UNL     1     -12.393  14.519  70.135  1.00  0.00    -0.398 C  
BRANCH   4   5
HETATM    5  C   UNL     1     -11.766  15.395  69.040  1.00  0.00    -0.380 C  
BRANCH   5   6
HETATM    6  C   UNL     1     -11.567  14.718  67.708  1.00  0.00    -0.378 C  
HETATM    7  C   UNL     1     -12.063  13.495  67.437  1.00  0.00    -0.360 C  
HETATM    8  C   UNL     1     -10.739  15.448  66.702  1.00  0.00    -0.309 C  
HETATM    9  O   UNL     1     -10.103  16.456  66.978  1.00  0.00    -0.259 OA 
BRANCH   7  10
HETATM   10  C   UNL     1     -11.848  12.781  66.178  1.00  0.00    -0.484 A  
HETATM   11  C   UNL     1     -10.789  11.874  66.058  1.00  0.00    -0.342 A  
HETATM   12  C   UNL     1     -10.501  11.298  64.821  1.00  0.00    -0.384 A  
HETATM   13  C   UNL     1     -11.269  11.622  63.704  1.00  0.00    -0.497 A  
HETATM   14  C   UNL     1     -12.340  12.508  63.825  1.00  0.00    -0.595 A  
HETATM   15  C   UNL     1     -12.633  13.084  65.061  1.00  0.00    -0.515 A  
ENDBRANCH   7  10
ENDBRANCH   5   6
ENDBRANCH   4   5
ENDBRANCH   3   4
ENDBRANCH   2   3
TORSDOF 5
ENDMDL
MODEL        7
REMARK 921   NORMALIZED FREE ENERGY PREDICTED BY IDOCK:   -5.05 KCAL/MOL
REMARK 922        TOTAL FREE ENERGY PREDICTED BY IDOCK:   -6.96 KCAL/MOL
REMARK 923 INTER-LIGAND FREE ENERGY PREDICTED BY IDOCK:   -6.53 KCAL/MOL
REMARK 924 INTRA-LIGAND FREE ENERGY PREDICTED BY IDOCK:   -0.43 KCAL/MOL
REMARK 927      BINDING AFFINITY PREDICTED BY RF-SCORE:    0.00 PKD
ROOT
HETATM    1  C   UNL     1     -12.354  15.553  74.196  1.00  0.00    -0.806 C  
HETATM    2  C   UNL     1     -13.094  15.706  72.877  1.00  0.00    -0.621 C  
ENDROOT
BRANCH   2   3
HETATM    3  C   UNL     1     -12.139  15.975  71.711  1.00  0.00    -0.570 C  
BRANCH   3   4
HETATM    4  C   UNL     1     -12.601  15.224  70.459  1.00  0.00    -0.450 C  
BRANCH   4   5
HETATM    5  C   UNL     1     -12.050  13.795  70.344  1.00  0.00    -0.421 C  
BRANCH   5   6
HETATM    6  C   UNL     1     -11.863  13.289  68.936  1.00  0.00    -0.367 C  
HETATM    7  C   UNL     1     -11.772  14.116  67.876  1.00  0.00    -0.402 C  
HETATM    8  C   UNL     1     -11.832  11.807  68.755  1.00  0.00    -0.320 C  
HETATM    9  O   UNL     1     -12.115  11.026  69.654  1.00  0.00    -0.318 OA 
BRANCH   7  10
HETATM   10  C   UNL     1     -11.643  13.664  66.490  1.00  0.00    -0.392 A  
HETATM   11  C   UNL     1     -10.373  13.503  65.921  1.00  0.00    -0.301 A  
HETATM   12  C   UNL     1     -10.251  13.206  64.564  1.00  0.00    -0.333 A  
HETATM   13  C   UNL     1     -11.391  13.066  63.774  1.00  0.00    -0.434 A  
HETATM   14  C   UNL     1     -12.657  13.204  64.343  1.00  0.00    -0.315 A  
HETATM   15  C   UNL     1     -12.784  13.498  65.701  1.00  0.00    -0.478 A  
ENDBRANCH   7  10
ENDBRANCH   5   6
ENDBRANCH   4   5
ENDBRANCH   3   4
ENDBRANCH   2   3
TORSDOF 5
ENDMDL
MODEL        8
REMARK 921   NORMALIZED FREE ENERGY PREDICTED BY IDOCK:   -4.98 KCAL/MOL
REMARK 922        TOTAL FREE ENERGY PREDICTED BY IDOCK:   -6.87 KCAL/MOL
REMARK 923 INTER-LIGAND FREE ENERGY PREDICTED BY IDOCK:   -6.54 KCAL/MOL
REMARK 924 INTRA-LIGAND FREE ENERGY PREDICTED BY IDOCK:   -0.33 KCAL/MOL
REMARK 927      BINDING AFFINITY PREDICTED BY RF-SCORE:    0.00 PKD
ROOT
HETATM    1  C   UNL     1     -12.392  12.337  63.816  1.00  0.00    -0.637 C  
HETATM    2  C   UNL     1     -11.142  12.811  64.537  1.00  0.00    -0.365 C  
ENDROOT
BRANCH   2   3
HETATM    3  C   UNL     1     -10.808  11.932  65.745  1.00  0.00    -0.341 C  
BRANCH   3   4
HETATM    4  C   UNL     1     -11.198  12.641  67.045  1.00  0.00    -0.348 C  
BRANCH   4   5
HETATM    5  C   UNL     1     -11.428  11.694  68.232  1.00  0.00    -0.369 C  
BRANCH   5   6
HETATM    6  C   UNL     1     -11.902  12.356  69.501  1.00  0.00    -0.368 C  
HETATM    7  C   UNL     1     -12.094  13.686  69.596  1.00  0.00    -0.378 C  
HETATM    8  C   UNL     1     -12.105  11.468  70.685  1.00  0.00    -0.353 C  
HETATM    9  O   UNL     1     -11.748  10.297  70.701  1.00  0.00    -0.295 OA 
BRANCH   7  10
HETATM   10  C   UNL     1     -12.502  14.373  70.822  1.00  0.00    -0.423 A  
HETATM   11  C   UNL     1     -13.849  14.382  71.205  1.00  0.00    -0.333 A  
HETATM   12  C   UNL     1     -14.257  15.149  72.296  1.00  0.00    -0.613 A  
HETATM   13  C   UNL     1     -13.326  15.904  73.006  1.00  0.00    -0.663 A  
HETATM   14  C   UNL     1     -11.980  15.880  72.641  1.00  0.00    -0.610 A  
HETATM   15  C   UNL     1     -11.566  15.111  71.553  1.00  0.00    -0.443 A  
ENDBRANCH   7  10
ENDBRANCH   5   6
ENDBRANCH   4   5
ENDBRANCH   3   4
ENDBRANCH   2   3
TORSDOF 5
ENDMDL
MODEL        9
REMARK 921   NORMALIZED FREE ENERGY PREDICTED BY IDOCK:   -4.98 KCAL/MOL
REMARK 922        TOTAL FREE ENERGY PREDICTED BY IDOCK:   -6.87 KCAL/MOL
REMARK 923 INTER-LIGAND FREE ENERGY PREDICTED BY IDOCK:   -6.39 KCAL/MOL
REMARK 924 INTRA-LIGAND FREE ENERGY PREDICTED BY IDOCK:   -0.48 KCAL/MOL
REMARK 927      BINDING AFFINITY PREDICTED BY RF-SCORE:    0.00 PKD
ROOT
HETATM    1  C   UNL     1     -12.642  15.442  73.427  1.00  0.00    -0.645 C  
HETATM    2  C   UNL     1     -13.775  15.532  72.418  1.00  0.00    -0.655 C  
ENDROOT
BRANCH   2   3
HETATM    3  C   UNL     1     -13.289  15.295  70.986  1.00  0.00    -0.537 C  
BRANCH   3   4
HETATM    4  C   UNL     1     -12.143  14.279  70.973  1.00  0.00    -0.416 C  
BRANCH   4   5
HETATM    5  C   UNL     1     -12.004  13.506  69.654  1.00  0.00    -0.397 C  
BRANCH   5   6
HETATM    6  C   UNL     1     -12.137  12.008  69.768  1.00  0.00    -0.317 C  
HETATM    7  C   UNL     1     -12.241  11.379  70.955  1.00  0.00    -0.447 C  
HETATM    8  C   UNL     1     -12.097  11.232  68.492  1.00  0.00    -0.091 C  
HETATM    9  O   UNL     1     -11.799  11.741  67.419  1.00  0.00    -0.590 OA 
BRANCH   7  10
HETATM   10  C   UNL     1     -12.319   9.927  71.112  1.00  0.00    -0.466 A  
HETATM   11  C   UNL     1     -13.554   9.313  71.356  1.00  0.00    -0.358 A  
HETATM   12  C   UNL     1     -13.609   7.949  71.641  1.00  0.00    -0.397 A  
HETATM   13  C   UNL     1     -12.437   7.195  71.679  1.00  0.00    -0.405 A  
HETATM   14  C   UNL     1     -11.208   7.799  71.414  1.00  0.00    -0.276 A  
HETATM   15  C   UNL     1     -11.148   9.162  71.125  1.00  0.00    -0.393 A  
ENDBRANCH   7  10
ENDBRANCH   5   6
ENDBRANCH   4   5
ENDBRANCH   3   4
ENDBRANCH   2   3
TORSDOF 5
ENDMDL
MODEL       10
REMARK 921   NORMALIZED FREE ENERGY PREDICTED BY IDOCK:   -4.98 KCAL/MOL
REMARK 922        TOTAL FREE ENERGY PREDICTED BY IDOCK:   -6.87 KCAL/MOL
REMARK 923 INTER-LIGAND FREE ENERGY PREDICTED BY IDOCK:   -6.50 KCAL/MOL
REMARK 924 INTRA-LIGAND FREE ENERGY PREDICTED BY IDOCK:   -0.37 KCAL/MOL
REMARK 927      BINDING AFFINITY PREDICTED BY RF-SCORE:    0.00 PKD
ROOT
HETATM    1  C   UNL     1     -12.384  15.545  74.186  1.00  0.00    -0.806 C  
HETATM    2  C   UNL     1     -12.995  15.653  72.799  1.00  0.00    -0.579 C  
ENDROOT
BRANCH   2   3
HETATM    3  C   UNL     1     -11.927  15.801  71.712  1.00  0.00    -0.547 C  
BRANCH   3   4
HETATM    4  C   UNL     1     -12.432  15.227  70.385  1.00  0.00    -0.426 C  
BRANCH   4   5
HETATM    5  C   UNL     1     -12.248  13.709  70.247  1.00  0.00    -0.423 C  
BRANCH   5   6
HETATM    6  C   UNL     1     -11.958  13.220  68.851  1.00  0.00    -0.336 C  
HETATM    7  C   UNL     1     -11.925  14.046  67.786  1.00  0.00    -0.392 C  
HETATM    8  C   UNL     1     -11.757  11.749  68.684  1.00  0.00    -0.330 C  
HETATM    9  O   UNL     1     -11.981  10.946  69.580  1.00  0.00    -0.305 OA 
BRANCH   7  10
HETATM   10  C   UNL     1     -11.700  13.605  66.410  1.00  0.00    -0.403 A  
HETATM   11  C   UNL     1     -12.786  13.246  65.602  1.00  0.00    -0.373 A  
HETATM   12  C   UNL     1     -12.563  12.697  64.339  1.00  0.00    -0.470 A  
HETATM   13  C   UNL     1     -11.260  12.508  63.880  1.00  0.00    -0.496 A  
HETATM   14  C   UNL     1     -10.177  12.885  64.674  1.00  0.00    -0.321 A  
HETATM   15  C   UNL     1     -10.395  13.437  65.936  1.00  0.00    -0.290 A  
ENDBRANCH   7  10
ENDBRANCH   5   6
ENDBRANCH   4   5
ENDBRANCH   3   4
ENDBRANCH   2   3
TORSDOF 5
ENDMDL
MODEL       11
REMARK 921   NORMALIZED FREE ENERGY PREDICTED BY IDOCK:   -4.93 KCAL/MOL
REMARK 922        TOTAL FREE ENERGY PREDICTED BY IDOCK:   -6.81 KCAL/MOL
REMARK 923 INTER-LIGAND FREE ENERGY PREDICTED BY IDOCK:   -6.33 KCAL/MOL
REMARK 924 INTRA-LIGAND FREE ENERGY PREDICTED BY IDOCK:   -0.47 KCAL/MOL
REMARK 927      BINDING AFFINITY PREDICTED BY RF-SCORE:    0.00 PKD
ROOT
HETATM    1  C   UNL     1     -12.331  15.679  73.334  1.00  0.00    -0.633 C  
HETATM    2  C   UNL     1     -13.648  15.347  72.653  1.00  0.00    -0.641 C  
ENDROOT
BRANCH   2   3
HETATM    3  C   UNL     1     -13.515  15.323  71.128  1.00  0.00    -0.559 C  
BRANCH   3   4
HETATM    4  C   UNL     1     -12.059  15.082  70.722  1.00  0.00    -0.377 C  
BRANCH   4   5
HETATM    5  C   UNL     1     -11.865  14.765  69.233  1.00  0.00    -0.352 C  
BRANCH   5   6
HETATM    6  C   UNL     1     -11.107  15.804  68.446  1.00  0.00    -0.341 C  
HETATM    7  C   UNL     1     -10.772  17.002  68.964  1.00  0.00    -0.271 C  
HETATM    8  C   UNL     1     -10.780  15.466  67.028  1.00  0.00    -0.321 C  
HETATM    9  O   UNL     1     -11.242  14.485  66.461  1.00  0.00    -0.329 OA 
BRANCH   7  10
HETATM   10  C   UNL     1     -10.083  18.057  68.220  1.00  0.00    -0.390 A  
HETATM   11  C   UNL     1      -8.705  18.244  68.382  1.00  0.00    -0.325 A  
HETATM   12  C   UNL     1      -8.074  19.332  67.779  1.00  0.00    -0.321 A  
HETATM   13  C   UNL     1      -8.814  20.231  67.014  1.00  0.00    -0.427 A  
HETATM   14  C   UNL     1     -10.182  20.035  66.832  1.00  0.00    -0.595 A  
HETATM   15  C   UNL     1     -10.817  18.946  67.430  1.00  0.00    -0.449 A  
ENDBRANCH   7  10
ENDBRANCH   5   6
ENDBRANCH   4   5
ENDBRANCH   3   4
ENDBRANCH   2   3
TORSDOF 5
ENDMDL
MODEL       12
REMARK 921   NORMALIZED FREE ENERGY PREDICTED BY IDOCK:   -4.86 KCAL/MOL
REMARK 922        TOTAL FREE ENERGY PREDICTED BY IDOCK:   -6.71 KCAL/MOL
REMARK 923 INTER-LIGAND FREE ENERGY PREDICTED BY IDOCK:   -6.14 KCAL/MOL
REMARK 924 INTRA-LIGAND FREE ENERGY PREDICTED BY IDOCK:   -0.57 KCAL/MOL
REMARK 927      BINDING AFFINITY PREDICTED BY RF-SCORE:    0.00 PKD
ROOT
HETATM    1  C   UNL     1     -10.173  17.462  66.623  1.00  0.00    -0.324 C  
HETATM    2  C   UNL     1      -9.211  16.400  66.117  1.00  0.00    -0.365 C  
ENDROOT
BRANCH   2   3
HETATM    3  C   UNL     1      -9.636  14.992  66.541  1.00  0.00    -0.299 C  
BRANCH   3   4
HETATM    4  C   UNL     1     -11.163  14.890  66.597  1.00  0.00    -0.340 C  
BRANCH   4   5
HETATM    5  C   UNL     1     -11.683  13.683  67.391  1.00  0.00    -0.416 C  
BRANCH   5   6
HETATM    6  C   UNL     1     -11.978  13.946  68.846  1.00  0.00    -0.393 C  
HETATM    7  C   UNL     1     -12.385  15.150  69.295  1.00  0.00    -0.128 C  
HETATM    8  C   UNL     1     -11.748  12.814  69.793  1.00  0.00    -0.282 C  
HETATM    9  O   UNL     1     -11.188  11.779  69.459  1.00  0.00    -0.245 OA 
BRANCH   7  10
HETATM   10  C   UNL     1     -12.632  15.461  70.703  1.00  0.00    -0.491 A  
HETATM   11  C   UNL     1     -11.584  15.913  71.515  1.00  0.00    -0.537 A  
HETATM   12  C   UNL     1     -11.786  16.079  72.885  1.00  0.00    -0.555 A  
HETATM   13  C   UNL     1     -13.031  15.798  73.446  1.00  0.00    -0.696 A  
HETATM   14  C   UNL     1     -14.083  15.370  72.636  1.00  0.00    -0.519 A  
HETATM   15  C   UNL     1     -13.886  15.206  71.265  1.00  0.00    -0.553 A  
ENDBRANCH   7  10
ENDBRANCH   5   6
ENDBRANCH   4   5
ENDBRANCH   3   4
ENDBRANCH   2   3
TORSDOF 5
ENDMDL
MODEL       13
REMARK 921   NORMALIZED FREE ENERGY PREDICTED BY IDOCK:   -4.79 KCAL/MOL
REMARK 922        TOTAL FREE ENERGY PREDICTED BY IDOCK:   -6.63 KCAL/MOL
REMARK 923 INTER-LIGAND FREE ENERGY PREDICTED BY IDOCK:   -6.26 KCAL/MOL
REMARK 924 INTRA-LIGAND FREE ENERGY PREDICTED BY IDOCK:   -0.37 KCAL/MOL
REMARK 927      BINDING AFFINITY PREDICTED BY RF-SCORE:    0.00 PKD
ROOT
HETATM    1  C   UNL     1     -12.529  11.946  63.454  1.00  0.00    -0.582 C  
HETATM    2  C   UNL     1     -11.081  12.366  63.649  1.00  0.00    -0.535 C  
ENDROOT
BRANCH   2   3
HETATM    3  C   UNL     1     -10.902  13.259  64.879  1.00  0.00    -0.358 C  
BRANCH   3   4
HETATM    4  C   UNL     1     -12.122  13.151  65.798  1.00  0.00    -0.502 C  
BRANCH   4   5
HETATM    5  C   UNL     1     -12.009  13.970  67.092  1.00  0.00    -0.465 C  
BRANCH   5   6
HETATM    6  C   UNL     1     -11.801  13.164  68.349  1.00  0.00    -0.386 C  
HETATM    7  C   UNL     1     -11.704  11.820  68.339  1.00  0.00    -0.389 C  
HETATM    8  C   UNL     1     -11.756  13.925  69.634  1.00  0.00    -0.311 C  
HETATM    9  O   UNL     1     -12.044  15.112  69.708  1.00  0.00    -0.310 OA 
BRANCH   7  10
HETATM   10  C   UNL     1     -11.555  10.998  69.539  1.00  0.00    -0.384 A  
HETATM   11  C   UNL     1     -10.360  10.305  69.771  1.00  0.00    -0.287 A  
HETATM   12  C   UNL     1     -10.266   9.416  70.841  1.00  0.00    -0.373 A  
HETATM   13  C   UNL     1     -11.360   9.218  71.682  1.00  0.00    -0.467 A  
HETATM   14  C   UNL     1     -12.544   9.923  71.468  1.00  0.00    -0.513 A  
HETATM   15  C   UNL     1     -12.641  10.816  70.401  1.00  0.00    -0.395 A  
ENDBRANCH   7  10
ENDBRANCH   5   6
ENDBRANCH   4   5
ENDBRANCH   3   4
ENDBRANCH   2   3
TORSDOF 5
ENDMDL
MODEL       14
REMARK 921   NORMALIZED FREE ENERGY PREDICTED BY IDOCK:   -4.79 KCAL/MOL
REMARK 922        TOTAL FREE ENERGY PREDICTED BY IDOCK:   -6.62 KCAL/MOL
REMARK 923 INTER-LIGAND FREE ENERGY PREDICTED BY IDOCK:   -6.16 KCAL/MOL
REMARK 924 INTRA-LIGAND FREE ENERGY PREDICTED BY IDOCK:   -0.46 KCAL/MOL
REMARK 927      BINDING AFFINITY PREDICTED BY RF-SCORE:    0.00 PKD
ROOT
HETATM    1  C   UNL     1     -10.700  11.904  63.460  1.00  0.00    -0.504 C  
HETATM    2  C   UNL     1     -12.128  12.411  63.573  1.00  0.00    -0.651 C  
ENDROOT
BRANCH   2   3
HETATM    3  C   UNL     1     -12.189  13.837  64.124  1.00  0.00    -0.443 C  
BRANCH   3   4
HETATM    4  C   UNL     1     -12.448  13.815  65.633  1.00  0.00    -0.541 C  
BRANCH   4   5
HETATM    5  C   UNL     1     -11.185  13.984  66.490  1.00  0.00    -0.326 C  
BRANCH   5   6
HETATM    6  C   UNL     1     -10.856  15.403  66.880  1.00  0.00    -0.313 C  
HETATM    7  C   UNL     1     -10.149  16.227  66.082  1.00  0.00    -0.362 C  
HETATM    8  C   UNL     1     -11.309  15.850  68.231  1.00  0.00    -0.342 C  
HETATM    9  O   UNL     1     -11.769  15.078  69.062  1.00  0.00    -0.300 OA 
BRANCH   7  10
HETATM   10  C   UNL     1      -9.763  17.591  66.444  1.00  0.00    -0.299 A  
HETATM   11  C   UNL     1      -8.647  17.811  67.260  1.00  0.00    -0.238 A  
HETATM   12  C   UNL     1      -8.360  19.098  67.716  1.00  0.00    -0.325 A  
HETATM   13  C   UNL     1      -9.183  20.165  67.358  1.00  0.00    -0.495 A  
HETATM   14  C   UNL     1     -10.282  19.952  66.527  1.00  0.00    -0.611 A  
HETATM   15  C   UNL     1     -10.571  18.668  66.065  1.00  0.00    -0.410 A  
ENDBRANCH   7  10
ENDBRANCH   5   6
ENDBRANCH   4   5
ENDBRANCH   3   4
ENDBRANCH   2   3
TORSDOF 5
ENDMDL
MODEL       15
REMARK 921   NORMALIZED FREE ENERGY PREDICTED BY IDOCK:   -4.78 KCAL/MOL
REMARK 922        TOTAL FREE ENERGY PREDICTED BY IDOCK:   -6.61 KCAL/MOL
REMARK 923 INTER-LIGAND FREE ENERGY PREDICTED BY IDOCK:   -6.23 KCAL/MOL
REMARK 924 INTRA-LIGAND FREE ENERGY PREDICTED BY IDOCK:   -0.38 KCAL/MOL
REMARK 927      BINDING AFFINITY PREDICTED BY RF-SCORE:    0.00 PKD
ROOT
HETATM    1  C   UNL     1     -12.178   8.975  71.330  1.00  0.00    -0.373 C  
HETATM    2  C   UNL     1     -13.252   9.901  71.876  1.00  0.00    -0.558 C  
ENDROOT
BRANCH   2   3
HETATM    3  C   UNL     1     -12.890  11.376  71.682  1.00  0.00    -0.497 C  
BRANCH   3   4
HETATM    4  C   UNL     1     -12.124  11.570  70.371  1.00  0.00    -0.471 C  
BRANCH   4   5
HETATM    5  C   UNL     1     -12.138  13.012  69.842  1.00  0.00    -0.347 C  
BRANCH   5   6
HETATM    6  C   UNL     1     -11.873  13.159  68.365  1.00  0.00    -0.386 C  
HETATM    7  C   UNL     1     -11.826  12.103  67.529  1.00  0.00    -0.307 C  
HETATM    8  C   UNL     1     -11.609  14.542  67.866  1.00  0.00    -0.344 C  
HETATM    9  O   UNL     1     -11.438  15.493  68.617  1.00  0.00    -0.322 OA 
BRANCH   7  10
HETATM   10  C   UNL     1     -11.521  12.198  66.102  1.00  0.00    -0.429 A  
HETATM   11  C   UNL     1     -12.512  12.601  65.198  1.00  0.00    -0.531 A  
HETATM   12  C   UNL     1     -12.262  12.559  63.827  1.00  0.00    -0.615 A  
HETATM   13  C   UNL     1     -11.026  12.121  63.355  1.00  0.00    -0.480 A  
HETATM   14  C   UNL     1     -10.029  11.741  64.253  1.00  0.00    -0.287 A  
HETATM   15  C   UNL     1     -10.273  11.784  65.626  1.00  0.00    -0.284 A  
ENDBRANCH   7  10
ENDBRANCH   5   6
ENDBRANCH   4   5
ENDBRANCH   3   4
ENDBRANCH   2   3
TORSDOF 5
ENDMDL
MODEL       16
REMARK 921   NORMALIZED FREE ENERGY PREDICTED BY IDOCK:   -4.78 KCAL/MOL
REMARK 922        TOTAL FREE ENERGY PREDICTED BY IDOCK:   -6.61 KCAL/MOL
REMARK 923 INTER-LIGAND FREE ENERGY PREDICTED BY IDOCK:   -6.10 KCAL/MOL
REMARK 924 INTRA-LIGAND FREE ENERGY PREDICTED BY IDOCK:   -0.51 KCAL/MOL
REMARK 927      BINDING AFFINITY PREDICTED BY RF-SCORE:    0.00 PKD
ROOT
HETATM    1  C   UNL     1     -10.650  19.791  65.820  1.00  0.00    -0.522 C  
HETATM    2  C   UNL     1      -9.835  20.194  67.038  1.00  0.00    -0.595 C  
ENDROOT
BRANCH   2   3
HETATM    3  C   UNL     1     -10.053  19.241  68.215  1.00  0.00    -0.516 C  
BRANCH   3   4
HETATM    4  C   UNL     1     -10.992  18.100  67.812  1.00  0.00    -0.105 C  
BRANCH   4   5
HETATM    5  C   UNL     1     -10.444  16.698  68.115  1.00  0.00    -0.321 C  
BRANCH   5   6
HETATM    6  C   UNL     1     -10.476  15.730  66.960  1.00  0.00    -0.309 C  
HETATM    7  C   UNL     1     -11.313  14.675  66.923  1.00  0.00    -0.361 C  
HETATM    8  C   UNL     1      -9.490  15.964  65.862  1.00  0.00    -0.337 C  
HETATM    9  O   UNL     1      -8.583  16.779  65.952  1.00  0.00    -0.500 OA 
BRANCH   7  10
HETATM   10  C   UNL     1     -11.340  13.684  65.847  1.00  0.00    -0.317 A  
HETATM   11  C   UNL     1     -10.532  12.543  65.924  1.00  0.00    -0.289 A  
HETATM   12  C   UNL     1     -10.454  11.669  64.840  1.00  0.00    -0.339 A  
HETATM   13  C   UNL     1     -11.183  11.930  63.680  1.00  0.00    -0.522 A  
HETATM   14  C   UNL     1     -12.006  13.053  63.608  1.00  0.00    -0.608 A  
HETATM   15  C   UNL     1     -12.089  13.928  64.692  1.00  0.00    -0.458 A  
ENDBRANCH   7  10
ENDBRANCH   5   6
ENDBRANCH   4   5
ENDBRANCH   3   4
ENDBRANCH   2   3
TORSDOF 5
ENDMDL
MODEL       17
REMARK 921   NORMALIZED FREE ENERGY PREDICTED BY IDOCK:   -4.75 KCAL/MOL
REMARK 922        TOTAL FREE ENERGY PREDICTED BY IDOCK:   -6.57 KCAL/MOL
REMARK 923 INTER-LIGAND FREE ENERGY PREDICTED BY IDOCK:   -6.01 KCAL/MOL
REMARK 924 INTRA-LIGAND FREE ENERGY PREDICTED BY IDOCK:   -0.56 KCAL/MOL
REMARK 927      BINDING AFFINITY PREDICTED BY RF-SCORE:    0.00 PKD
ROOT
HETATM    1  C   UNL     1     -12.212  12.355  64.219  1.00  0.00    -0.538 C  
HETATM    2  C   UNL     1     -12.543  13.497  65.164  1.00  0.00    -0.485 C  
ENDROOT
BRANCH   2   3
HETATM    3  C   UNL     1     -11.533  14.642  65.058  1.00  0.00    -0.386 C  
BRANCH   3   4
HETATM    4  C   UNL     1     -10.372  14.422  66.031  1.00  0.00    -0.319 C  
BRANCH   4   5
HETATM    5  C   UNL     1     -10.213  15.530  67.082  1.00  0.00    -0.260 C  
BRANCH   5   6
HETATM    6  C   UNL     1     -10.655  15.165  68.476  1.00  0.00    -0.237 C  
HETATM    7  C   UNL     1     -11.911  14.764  68.755  1.00  0.00    -0.330 C  
HETATM    8  C   UNL     1      -9.641  15.317  69.563  1.00  0.00    -0.215 C  
HETATM    9  O   UNL     1      -8.563  15.869  69.387  1.00  0.00    -0.256 OA 
BRANCH   7  10
HETATM   10  C   UNL     1     -12.394  14.451  70.100  1.00  0.00    -0.406 A  
HETATM   11  C   UNL     1     -12.332  13.136  70.579  1.00  0.00    -0.380 A  
HETATM   12  C   UNL     1     -12.916  12.813  71.804  1.00  0.00    -0.416 A  
HETATM   13  C   UNL     1     -13.557  13.798  72.553  1.00  0.00    -0.680 A  
HETATM   14  C   UNL     1     -13.601  15.112  72.089  1.00  0.00    -0.558 A  
HETATM   15  C   UNL     1     -13.016  15.441  70.866  1.00  0.00    -0.539 A  
ENDBRANCH   7  10
ENDBRANCH   5   6
ENDBRANCH   4   5
ENDBRANCH   3   4
ENDBRANCH   2   3
TORSDOF 5
ENDMDL
MODEL       18
REMARK 921   NORMALIZED FREE ENERGY PREDICTED BY IDOCK:   -4.71 KCAL/MOL
REMARK 922        TOTAL FREE ENERGY PREDICTED BY IDOCK:   -6.52 KCAL/MOL
REMARK 923 INTER-LIGAND FREE ENERGY PREDICTED BY IDOCK:   -5.97 KCAL/MOL
REMARK 924 INTRA-LIGAND FREE ENERGY PREDICTED BY IDOCK:   -0.55 KCAL/MOL
REMARK 927      BINDING AFFINITY PREDICTED BY RF-SCORE:    0.00 PKD
ROOT
HETATM    1  C   UNL     1      -7.657  19.774  68.515  1.00  0.00    -0.338 C  
HETATM    2  C   UNL     1      -8.844  18.827  68.575  1.00  0.00    -0.378 C  
ENDROOT
BRANCH   2   3
HETATM    3  C   UNL     1     -10.144  19.508  68.138  1.00  0.00    -0.537 C  
BRANCH   3   4
HETATM    4  C   UNL     1     -10.653  18.897  66.830  1.00  0.00    -0.480 C  
BRANCH   4   5
HETATM    5  C   UNL     1      -9.712  17.849  66.217  1.00  0.00    -0.278 C  
BRANCH   5   6
HETATM    6  C   UNL     1     -10.254  16.443  66.176  1.00  0.00    -0.363 C  
HETATM    7  C   UNL     1      -9.916  15.510  67.087  1.00  0.00    -0.242 C  
HETATM    8  C   UNL     1     -11.156  16.105  65.034  1.00  0.00    -0.294 C  
HETATM    9  O   UNL     1     -11.322  16.854  64.080  1.00  0.00    -1.208 OA 
BRANCH   7  10
HETATM   10  C   UNL     1     -10.378  14.122  67.053  1.00  0.00    -0.267 A  
HETATM   11  C   UNL     1     -11.451  13.720  67.858  1.00  0.00    -0.347 A  
HETATM   12  C   UNL     1     -11.802  12.372  67.928  1.00  0.00    -0.370 A  
HETATM   13  C   UNL     1     -11.088  11.425  67.195  1.00  0.00    -0.366 A  
HETATM   14  C   UNL     1     -10.034  11.826  66.374  1.00  0.00    -0.237 A  
HETATM   15  C   UNL     1      -9.682  13.173  66.298  1.00  0.00    -0.269 A  
ENDBRANCH   7  10
ENDBRANCH   5   6
ENDBRANCH   4   5
ENDBRANCH   3   4
ENDBRANCH   2   3
TORSDOF 5
ENDMDL
MODEL       19
REMARK 921   NORMALIZED FREE ENERGY PREDICTED BY IDOCK:   -4.70 KCAL/MOL
REMARK 922        TOTAL FREE ENERGY PREDICTED BY IDOCK:   -6.50 KCAL/MOL
REMARK 923 INTER-LIGAND FREE ENERGY PREDICTED BY IDOCK:   -6.05 KCAL/MOL
REMARK 924 INTRA-LIGAND FREE ENERGY PREDICTED BY IDOCK:   -0.45 KCAL/MOL
REMARK 927      BINDING AFFINITY PREDICTED BY RF-SCORE:    0.00 PKD
ROOT
HETATM    1  C   UNL     1      -8.804  12.050  67.905  1.00  0.00    -0.174 C  
HETATM    2  C   UNL     1      -9.617  12.198  66.630  1.00  0.00    -0.226 C  
ENDROOT
BRANCH   2   3
HETATM    3  C   UNL     1     -11.097  11.879  66.852  1.00  0.00    -0.356 C  
BRANCH   3   4
HETATM    4  C   UNL     1     -11.940  13.154  66.749  1.00  0.00    -0.434 C  
BRANCH   4   5
HETATM    5  C   UNL     1     -11.177  14.441  67.094  1.00  0.00    -0.337 C  
BRANCH   5   6
HETATM    6  C   UNL     1     -11.498  15.039  68.440  1.00  0.00    -0.340 C  
HETATM    7  C   UNL     1     -12.139  14.349  69.404  1.00  0.00    -0.338 C  
HETATM    8  C   UNL     1     -11.117  16.468  68.648  1.00  0.00    -0.329 C  
HETATM    9  O   UNL     1     -10.725  17.185  67.737  1.00  0.00    -0.361 OA 
BRANCH   7  10
HETATM   10  C   UNL     1     -12.516  14.907  70.703  1.00  0.00    -0.411 A  
HETATM   11  C   UNL     1     -11.539  15.124  71.683  1.00  0.00    -0.463 A  
HETATM   12  C   UNL     1     -11.915  15.527  72.964  1.00  0.00    -0.571 A  
HETATM   13  C   UNL     1     -13.262  15.716  73.269  1.00  0.00    -0.666 A  
HETATM   14  C   UNL     1     -14.235  15.523  72.289  1.00  0.00    -0.617 A  
HETATM   15  C   UNL     1     -13.863  15.124  71.005  1.00  0.00    -0.423 A  
ENDBRANCH   7  10
ENDBRANCH   5   6
ENDBRANCH   4   5
ENDBRANCH   3   4
ENDBRANCH   2   3
TORSDOF 5
ENDMDL
MODEL       20
REMARK 921   NORMALIZED FREE ENERGY PREDICTED BY IDOCK:   -4.68 KCAL/MOL
REMARK 922        TOTAL FREE ENERGY PREDICTED BY IDOCK:   -6.48 KCAL/MOL
REMARK 923 INTER-LIGAND FREE ENERGY PREDICTED BY IDOCK:   -6.22 KCAL/MOL
REMARK 924 INTRA-LIGAND FREE ENERGY PREDICTED BY IDOCK:   -0.26 KCAL/MOL
REMARK 927      BINDING AFFINITY PREDICTED BY RF-SCORE:    0.00 PKD
ROOT
HETATM    1  C   UNL     1     -12.210  14.107  65.772  1.00  0.00    -0.458 C  
HETATM    2  C   UNL     1     -11.945  13.671  67.204  1.00  0.00    -0.434 C  
ENDROOT
BRANCH   2   3
HETATM    3  C   UNL     1     -11.216  14.751  68.007  1.00  0.00    -0.311 C  
BRANCH   3   4
HETATM    4  C   UNL     1     -11.156  14.367  69.488  1.00  0.00    -0.267 C  
BRANCH   4   5
HETATM    5  C   UNL     1     -12.527  14.091  70.121  1.00  0.00    -0.380 C  
BRANCH   5   6
HETATM    6  C   UNL     1     -12.634  12.795  70.885  1.00  0.00    -0.342 C  
HETATM    7  C   UNL     1     -12.121  11.638  70.424  1.00  0.00    -0.462 C  
HETATM    8  C   UNL     1     -13.390  12.837  72.173  1.00  0.00    -0.492 C  
HETATM    9  O   UNL     1     -14.043  13.811  72.524  1.00  0.00    -0.686 OA 
BRANCH   7  10
HETATM   10  C   UNL     1     -12.249  10.351  71.108  1.00  0.00    -0.498 A  
HETATM   11  C   UNL     1     -11.104   9.614  71.435  1.00  0.00    -0.397 A  
HETATM   12  C   UNL     1     -11.229   8.329  71.962  1.00  0.00    -0.389 A  
HETATM   13  C   UNL     1     -12.494   7.779  72.167  1.00  0.00    -0.277 A  
HETATM   14  C   UNL     1     -13.636   8.519  71.864  1.00  0.00    -0.427 A  
HETATM   15  C   UNL     1     -13.515   9.806  71.339  1.00  0.00    -0.397 A  
ENDBRANCH   7  10
ENDBRANCH   5   6
ENDBRANCH   4   5
ENDBRANCH   3   4
ENDBRANCH   2   3
TORSDOF 5
ENDMDL
MODEL       21
REMARK 921   NORMALIZED FREE ENERGY PREDICTED BY IDOCK:   -4.68 KCAL/MOL
REMARK 922        TOTAL FREE ENERGY PREDICTED BY IDOCK:   -6.48 KCAL/MOL
REMARK 923 INTER-LIGAND FREE ENERGY PREDICTED BY IDOCK:   -5.97 KCAL/MOL
REMARK 924 INTRA-LIGAND FREE ENERGY PREDICTED BY IDOCK:   -0.51 KCAL/MOL
REMARK 927      BINDING AFFINITY PREDICTED BY RF-SCORE:    0.00 PKD
ROOT
HETATM    1  C   UNL     1     -10.560  11.588  63.509  1.00  0.00    -0.487 C  
HETATM    2  C   UNL     1     -11.923  12.257  63.563  1.00  0.00    -0.625 C  
ENDROOT
BRANCH   2   3
HETATM    3  C   UNL     1     -11.855  13.650  64.193  1.00  0.00    -0.463 C  
BRANCH   3   4
HETATM    4  C   UNL     1     -12.645  13.682  65.504  1.00  0.00    -0.541 C  
BRANCH   4   5
HETATM    5  C   UNL     1     -11.886  14.313  66.680  1.00  0.00    -0.442 C  
BRANCH   5   6
HETATM    6  C   UNL     1     -11.593  13.383  67.830  1.00  0.00    -0.374 C  
HETATM    7  C   UNL     1     -11.590  12.042  67.695  1.00  0.00    -0.392 C  
HETATM    8  C   UNL     1     -11.351  14.018  69.161  1.00  0.00    -0.281 C  
HETATM    9  O   UNL     1     -11.546  15.208  69.370  1.00  0.00    -0.285 OA 
BRANCH   7  10
HETATM   10  C   UNL     1     -11.362  11.105  68.795  1.00  0.00    -0.342 A  
HETATM   11  C   UNL     1     -12.382  10.849  69.720  1.00  0.00    -0.326 A  
HETATM   12  C   UNL     1     -12.122  10.064  70.843  1.00  0.00    -0.448 A  
HETATM   13  C   UNL     1     -10.850   9.532  71.044  1.00  0.00    -0.423 A  
HETATM   14  C   UNL     1      -9.839   9.766  70.112  1.00  0.00    -0.306 A  
HETATM   15  C   UNL     1     -10.095  10.548  68.986  1.00  0.00    -0.230 A  
ENDBRANCH   7  10
ENDBRANCH   5   6
ENDBRANCH   4   5
ENDBRANCH   3   4
ENDBRANCH   2   3
TORSDOF 5
ENDMDL
MODEL       22
REMARK 921   NORMALIZED FREE ENERGY PREDICTED BY IDOCK:   -4.68 KCAL/MOL
REMARK 922        TOTAL FREE ENERGY PREDICTED BY IDOCK:   -6.47 KCAL/MOL
REMARK 923 INTER-LIGAND FREE ENERGY PREDICTED BY IDOCK:   -6.10 KCAL/MOL
REMARK 924 INTRA-LIGAND FREE ENERGY PREDICTED BY IDOCK:   -0.38 KCAL/MOL
REMARK 927      BINDING AFFINITY PREDICTED BY RF-SCORE:    0.00 PKD
ROOT
HETATM    1  C   UNL     1     -10.300  19.933  65.940  1.00  0.00    -0.567 C  
HETATM    2  C   UNL     1      -9.768  20.158  67.345  1.00  0.00    -0.563 C  
ENDROOT
BRANCH   2   3
HETATM    3  C   UNL     1     -10.011  18.948  68.251  1.00  0.00    -0.431 C  
BRANCH   3   4
HETATM    4  C   UNL     1     -10.627  17.797  67.451  1.00  0.00    -0.341 C  
BRANCH   4   5
HETATM    5  C   UNL     1     -10.723  16.474  68.224  1.00  0.00    -0.345 C  
BRANCH   5   6
HETATM    6  C   UNL     1     -10.971  15.251  67.379  1.00  0.00    -0.321 C  
HETATM    7  C   UNL     1     -10.579  15.168  66.093  1.00  0.00    -0.318 C  
HETATM    8  C   UNL     1     -11.728  14.134  68.022  1.00  0.00    -0.359 C  
HETATM    9  O   UNL     1     -12.277  14.249  69.109  1.00  0.00    -0.316 OA 
BRANCH   7  10
HETATM   10  C   UNL     1     -10.846  14.021  65.224  1.00  0.00    -0.352 A  
HETATM   11  C   UNL     1     -11.937  14.045  64.347  1.00  0.00    -0.480 A  
HETATM   12  C   UNL     1     -12.272  12.903  63.620  1.00  0.00    -0.581 A  
HETATM   13  C   UNL     1     -11.519  11.739  63.764  1.00  0.00    -0.510 A  
HETATM   14  C   UNL     1     -10.417  11.719  64.619  1.00  0.00    -0.347 A  
HETATM   15  C   UNL     1     -10.077  12.860  65.345  1.00  0.00    -0.265 A  
ENDBRANCH   7  10
ENDBRANCH   5   6
ENDBRANCH   4   5
ENDBRANCH   3   4
ENDBRANCH   2   3
TORSDOF 5
ENDMDL
MODEL       23
REMARK 921   NORMALIZED FREE ENERGY PREDICTED BY IDOCK:   -4.68 KCAL/MOL
REMARK 922        TOTAL FREE ENERGY PREDICTED BY IDOCK:   -6.47 KCAL/MOL
REMARK 923 INTER-LIGAND FREE ENERGY PREDICTED BY IDOCK:   -5.88 KCAL/MOL
REMARK 924 INTRA-LIGAND FREE ENERGY PREDICTED BY IDOCK:   -0.60 KCAL/MOL
REMARK 927      BINDING AFFINITY PREDICTED BY RF-SCORE:    0.00 PKD
ROOT
HETATM    1  C   UNL     1     -10.626  18.856  67.820  1.00  0.00    -0.471 C  
HETATM    2  C   UNL     1     -10.392  18.255  66.444  1.00  0.00    -0.418 C  
ENDROOT
BRANCH   2   3
HETATM    3  C   UNL     1      -9.211  17.280  66.437  1.00  0.00    -0.278 C  
BRANCH   3   4
HETATM    4  C   UNL     1      -9.079  16.592  67.798  1.00  0.00    -0.212 C  
BRANCH   4   5
HETATM    5  C   UNL     1      -9.483  15.111  67.795  1.00  0.00    -0.194 C  
BRANCH   5   6
HETATM    6  C   UNL     1     -10.764  14.790  68.523  1.00  0.00    -0.247 C  
HETATM    7  C   UNL     1     -10.887  14.912  69.859  1.00  0.00    -0.228 C  
HETATM    8  C   UNL     1     -11.895  14.275  67.694  1.00  0.00    -0.385 C  
HETATM    9  O   UNL     1     -11.761  13.957  66.520  1.00  0.00    -0.354 OA 
BRANCH   7  10
HETATM   10  C   UNL     1     -12.094  14.562  70.609  1.00  0.00    -0.392 A  
HETATM   11  C   UNL     1     -12.974  15.567  71.028  1.00  0.00    -0.550 A  
HETATM   12  C   UNL     1     -14.050  15.250  71.858  1.00  0.00    -0.656 A  
HETATM   13  C   UNL     1     -14.250  13.932  72.267  1.00  0.00    -0.584 A  
HETATM   14  C   UNL     1     -13.388  12.926  71.832  1.00  0.00    -0.530 A  
HETATM   15  C   UNL     1     -12.313  13.238  71.000  1.00  0.00    -0.379 A  
ENDBRANCH   7  10
ENDBRANCH   5   6
ENDBRANCH   4   5
ENDBRANCH   3   4
ENDBRANCH   2   3
TORSDOF 5
ENDMDL
MODEL       24
REMARK 921   NORMALIZED FREE ENERGY PREDICTED BY IDOCK:   -4.67 KCAL/MOL
REMARK 922        TOTAL FREE ENERGY PREDICTED BY IDOCK:   -6.47 KCAL/MOL
REMARK 923 INTER-LIGAND FREE ENERGY PREDICTED BY IDOCK:   -5.69 KCAL/MOL
REMARK 924 INTRA-LIGAND FREE ENERGY PREDICTED BY IDOCK:   -0.78 KCAL/MOL
REMARK 927      BINDING AFFINITY PREDICTED BY RF-SCORE:    0.00 PKD
ROOT
HETATM    1  C   UNL     1     -12.181  14.368  64.865  1.00  0.00    -0.440 C  
HETATM    2  C   UNL     1     -12.020  12.895  65.202  1.00  0.00    -0.452 C  
ENDROOT
BRANCH   2   3
HETATM    3  C   UNL     1     -11.744  12.673  66.691  1.00  0.00    -0.464 C  
BRANCH   3   4
HETATM    4  C   UNL     1     -10.279  12.981  67.014  1.00  0.00    -0.245 C  
BRANCH   4   5
HETATM    5  C   UNL     1     -10.078  13.811  68.290  1.00  0.00    -0.239 C  
BRANCH   5   6
HETATM    6  C   UNL     1     -10.386  15.281  68.158  1.00  0.00    -0.242 C  
HETATM    7  C   UNL     1      -9.589  16.130  67.480  1.00  0.00    -0.229 C  
HETATM    8  C   UNL     1     -11.606  15.777  68.865  1.00  0.00    -0.394 C  
HETATM    9  O   UNL     1     -12.237  15.087  69.654  1.00  0.00    -0.300 OA 
BRANCH   7  10
HETATM   10  C   UNL     1      -9.824  17.569  67.372  1.00  0.00    -0.297 A  
HETATM   11  C   UNL     1     -10.424  18.098  66.223  1.00  0.00    -0.374 A  
HETATM   12  C   UNL     1     -10.524  19.480  66.061  1.00  0.00    -0.611 A  
HETATM   13  C   UNL     1     -10.029  20.335  67.045  1.00  0.00    -0.601 A  
HETATM   14  C   UNL     1      -9.451  19.811  68.201  1.00  0.00    -0.454 A  
HETATM   15  C   UNL     1      -9.352  18.430  68.368  1.00  0.00    -0.347 A  
ENDBRANCH   7  10
ENDBRANCH   5   6
ENDBRANCH   4   5
ENDBRANCH   3   4
ENDBRANCH   2   3
TORSDOF 5
ENDMDL
MODEL       25
REMARK 921   NORMALIZED FREE ENERGY PREDICTED BY IDOCK:   -4.66 KCAL/MOL
REMARK 922        TOTAL FREE ENERGY PREDICTED BY IDOCK:   -6.45 KCAL/MOL
REMARK 923 INTER-LIGAND FREE ENERGY PREDICTED BY IDOCK:   -6.00 KCAL/MOL
REMARK 924 INTRA-LIGAND FREE ENERGY PREDICTED BY IDOCK:   -0.45 KCAL/MOL
REMARK 927      BINDING AFFINITY PREDICTED BY RF-SCORE:    0.00 PKD
ROOT
HETATM    1  C   UNL     1     -14.132   8.578  71.637  1.00  0.00    -0.482 C  
HETATM    2  C   UNL     1     -12.841   9.358  71.457  1.00  0.00    -0.442 C  
ENDROOT
BRANCH   2   3
HETATM    3  C   UNL     1     -13.042  10.859  71.676  1.00  0.00    -0.538 C  
BRANCH   3   4
HETATM    4  C   UNL     1     -12.256  11.661  70.634  1.00  0.00    -0.461 C  
BRANCH   4   5
HETATM    5  C   UNL     1     -11.911  10.871  69.363  1.00  0.00    -0.393 C  
BRANCH   5   6
HETATM    6  C   UNL     1     -11.516  11.707  68.172  1.00  0.00    -0.382 C  
HETATM    7  C   UNL     1     -11.994  12.951  67.970  1.00  0.00    -0.323 C  
HETATM    8  C   UNL     1     -10.597  11.071  67.181  1.00  0.00    -0.250 C  
HETATM    9  O   UNL     1     -10.307   9.882  67.219  1.00  0.00    -0.214 OA 
BRANCH   7  10
HETATM   10  C   UNL     1     -11.678  13.773  66.803  1.00  0.00    -0.420 A  
HETATM   11  C   UNL     1     -10.687  14.760  66.888  1.00  0.00    -0.308 A  
HETATM   12  C   UNL     1     -10.480  15.633  65.821  1.00  0.00    -0.383 A  
HETATM   13  C   UNL     1     -11.257  15.524  64.669  1.00  0.00    -0.381 A  
HETATM   14  C   UNL     1     -12.229  14.529  64.572  1.00  0.00    -0.483 A  
HETATM   15  C   UNL     1     -12.437  13.650  65.636  1.00  0.00    -0.540 A  
ENDBRANCH   7  10
ENDBRANCH   5   6
ENDBRANCH   4   5
ENDBRANCH   3   4
ENDBRANCH   2   3
TORSDOF 5
ENDMDL
MODEL       26
REMARK 921   NORMALIZED FREE ENERGY PREDICTED BY IDOCK:   -4.66 KCAL/MOL
REMARK 922        TOTAL FREE ENERGY PREDICTED BY IDOCK:   -6.45 KCAL/MOL
REMARK 923 INTER-LIGAND FREE ENERGY PREDICTED BY IDOCK:   -5.88 KCAL/MOL
REMARK 924 INTRA-LIGAND FREE ENERGY PREDICTED BY IDOCK:   -0.57 KCAL/MOL
REMARK 927      BINDING AFFINITY PREDICTED BY RF-SCORE:    0.00 PKD
ROOT
HETATM    1  C   UNL     1     -12.136  13.834  68.951  1.00  0.00    -0.348 C  
HETATM    2  C   UNL     1     -11.161  12.722  68.599  1.00  0.00    -0.322 C  
ENDROOT
BRANCH   2   3
HETATM    3  C   UNL     1     -11.350  12.227  67.163  1.00  0.00    -0.398 C  
BRANCH   3   4
HETATM    4  C   UNL     1     -11.851  13.364  66.268  1.00  0.00    -0.438 C  
BRANCH   4   5
HETATM    5  C   UNL     1     -10.772  13.973  65.362  1.00  0.00    -0.344 C  
BRANCH   5   6
HETATM    6  C   UNL     1     -10.535  15.450  65.545  1.00  0.00    -0.402 C  
HETATM    7  C   UNL     1      -9.776  15.944  66.543  1.00  0.00    -0.286 C  
HETATM    8  C   UNL     1     -11.229  16.365  64.589  1.00  0.00    -0.192 C  
HETATM    9  O   UNL     1     -12.083  15.974  63.804  1.00  0.00    -0.882 OA 
BRANCH   7  10
HETATM   10  C   UNL     1      -9.564  17.370  66.787  1.00  0.00    -0.283 A  
HETATM   11  C   UNL     1      -8.285  17.922  66.649  1.00  0.00    -0.284 A  
HETATM   12  C   UNL     1      -8.055  19.249  67.012  1.00  0.00    -0.284 A  
HETATM   13  C   UNL     1      -9.100  20.027  67.510  1.00  0.00    -0.457 A  
HETATM   14  C   UNL     1     -10.380  19.486  67.628  1.00  0.00    -0.574 A  
HETATM   15  C   UNL     1     -10.614  18.161  67.262  1.00  0.00    -0.384 A  
ENDBRANCH   7  10
ENDBRANCH   5   6
ENDBRANCH   4   5
ENDBRANCH   3   4
ENDBRANCH   2   3
TORSDOF 5
ENDMDL
MODEL       27
REMARK 921   NORMALIZED FREE ENERGY PREDICTED BY IDOCK:   -4.65 KCAL/MOL
REMARK 922        TOTAL FREE ENERGY PREDICTED BY IDOCK:   -6.44 KCAL/MOL
REMARK 923 INTER-LIGAND FREE ENERGY PREDICTED BY IDOCK:   -6.09 KCAL/MOL
REMARK 924 INTRA-LIGAND FREE ENERGY PREDICTED BY IDOCK:   -0.35 KCAL/MOL
REMARK 927      BINDING AFFINITY PREDICTED BY RF-SCORE:    0.00 PKD
ROOT
HETATM    1  C   UNL     1      -8.883  10.767  65.776  1.00  0.00    -0.201 C  
HETATM    2  C   UNL     1     -10.341  10.689  66.198  1.00  0.00    -0.291 C  
ENDROOT
BRANCH   2   3
HETATM    3  C   UNL     1     -11.165  11.849  65.635  1.00  0.00    -0.360 C  
BRANCH   3   4
HETATM    4  C   UNL     1     -11.865  12.606  66.767  1.00  0.00    -0.440 C  
BRANCH   4   5
HETATM    5  C   UNL     1     -10.919  13.099  67.872  1.00  0.00    -0.271 C  
BRANCH   5   6
HETATM    6  C   UNL     1     -11.592  13.529  69.151  1.00  0.00    -0.359 C  
HETATM    7  C   UNL     1     -11.803  14.824  69.457  1.00  0.00    -0.366 C  
HETATM    8  C   UNL     1     -11.975  12.445  70.104  1.00  0.00    -0.298 C  
HETATM    9  O   UNL     1     -11.619  11.283  69.960  1.00  0.00    -0.297 OA 
BRANCH   7  10
HETATM   10  C   UNL     1     -12.403  15.285  70.709  1.00  0.00    -0.433 A  
HETATM   11  C   UNL     1     -11.587  15.720  71.760  1.00  0.00    -0.541 A  
HETATM   12  C   UNL     1     -12.150  16.030  72.998  1.00  0.00    -0.628 A  
HETATM   13  C   UNL     1     -13.525  15.909  73.188  1.00  0.00    -0.650 A  
HETATM   14  C   UNL     1     -14.344  15.498  72.137  1.00  0.00    -0.598 A  
HETATM   15  C   UNL     1     -13.785  15.191  70.896  1.00  0.00    -0.352 A  
ENDBRANCH   7  10
ENDBRANCH   5   6
ENDBRANCH   4   5
ENDBRANCH   3   4
ENDBRANCH   2   3
TORSDOF 5
ENDMDL
MODEL       28
REMARK 921   NORMALIZED FREE ENERGY PREDICTED BY IDOCK:   -4.65 KCAL/MOL
REMARK 922        TOTAL FREE ENERGY PREDICTED BY IDOCK:   -6.44 KCAL/MOL
REMARK 923 INTER-LIGAND FREE ENERGY PREDICTED BY IDOCK:   -5.94 KCAL/MOL
REMARK 924 INTRA-LIGAND FREE ENERGY PREDICTED BY IDOCK:   -0.49 KCAL/MOL
REMARK 927      BINDING AFFINITY PREDICTED BY RF-SCORE:    0.00 PKD
ROOT
HETATM    1  C   UNL     1     -12.088  12.090  63.656  1.00  0.00    -0.627 C  
HETATM    2  C   UNL     1     -11.661  13.389  64.318  1.00  0.00    -0.442 C  
ENDROOT
BRANCH   2   3
HETATM    3  C   UNL     1     -12.630  13.817  65.422  1.00  0.00    -0.534 C  
BRANCH   3   4
HETATM    4  C   UNL     1     -11.994  13.614  66.800  1.00  0.00    -0.458 C  
BRANCH   4   5
HETATM    5  C   UNL     1     -10.466  13.768  66.816  1.00  0.00    -0.270 C  
BRANCH   5   6
HETATM    6  C   UNL     1      -9.962  15.161  67.097  1.00  0.00    -0.237 C  
HETATM    7  C   UNL     1     -10.770  16.239  67.084  1.00  0.00    -0.247 C  
HETATM    8  C   UNL     1      -8.496  15.307  67.344  1.00  0.00    -0.179 C  
HETATM    9  O   UNL     1      -7.703  14.393  67.162  1.00  0.00    -0.171 OA 
BRANCH   7  10
HETATM   10  C   UNL     1     -10.313  17.612  67.300  1.00  0.00    -0.354 A  
HETATM   11  C   UNL     1     -10.243  18.132  68.599  1.00  0.00    -0.382 A  
HETATM   12  C   UNL     1      -9.939  19.479  68.794  1.00  0.00    -0.547 A  
HETATM   13  C   UNL     1      -9.702  20.307  67.699  1.00  0.00    -0.555 A  
HETATM   14  C   UNL     1      -9.749  19.787  66.405  1.00  0.00    -0.530 A  
HETATM   15  C   UNL     1     -10.049  18.440  66.205  1.00  0.00    -0.409 A  
ENDBRANCH   7  10
ENDBRANCH   5   6
ENDBRANCH   4   5
ENDBRANCH   3   4
ENDBRANCH   2   3
TORSDOF 5
ENDMDL
MODEL       29
REMARK 921   NORMALIZED FREE ENERGY PREDICTED BY IDOCK:   -4.64 KCAL/MOL
REMARK 922        TOTAL FREE ENERGY PREDICTED BY IDOCK:   -6.43 KCAL/MOL
REMARK 923 INTER-LIGAND FREE ENERGY PREDICTED BY IDOCK:   -6.03 KCAL/MOL
REMARK 924 INTRA-LIGAND FREE ENERGY PREDICTED BY IDOCK:   -0.39 KCAL/MOL
REMARK 927      BINDING AFFINITY PREDICTED BY RF-SCORE:    0.00 PKD
ROOT
HETATM    1  C   UNL     1      -9.044  19.951  66.097  1.00  0.00    -0.393 C  
HETATM    2  C   UNL     1     -10.516  19.759  66.423  1.00  0.00    -0.618 C  
ENDROOT
BRANCH   2   3
HETATM    3  C   UNL     1     -10.727  18.737  67.544  1.00  0.00    -0.474 C  
BRANCH   3   4
HETATM    4  C   UNL     1      -9.848  17.504  67.314  1.00  0.00    -0.294 C  
BRANCH   4   5
HETATM    5  C   UNL     1     -10.618  16.176  67.310  1.00  0.00    -0.305 C  
BRANCH   5   6
HETATM    6  C   UNL     1     -10.928  15.606  68.672  1.00  0.00    -0.294 C  
HETATM    7  C   UNL     1     -11.928  16.077  69.442  1.00  0.00    -0.188 C  
HETATM    8  C   UNL     1     -10.033  14.515  69.162  1.00  0.00    -0.106 C  
HETATM    9  O   UNL     1      -8.997  14.204  68.589  1.00  0.00    -0.187 OA 
BRANCH   7  10
HETATM   10  C   UNL     1     -12.228  15.588  70.788  1.00  0.00    -0.450 A  
HETATM   11  C   UNL     1     -13.038  14.459  70.960  1.00  0.00    -0.417 A  
HETATM   12  C   UNL     1     -13.435  14.075  72.241  1.00  0.00    -0.597 A  
HETATM   13  C   UNL     1     -13.025  14.813  73.350  1.00  0.00    -0.550 A  
HETATM   14  C   UNL     1     -12.200  15.925  73.184  1.00  0.00    -0.622 A  
HETATM   15  C   UNL     1     -11.797  16.311  71.905  1.00  0.00    -0.538 A  
ENDBRANCH   7  10
ENDBRANCH   5   6
ENDBRANCH   4   5
ENDBRANCH   3   4
ENDBRANCH   2   3
TORSDOF 5
ENDMDL
MODEL       30
REMARK 921   NORMALIZED FREE ENERGY PREDICTED BY IDOCK:   -4.63 KCAL/MOL
REMARK 922        TOTAL FREE ENERGY PREDICTED BY IDOCK:   -6.41 KCAL/MOL
REMARK 923 INTER-LIGAND FREE ENERGY PREDICTED BY IDOCK:   -5.74 KCAL/MOL
REMARK 924 INTRA-LIGAND FREE ENERGY PREDICTED BY IDOCK:   -0.67 KCAL/MOL
REMARK 927      BINDING AFFINITY PREDICTED BY RF-SCORE:    0.00 PKD
ROOT
HETATM    1  C   UNL     1     -10.640  17.385  68.130  1.00  0.00    -0.376 C  
HETATM    2  C   UNL     1      -9.843  16.396  68.963  1.00  0.00    -0.266 C  
ENDROOT
BRANCH   2   3
HETATM    3  C   UNL     1     -10.697  15.745  70.054  1.00  0.00    -0.347 C  
BRANCH   3   4
HETATM    4  C   UNL     1     -12.003  15.209  69.461  1.00  0.00    -0.351 C  
BRANCH   4   5
HETATM    5  C   UNL     1     -12.102  13.677  69.441  1.00  0.00    -0.364 C  
BRANCH   5   6
HETATM    6  C   UNL     1     -11.888  13.036  68.093  1.00  0.00    -0.381 C  
HETATM    7  C   UNL     1     -11.756  13.756  66.962  1.00  0.00    -0.420 C  
HETATM    8  C   UNL     1     -11.878  11.542  68.055  1.00  0.00    -0.217 C  
HETATM    9  O   UNL     1     -12.198  10.856  69.016  1.00  0.00    -0.462 OA 
BRANCH   7  10
HETATM   10  C   UNL     1     -11.598  13.172  65.630  1.00  0.00    -0.371 A  
HETATM   11  C   UNL     1     -12.727  12.789  64.894  1.00  0.00    -0.479 A  
HETATM   12  C   UNL     1     -12.574  12.109  63.686  1.00  0.00    -0.616 A  
HETATM   13  C   UNL     1     -11.298  11.813  63.209  1.00  0.00    -0.347 A  
HETATM   14  C   UNL     1     -10.172  12.213  63.928  1.00  0.00    -0.426 A  
HETATM   15  C   UNL     1     -10.320  12.896  65.135  1.00  0.00    -0.320 A  
ENDBRANCH   7  10
ENDBRANCH   5   6
ENDBRANCH   4   5
ENDBRANCH   3   4
ENDBRANCH   2   3
TORSDOF 5
ENDMDL
MODEL       31
REMARK 921   NORMALIZED FREE ENERGY PREDICTED BY IDOCK:   -4.63 KCAL/MOL
REMARK 922        TOTAL FREE ENERGY PREDICTED BY IDOCK:   -6.41 KCAL/MOL
REMARK 923 INTER-LIGAND FREE ENERGY PREDICTED BY IDOCK:   -6.01 KCAL/MOL
REMARK 924 INTRA-LIGAND FREE ENERGY PREDICTED BY IDOCK:   -0.40 KCAL/MOL
REMARK 927      BINDING AFFINITY PREDICTED BY RF-SCORE:    0.00 PKD
ROOT
HETATM    1  C   UNL     1     -12.608  11.882  63.394  1.00  0.00    -0.555 C  
HETATM    2  C   UNL     1     -11.169  12.338  63.570  1.00  0.00    -0.535 C  
ENDROOT
BRANCH   2   3
HETATM    3  C   UNL     1     -10.592  11.907  64.922  1.00  0.00    -0.333 C  
BRANCH   3   4
HETATM    4  C   UNL     1     -10.268  13.134  65.779  1.00  0.00    -0.294 C  
BRANCH   4   5
HETATM    5  C   UNL     1     -11.379  14.194  65.804  1.00  0.00    -0.317 C  
BRANCH   5   6
HETATM    6  C   UNL     1     -10.905  15.623  65.876  1.00  0.00    -0.297 C  
HETATM    7  C   UNL     1     -10.300  16.131  66.968  1.00  0.00    -0.290 C  
HETATM    8  C   UNL     1     -11.183  16.483  64.687  1.00  0.00    -0.115 C  
HETATM    9  O   UNL     1     -11.906  16.123  63.767  1.00  0.00    -0.885 OA 
BRANCH   7  10
HETATM   10  C   UNL     1      -9.872  17.524  67.098  1.00  0.00    -0.297 A  
HETATM   11  C   UNL     1     -10.716  18.463  67.704  1.00  0.00    -0.390 A  
HETATM   12  C   UNL     1     -10.368  19.813  67.705  1.00  0.00    -0.573 A  
HETATM   13  C   UNL     1      -9.180  20.229  67.107  1.00  0.00    -0.519 A  
HETATM   14  C   UNL     1      -8.326  19.293  66.523  1.00  0.00    -0.329 A  
HETATM   15  C   UNL     1      -8.669  17.941  66.522  1.00  0.00    -0.278 A  
ENDBRANCH   7  10
ENDBRANCH   5   6
ENDBRANCH   4   5
ENDBRANCH   3   4
ENDBRANCH   2   3
TORSDOF 5
ENDMDL
MODEL       32
REMARK 921   NORMALIZED FREE ENERGY PREDICTED BY IDOCK:   -4.62 KCAL/MOL
REMARK 922        TOTAL FREE ENERGY PREDICTED BY IDOCK:   -6.41 KCAL/MOL
REMARK 923 INTER-LIGAND FREE ENERGY PREDICTED BY IDOCK:   -5.74 KCAL/MOL
REMARK 924 INTRA-LIGAND FREE ENERGY PREDICTED BY IDOCK:   -0.67 KCAL/MOL
REMARK 927      BINDING AFFINITY PREDICTED BY RF-SCORE:    0.00 PKD
ROOT
HETATM    1  C   UNL     1      -9.864  10.424  64.459  1.00  0.00    -0.405 C  
HETATM    2  C   UNL     1     -10.290  11.583  63.574  1.00  0.00    -0.484 C  
ENDROOT
BRANCH   2   3
HETATM    3  C   UNL     1     -11.804  11.808  63.613  1.00  0.00    -0.498 C  
BRANCH   3   4
HETATM    4  C   UNL     1     -12.132  13.279  63.341  1.00  0.00    -0.508 C  
BRANCH   4   5
HETATM    5  C   UNL     1     -12.529  14.076  64.592  1.00  0.00    -0.366 C  
BRANCH   5   6
HETATM    6  C   UNL     1     -11.378  14.585  65.423  1.00  0.00    -0.341 C  
HETATM    7  C   UNL     1     -10.914  13.922  66.500  1.00  0.00    -0.300 C  
HETATM    8  C   UNL     1     -10.797  15.904  65.028  1.00  0.00    -0.426 C  
HETATM    9  O   UNL     1     -11.317  16.630  64.192  1.00  0.00    -1.141 OA 
BRANCH   7  10
HETATM   10  C   UNL     1      -9.837  14.406  67.362  1.00  0.00    -0.224 A  
HETATM   11  C   UNL     1     -10.138  15.132  68.521  1.00  0.00    -0.228 A  
HETATM   12  C   UNL     1      -9.112  15.709  69.269  1.00  0.00    -0.270 A  
HETATM   13  C   UNL     1      -7.786  15.561  68.865  1.00  0.00    -0.182 A  
HETATM   14  C   UNL     1      -7.481  14.819  67.724  1.00  0.00    -0.178 A  
HETATM   15  C   UNL     1      -8.504  14.237  66.976  1.00  0.00    -0.190 A  
ENDBRANCH   7  10
ENDBRANCH   5   6
ENDBRANCH   4   5
ENDBRANCH   3   4
ENDBRANCH   2   3
TORSDOF 5
ENDMDL
MODEL       33
REMARK 921   NORMALIZED FREE ENERGY PREDICTED BY IDOCK:   -4.62 KCAL/MOL
REMARK 922        TOTAL FREE ENERGY PREDICTED BY IDOCK:   -6.40 KCAL/MOL
REMARK 923 INTER-LIGAND FREE ENERGY PREDICTED BY IDOCK:   -5.92 KCAL/MOL
REMARK 924 INTRA-LIGAND FREE ENERGY PREDICTED BY IDOCK:   -0.48 KCAL/MOL
REMARK 927      BINDING AFFINITY PREDICTED BY RF-SCORE:    0.00 PKD
ROOT
HETATM    1  C   UNL     1     -10.619  19.621  67.041  1.00  0.00    -0.602 C  
HETATM    2  C   UNL     1     -10.505  18.350  66.215  1.00  0.00    -0.421 C  
ENDROOT
BRANCH   2   3
HETATM    3  C   UNL     1      -9.265  17.533  66.586  1.00  0.00    -0.277 C  
BRANCH   3   4
HETATM    4  C   UNL     1      -9.342  16.135  65.968  1.00  0.00    -0.368 C  
BRANCH   4   5
HETATM    5  C   UNL     1     -10.772  15.648  65.690  1.00  0.00    -0.376 C  
BRANCH   5   6
HETATM    6  C   UNL     1     -11.334  14.687  66.706  1.00  0.00    -0.360 C  
HETATM    7  C   UNL     1     -10.750  14.473  67.901  1.00  0.00    -0.245 C  
HETATM    8  C   UNL     1     -12.557  13.928  66.306  1.00  0.00    -0.330 C  
HETATM    9  O   UNL     1     -12.996  13.938  65.164  1.00  0.00    -0.744 OA 
BRANCH   7  10
HETATM   10  C   UNL     1     -11.233  13.512  68.892  1.00  0.00    -0.316 A  
HETATM   11  C   UNL     1     -11.005  12.142  68.710  1.00  0.00    -0.274 A  
HETATM   12  C   UNL     1     -11.581  11.218  69.581  1.00  0.00    -0.401 A  
HETATM   13  C   UNL     1     -12.382  11.657  70.634  1.00  0.00    -0.437 A  
HETATM   14  C   UNL     1     -12.593  13.021  70.832  1.00  0.00    -0.364 A  
HETATM   15  C   UNL     1     -12.015  13.949  69.965  1.00  0.00    -0.404 A  
ENDBRANCH   7  10
ENDBRANCH   5   6
ENDBRANCH   4   5
ENDBRANCH   3   4
ENDBRANCH   2   3
TORSDOF 5
ENDMDL
MODEL       34
REMARK 921   NORMALIZED FREE ENERGY PREDICTED BY IDOCK:   -4.61 KCAL/MOL
REMARK 922        TOTAL FREE ENERGY PREDICTED BY IDOCK:   -6.39 KCAL/MOL
REMARK 923 INTER-LIGAND FREE ENERGY PREDICTED BY IDOCK:   -5.97 KCAL/MOL
REMARK 924 INTRA-LIGAND FREE ENERGY PREDICTED BY IDOCK:   -0.42 KCAL/MOL
REMARK 927      BINDING AFFINITY PREDICTED BY RF-SCORE:    0.00 PKD
ROOT
HETATM    1  C   UNL     1     -14.264   8.342  71.783  1.00  0.00    -0.536 C  
HETATM    2  C   UNL     1     -13.297   9.495  71.998  1.00  0.00    -0.535 C  
ENDROOT
BRANCH   2   3
HETATM    3  C   UNL     1     -11.892   9.167  71.487  1.00  0.00    -0.428 C  
BRANCH   3   4
HETATM    4  C   UNL     1     -11.336  10.335  70.668  1.00  0.00    -0.431 C  
BRANCH   4   5
HETATM    5  C   UNL     1     -12.246  11.571  70.637  1.00  0.00    -0.473 C  
BRANCH   5   6
HETATM    6  C   UNL     1     -12.004  12.520  69.491  1.00  0.00    -0.329 C  
HETATM    7  C   UNL     1     -11.550  12.107  68.292  1.00  0.00    -0.382 C  
HETATM    8  C   UNL     1     -12.245  13.970  69.759  1.00  0.00    -0.341 C  
HETATM    9  O   UNL     1     -12.456  14.407  70.883  1.00  0.00    -0.308 OA 
BRANCH   7  10
HETATM   10  C   UNL     1     -11.253  13.000  67.172  1.00  0.00    -0.322 A  
HETATM   11  C   UNL     1     -12.117  13.055  66.071  1.00  0.00    -0.493 A  
HETATM   12  C   UNL     1     -11.765  13.802  64.947  1.00  0.00    -0.378 A  
HETATM   13  C   UNL     1     -10.556  14.496  64.920  1.00  0.00    -0.450 A  
HETATM   14  C   UNL     1      -9.705  14.461  66.023  1.00  0.00    -0.320 A  
HETATM   15  C   UNL     1     -10.054  13.718  67.151  1.00  0.00    -0.241 A  
ENDBRANCH   7  10
ENDBRANCH   5   6
ENDBRANCH   4   5
ENDBRANCH   3   4
ENDBRANCH   2   3
TORSDOF 5
ENDMDL
MODEL       35
REMARK 921   NORMALIZED FREE ENERGY PREDICTED BY IDOCK:   -4.59 KCAL/MOL
REMARK 922        TOTAL FREE ENERGY PREDICTED BY IDOCK:   -6.37 KCAL/MOL
REMARK 923 INTER-LIGAND FREE ENERGY PREDICTED BY IDOCK:   -6.00 KCAL/MOL
REMARK 924 INTRA-LIGAND FREE ENERGY PREDICTED BY IDOCK:   -0.37 KCAL/MOL
REMARK 927      BINDING AFFINITY PREDICTED BY RF-SCORE:    0.00 PKD
ROOT
HETATM    1  C   UNL     1     -10.265   9.115  67.783  1.00  0.00    -0.278 C  
HETATM    2  C   UNL     1     -10.965  10.425  68.107  1.00  0.00    -0.334 C  
ENDROOT
BRANCH   2   3
HETATM    3  C   UNL     1     -10.644  11.516  67.083  1.00  0.00    -0.273 C  
BRANCH   3   4
HETATM    4  C   UNL     1     -11.760  12.564  67.052  1.00  0.00    -0.437 C  
BRANCH   4   5
HETATM    5  C   UNL     1     -11.268  14.010  67.208  1.00  0.00    -0.328 C  
BRANCH   5   6
HETATM    6  C   UNL     1     -11.570  14.654  68.537  1.00  0.00    -0.346 C  
HETATM    7  C   UNL     1     -12.075  13.963  69.578  1.00  0.00    -0.393 C  
HETATM    8  C   UNL     1     -11.331  16.125  68.640  1.00  0.00    -0.365 C  
HETATM    9  O   UNL     1     -11.072  16.821  67.667  1.00  0.00    -0.235 OA 
BRANCH   7  10
HETATM   10  C   UNL     1     -12.430  14.559  70.866  1.00  0.00    -0.415 A  
HETATM   11  C   UNL     1     -13.776  14.758  71.199  1.00  0.00    -0.413 A  
HETATM   12  C   UNL     1     -14.111  15.448  72.364  1.00  0.00    -0.645 A  
HETATM   13  C   UNL     1     -13.107  15.938  73.197  1.00  0.00    -0.673 A  
HETATM   14  C   UNL     1     -11.766  15.722  72.880  1.00  0.00    -0.492 A  
HETATM   15  C   UNL     1     -11.427  15.029  71.718  1.00  0.00    -0.376 A  
ENDBRANCH   7  10
ENDBRANCH   5   6
ENDBRANCH   4   5
ENDBRANCH   3   4
ENDBRANCH   2   3
TORSDOF 5
ENDMDL
MODEL       36
REMARK 921   NORMALIZED FREE ENERGY PREDICTED BY IDOCK:   -4.57 KCAL/MOL
REMARK 922        TOTAL FREE ENERGY PREDICTED BY IDOCK:   -6.34 KCAL/MOL
REMARK 923 INTER-LIGAND FREE ENERGY PREDICTED BY IDOCK:   -6.06 KCAL/MOL
REMARK 924 INTRA-LIGAND FREE ENERGY PREDICTED BY IDOCK:   -0.28 KCAL/MOL
REMARK 927      BINDING AFFINITY PREDICTED BY RF-SCORE:    0.00 PKD
ROOT
HETATM    1  C   UNL     1     -13.946   8.713  71.931  1.00  0.00    -0.501 C  
HETATM    2  C   UNL     1     -13.070   9.954  71.968  1.00  0.00    -0.545 C  
ENDROOT
BRANCH   2   3
HETATM    3  C   UNL     1     -11.729   9.733  71.263  1.00  0.00    -0.472 C  
BRANCH   3   4
HETATM    4  C   UNL     1     -11.620  10.633  70.029  1.00  0.00    -0.406 C  
BRANCH   4   5
HETATM    5  C   UNL     1     -12.041  12.089  70.274  1.00  0.00    -0.395 C  
BRANCH   5   6
HETATM    6  C   UNL     1     -11.882  13.013  69.093  1.00  0.00    -0.360 C  
HETATM    7  C   UNL     1     -11.632  12.560  67.849  1.00  0.00    -0.403 C  
HETATM    8  C   UNL     1     -11.965  14.478  69.372  1.00  0.00    -0.322 C  
HETATM    9  O   UNL     1     -11.983  14.934  70.508  1.00  0.00    -0.270 OA 
BRANCH   7  10
HETATM   10  C   UNL     1     -11.420  13.424  66.687  1.00  0.00    -0.376 A  
HETATM   11  C   UNL     1     -10.254  14.193  66.589  1.00  0.00    -0.270 A  
HETATM   12  C   UNL     1     -10.114  15.117  65.553  1.00  0.00    -0.402 A  
HETATM   13  C   UNL     1     -11.133  15.272  64.614  1.00  0.00    -0.346 A  
HETATM   14  C   UNL     1     -12.286  14.491  64.697  1.00  0.00    -0.474 A  
HETATM   15  C   UNL     1     -12.428  13.564  65.729  1.00  0.00    -0.514 A  
ENDBRANCH   7  10
ENDBRANCH   5   6
ENDBRANCH   4   5
ENDBRANCH   3   4
ENDBRANCH   2   3
TORSDOF 5
ENDMDL
MODEL       37
REMARK 921   NORMALIZED FREE ENERGY PREDICTED BY IDOCK:   -4.57 KCAL/MOL
REMARK 922        TOTAL FREE ENERGY PREDICTED BY IDOCK:   -6.34 KCAL/MOL
REMARK 923 INTER-LIGAND FREE ENERGY PREDICTED BY IDOCK:   -6.04 KCAL/MOL
REMARK 924 INTRA-LIGAND FREE ENERGY PREDICTED BY IDOCK:   -0.31 KCAL/MOL
REMARK 927      BINDING AFFINITY PREDICTED BY RF-SCORE:    0.00 PKD
ROOT
HETATM    1  C   UNL     1     -11.025  11.675  63.598  1.00  0.00    -0.507 C  
HETATM    2  C   UNL     1     -11.244  12.959  64.381  1.00  0.00    -0.389 C  
ENDROOT
BRANCH   2   3
HETATM    3  C   UNL     1     -12.426  12.848  65.347  1.00  0.00    -0.511 C  
BRANCH   3   4
HETATM    4  C   UNL     1     -12.069  13.467  66.701  1.00  0.00    -0.447 C  
BRANCH   4   5
HETATM    5  C   UNL     1     -10.864  12.815  67.393  1.00  0.00    -0.265 C  
BRANCH   5   6
HETATM    6  C   UNL     1     -11.187  11.633  68.272  1.00  0.00    -0.320 C  
HETATM    7  C   UNL     1     -11.565  11.770  69.558  1.00  0.00    -0.398 C  
HETATM    8  C   UNL     1     -11.020  10.279  67.664  1.00  0.00    -0.294 C  
HETATM    9  O   UNL     1     -10.486  10.105  66.577  1.00  0.00    -0.222 OA 
BRANCH   7  10
HETATM   10  C   UNL     1     -11.837  10.650  70.459  1.00  0.00    -0.453 A  
HETATM   11  C   UNL     1     -13.073  10.558  71.111  1.00  0.00    -0.450 A  
HETATM   12  C   UNL     1     -13.282   9.569  72.071  1.00  0.00    -0.539 A  
HETATM   13  C   UNL     1     -12.263   8.670  72.381  1.00  0.00    -0.419 A  
HETATM   14  C   UNL     1     -11.039   8.744  71.717  1.00  0.00    -0.417 A  
HETATM   15  C   UNL     1     -10.826   9.730  70.753  1.00  0.00    -0.403 A  
ENDBRANCH   7  10
ENDBRANCH   5   6
ENDBRANCH   4   5
ENDBRANCH   3   4
ENDBRANCH   2   3
TORSDOF 5
ENDMDL
MODEL       38
REMARK 921   NORMALIZED FREE ENERGY PREDICTED BY IDOCK:   -4.57 KCAL/MOL
REMARK 922        TOTAL FREE ENERGY PREDICTED BY IDOCK:   -6.34 KCAL/MOL
REMARK 923 INTER-LIGAND FREE ENERGY PREDICTED BY IDOCK:   -5.70 KCAL/MOL
REMARK 924 INTRA-LIGAND FREE ENERGY PREDICTED BY IDOCK:   -0.64 KCAL/MOL
REMARK 927      BINDING AFFINITY PREDICTED BY RF-SCORE:    0.00 PKD
ROOT
HETATM    1  C   UNL     1     -11.061   6.221  69.220  1.00  0.00    -0.461 C  
HETATM    2  C   UNL     1     -10.386   5.450  70.342  1.00  0.00    -0.353 C  
ENDROOT
BRANCH   2   3
HETATM    3  C   UNL     1     -11.070   5.684  71.691  1.00  0.00    -0.249 C  
BRANCH   3   4
HETATM    4  C   UNL     1     -12.156   6.756  71.561  1.00  0.00    -0.410 C  
BRANCH   4   5
HETATM    5  C   UNL     1     -11.886   8.028  72.376  1.00  0.00    -0.429 C  
BRANCH   5   6
HETATM    6  C   UNL     1     -11.537   9.251  71.566  1.00  0.00    -0.452 C  
HETATM    7  C   UNL     1     -12.473  10.094  71.089  1.00  0.00    -0.490 C  
HETATM    8  C   UNL     1     -10.089   9.465  71.265  1.00  0.00    -0.238 C  
HETATM    9  O   UNL     1      -9.235   8.621  71.500  1.00  0.00    -0.200 OA 
BRANCH   7  10
HETATM   10  C   UNL     1     -12.180  11.261  70.257  1.00  0.00    -0.428 A  
HETATM   11  C   UNL     1     -12.312  12.551  70.786  1.00  0.00    -0.376 A  
HETATM   12  C   UNL     1     -12.166  13.663  69.956  1.00  0.00    -0.395 A  
HETATM   13  C   UNL     1     -11.887  13.491  68.601  1.00  0.00    -0.404 A  
HETATM   14  C   UNL     1     -11.733  12.208  68.076  1.00  0.00    -0.409 A  
HETATM   15  C   UNL     1     -11.875  11.093  68.903  1.00  0.00    -0.406 A  
ENDBRANCH   7  10
ENDBRANCH   5   6
ENDBRANCH   4   5
ENDBRANCH   3   4
ENDBRANCH   2   3
TORSDOF 5
ENDMDL
MODEL       39
REMARK 921   NORMALIZED FREE ENERGY PREDICTED BY IDOCK:   -4.57 KCAL/MOL
REMARK 922        TOTAL FREE ENERGY PREDICTED BY IDOCK:   -6.33 KCAL/MOL
REMARK 923 INTER-LIGAND FREE ENERGY PREDICTED BY IDOCK:   -5.61 KCAL/MOL
REMARK 924 INTRA-LIGAND FREE ENERGY PREDICTED BY IDOCK:   -0.72 KCAL/MOL
REMARK 927      BINDING AFFINITY PREDICTED BY RF-SCORE:    0.00 PKD
ROOT
HETATM    1  C   UNL     1      -9.556  10.672  65.250  1.00  0.00    -0.293 C  
HETATM    2  C   UNL     1     -10.523  10.943  64.109  1.00  0.00    -0.397 C  
ENDROOT
BRANCH   2   3
HETATM    3  C   UNL     1     -10.541  12.421  63.711  1.00  0.00    -0.486 C  
BRANCH   3   4
HETATM    4  C   UNL     1     -11.978  12.951  63.693  1.00  0.00    -0.613 C  
BRANCH   4   5
HETATM    5  C   UNL     1     -12.631  13.043  65.079  1.00  0.00    -0.515 C  
BRANCH   5   6
HETATM    6  C   UNL     1     -11.785  13.685  66.149  1.00  0.00    -0.391 C  
HETATM    7  C   UNL     1     -11.154  14.862  65.964  1.00  0.00    -0.334 C  
HETATM    8  C   UNL     1     -11.629  12.927  67.426  1.00  0.00    -0.360 C  
HETATM    9  O   UNL     1     -12.011  11.771  67.558  1.00  0.00    -0.607 OA 
BRANCH   7  10
HETATM   10  C   UNL     1     -10.283  15.492  66.955  1.00  0.00    -0.271 A  
HETATM   11  C   UNL     1     -10.817  16.390  67.888  1.00  0.00    -0.328 A  
HETATM   12  C   UNL     1      -9.968  17.093  68.743  1.00  0.00    -0.315 A  
HETATM   13  C   UNL     1      -8.589  16.901  68.671  1.00  0.00    -0.267 A  
HETATM   14  C   UNL     1      -8.056  15.991  67.759  1.00  0.00    -0.154 A  
HETATM   15  C   UNL     1      -8.901  15.282  66.905  1.00  0.00    -0.281 A  
ENDBRANCH   7  10
ENDBRANCH   5   6
ENDBRANCH   4   5
ENDBRANCH   3   4
ENDBRANCH   2   3
TORSDOF 5
ENDMDL
MODEL       40
REMARK 921   NORMALIZED FREE ENERGY PREDICTED BY IDOCK:   -4.55 KCAL/MOL
REMARK 922        TOTAL FREE ENERGY PREDICTED BY IDOCK:   -6.31 KCAL/MOL
REMARK 923 INTER-LIGAND FREE ENERGY PREDICTED BY IDOCK:   -5.98 KCAL/MOL
REMARK 924 INTRA-LIGAND FREE ENERGY PREDICTED BY IDOCK:   -0.34 KCAL/MOL
REMARK 927      BINDING AFFINITY PREDICTED BY RF-SCORE:    0.00 PKD
ROOT
HETATM    1  C   UNL     1     -11.998  10.693  70.887  1.00  0.00    -0.469 C  
HETATM    2  C   UNL     1     -12.265  12.144  70.521  1.00  0.00    -0.392 C  
ENDROOT
BRANCH   2   3
HETATM    3  C   UNL     1     -11.626  12.524  69.183  1.00  0.00    -0.375 C  
BRANCH   3   4
HETATM    4  C   UNL     1     -11.738  14.033  68.948  1.00  0.00    -0.375 C  
BRANCH   4   5
HETATM    5  C   UNL     1     -11.710  14.443  67.469  1.00  0.00    -0.416 C  
BRANCH   5   6
HETATM    6  C   UNL     1     -10.895  15.672  67.156  1.00  0.00    -0.297 C  
HETATM    7  C   UNL     1     -10.758  16.691  68.028  1.00  0.00    -0.350 C  
HETATM    8  C   UNL     1     -10.275  15.739  65.798  1.00  0.00    -0.370 C  
HETATM    9  O   UNL     1     -10.543  14.940  64.911  1.00  0.00    -0.414 OA 
BRANCH   7  10
HETATM   10  C   UNL     1     -10.020  17.922  67.744  1.00  0.00    -0.331 A  
HETATM   11  C   UNL     1      -8.714  18.083  68.223  1.00  0.00    -0.289 A  
HETATM   12  C   UNL     1      -8.062  19.306  68.071  1.00  0.00    -0.341 A  
HETATM   13  C   UNL     1      -8.708  20.368  67.440  1.00  0.00    -0.415 A  
HETATM   14  C   UNL     1     -10.000  20.204  66.941  1.00  0.00    -0.600 A  
HETATM   15  C   UNL     1     -10.655  18.981  67.088  1.00  0.00    -0.545 A  
ENDBRANCH   7  10
ENDBRANCH   5   6
ENDBRANCH   4   5
ENDBRANCH   3   4
ENDBRANCH   2   3
TORSDOF 5
ENDMDL
MODEL       41
REMARK 921   NORMALIZED FREE ENERGY PREDICTED BY IDOCK:   -4.54 KCAL/MOL
REMARK 922        TOTAL FREE ENERGY PREDICTED BY IDOCK:   -6.30 KCAL/MOL
REMARK 923 INTER-LIGAND FREE ENERGY PREDICTED BY IDOCK:   -6.00 KCAL/MOL
REMARK 924 INTRA-LIGAND FREE ENERGY PREDICTED BY IDOCK:   -0.31 KCAL/MOL
REMARK 927      BINDING AFFINITY PREDICTED BY RF-SCORE:    0.00 PKD
ROOT
HETATM    1  C   UNL     1     -11.994  10.697  70.891  1.00  0.00    -0.469 C  
HETATM    2  C   UNL     1     -12.252  12.156  70.555  1.00  0.00    -0.392 C  
ENDROOT
BRANCH   2   3
HETATM    3  C   UNL     1     -11.604  12.564  69.229  1.00  0.00    -0.378 C  
BRANCH   3   4
HETATM    4  C   UNL     1     -11.696  14.079  69.034  1.00  0.00    -0.368 C  
BRANCH   4   5
HETATM    5  C   UNL     1     -11.642  14.529  67.567  1.00  0.00    -0.403 C  
BRANCH   5   6
HETATM    6  C   UNL     1     -10.874  15.800  67.310  1.00  0.00    -0.298 C  
HETATM    7  C   UNL     1     -10.808  16.801  68.210  1.00  0.00    -0.366 C  
HETATM    8  C   UNL     1     -10.221  15.930  65.973  1.00  0.00    -0.334 C  
HETATM    9  O   UNL     1     -10.427  15.144  65.058  1.00  0.00    -0.398 OA 
BRANCH   7  10
HETATM   10  C   UNL     1     -10.118  18.070  67.980  1.00  0.00    -0.370 A  
HETATM   11  C   UNL     1     -10.774  19.114  67.317  1.00  0.00    -0.585 A  
HETATM   12  C   UNL     1     -10.075  20.272  66.977  1.00  0.00    -0.567 A  
HETATM   13  C   UNL     1      -8.724  20.391  67.299  1.00  0.00    -0.429 A  
HETATM   14  C   UNL     1      -8.073  19.362  67.980  1.00  0.00    -0.345 A  
HETATM   15  C   UNL     1      -8.770  18.204  68.325  1.00  0.00    -0.294 A  
ENDBRANCH   7  10
ENDBRANCH   5   6
ENDBRANCH   4   5
ENDBRANCH   3   4
ENDBRANCH   2   3
TORSDOF 5
ENDMDL
MODEL       42
REMARK 921   NORMALIZED FREE ENERGY PREDICTED BY IDOCK:   -4.53 KCAL/MOL
REMARK 922        TOTAL FREE ENERGY PREDICTED BY IDOCK:   -6.29 KCAL/MOL
REMARK 923 INTER-LIGAND FREE ENERGY PREDICTED BY IDOCK:   -5.37 KCAL/MOL
REMARK 924 INTRA-LIGAND FREE ENERGY PREDICTED BY IDOCK:   -0.92 KCAL/MOL
REMARK 927      BINDING AFFINITY PREDICTED BY RF-SCORE:    0.00 PKD
ROOT
HETATM    1  C   UNL     1     -10.343  16.167  66.203  1.00  0.00    -0.350 C  
HETATM    2  C   UNL     1     -10.825  15.505  64.923  1.00  0.00    -0.447 C  
ENDROOT
BRANCH   2   3
HETATM    3  C   UNL     1     -10.524  14.004  64.904  1.00  0.00    -0.453 C  
BRANCH   3   4
HETATM    4  C   UNL     1     -11.776  13.203  65.273  1.00  0.00    -0.375 C  
BRANCH   4   5
HETATM    5  C   UNL     1     -11.546  12.144  66.360  1.00  0.00    -0.429 C  
BRANCH   5   6
HETATM    6  C   UNL     1     -11.332  12.684  67.752  1.00  0.00    -0.349 C  
HETATM    7  C   UNL     1     -12.151  13.598  68.307  1.00  0.00    -0.306 C  
HETATM    8  C   UNL     1     -10.124  12.194  68.483  1.00  0.00    -0.187 C  
HETATM    9  O   UNL     1      -9.251  11.529  67.942  1.00  0.00    -0.157 OA 
BRANCH   7  10
HETATM   10  C   UNL     1     -11.949  14.186  69.631  1.00  0.00    -0.389 A  
HETATM   11  C   UNL     1     -12.510  13.577  70.761  1.00  0.00    -0.428 A  
HETATM   12  C   UNL     1     -12.434  14.209  72.003  1.00  0.00    -0.299 A  
HETATM   13  C   UNL     1     -11.797  15.443  72.120  1.00  0.00    -0.536 A  
HETATM   14  C   UNL     1     -11.218  16.041  71.001  1.00  0.00    -0.347 A  
HETATM   15  C   UNL     1     -11.289  15.412  69.758  1.00  0.00    -0.317 A  
ENDBRANCH   7  10
ENDBRANCH   5   6
ENDBRANCH   4   5
ENDBRANCH   3   4
ENDBRANCH   2   3
TORSDOF 5
ENDMDL
MODEL       43
REMARK 921   NORMALIZED FREE ENERGY PREDICTED BY IDOCK:   -4.52 KCAL/MOL
REMARK 922        TOTAL FREE ENERGY PREDICTED BY IDOCK:   -6.27 KCAL/MOL
REMARK 923 INTER-LIGAND FREE ENERGY PREDICTED BY IDOCK:   -5.52 KCAL/MOL
REMARK 924 INTRA-LIGAND FREE ENERGY PREDICTED BY IDOCK:   -0.75 KCAL/MOL
REMARK 927      BINDING AFFINITY PREDICTED BY RF-SCORE:    0.00 PKD
ROOT
HETATM    1  C   UNL     1     -10.518   9.890  67.242  1.00  0.00    -0.319 C  
HETATM    2  C   UNL     1      -9.528   9.297  66.254  1.00  0.00    -0.284 C  
ENDROOT
BRANCH   2   3
HETATM    3  C   UNL     1      -9.072  10.323  65.213  1.00  0.00    -0.228 C  
BRANCH   3   4
HETATM    4  C   UNL     1     -10.243  10.729  64.314  1.00  0.00    -0.422 C  
BRANCH   4   5
HETATM    5  C   UNL     1     -10.406  12.245  64.139  1.00  0.00    -0.396 C  
BRANCH   5   6
HETATM    6  C   UNL     1     -11.011  12.968  65.316  1.00  0.00    -0.307 C  
HETATM    7  C   UNL     1     -10.267  13.441  66.336  1.00  0.00    -0.293 C  
HETATM    8  C   UNL     1     -12.499  13.098  65.330  1.00  0.00    -0.481 C  
HETATM    9  O   UNL     1     -13.220  12.508  64.537  1.00  0.00    -0.832 OA 
BRANCH   7  10
HETATM   10  C   UNL     1     -10.819  14.101  67.518  1.00  0.00    -0.280 A  
HETATM   11  C   UNL     1     -11.306  13.335  68.586  1.00  0.00    -0.324 A  
HETATM   12  C   UNL     1     -11.955  13.959  69.651  1.00  0.00    -0.399 A  
HETATM   13  C   UNL     1     -12.117  15.343  69.656  1.00  0.00    -0.354 A  
HETATM   14  C   UNL     1     -11.614  16.110  68.606  1.00  0.00    -0.283 A  
HETATM   15  C   UNL     1     -10.961  15.491  67.540  1.00  0.00    -0.316 A  
ENDBRANCH   7  10
ENDBRANCH   5   6
ENDBRANCH   4   5
ENDBRANCH   3   4
ENDBRANCH   2   3
TORSDOF 5
ENDMDL
MODEL       44
REMARK 921   NORMALIZED FREE ENERGY PREDICTED BY IDOCK:   -4.49 KCAL/MOL
REMARK 922        TOTAL FREE ENERGY PREDICTED BY IDOCK:   -6.23 KCAL/MOL
REMARK 923 INTER-LIGAND FREE ENERGY PREDICTED BY IDOCK:   -5.43 KCAL/MOL
REMARK 924 INTRA-LIGAND FREE ENERGY PREDICTED BY IDOCK:   -0.80 KCAL/MOL
REMARK 927      BINDING AFFINITY PREDICTED BY RF-SCORE:    0.00 PKD
ROOT
HETATM    1  C   UNL     1     -10.508  19.585  66.362  1.00  0.00    -0.597 C  
HETATM    2  C   UNL     1      -9.002  19.727  66.215  1.00  0.00    -0.431 C  
ENDROOT
BRANCH   2   3
HETATM    3  C   UNL     1      -8.262  19.359  67.504  1.00  0.00    -0.321 C  
BRANCH   3   4
HETATM    4  C   UNL     1      -7.530  18.025  67.336  1.00  0.00    -0.212 C  
BRANCH   4   5
HETATM    5  C   UNL     1      -8.071  16.894  68.222  1.00  0.00    -0.217 C  
BRANCH   5   6
HETATM    6  C   UNL     1      -9.209  16.100  67.631  1.00  0.00    -0.205 C  
HETATM    7  C   UNL     1      -9.060  15.327  66.537  1.00  0.00    -0.334 C  
HETATM    8  C   UNL     1     -10.542  16.248  68.288  1.00  0.00    -0.300 C  
HETATM    9  O   UNL     1     -10.765  17.090  69.147  1.00  0.00    -0.324 OA 
BRANCH   7  10
HETATM   10  C   UNL     1     -10.148  14.584  65.902  1.00  0.00    -0.346 A  
HETATM   11  C   UNL     1     -10.982  15.218  64.973  1.00  0.00    -0.450 A  
HETATM   12  C   UNL     1     -12.100  14.552  64.471  1.00  0.00    -0.501 A  
HETATM   13  C   UNL     1     -12.385  13.254  64.891  1.00  0.00    -0.476 A  
HETATM   14  C   UNL     1     -11.544  12.611  65.798  1.00  0.00    -0.431 A  
HETATM   15  C   UNL     1     -10.423  13.273  66.300  1.00  0.00    -0.289 A  
ENDBRANCH   7  10
ENDBRANCH   5   6
ENDBRANCH   4   5
ENDBRANCH   3   4
ENDBRANCH   2   3
TORSDOF 5
ENDMDL
MODEL       45
REMARK 921   NORMALIZED FREE ENERGY PREDICTED BY IDOCK:   -4.48 KCAL/MOL
REMARK 922        TOTAL FREE ENERGY PREDICTED BY IDOCK:   -6.22 KCAL/MOL
REMARK 923 INTER-LIGAND FREE ENERGY PREDICTED BY IDOCK:   -6.03 KCAL/MOL
REMARK 924 INTRA-LIGAND FREE ENERGY PREDICTED BY IDOCK:   -0.20 KCAL/MOL
REMARK 927      BINDING AFFINITY PREDICTED BY RF-SCORE:    0.00 PKD
ROOT
HETATM    1  C   UNL     1     -10.381  11.364  63.867  1.00  0.00    -0.434 C  
HETATM    2  C   UNL     1     -11.382  12.487  63.648  1.00  0.00    -0.555 C  
ENDROOT
BRANCH   2   3
HETATM    3  C   UNL     1     -12.015  12.956  64.960  1.00  0.00    -0.445 C  
BRANCH   3   4
HETATM    4  C   UNL     1     -11.125  12.576  66.147  1.00  0.00    -0.336 C  
BRANCH   4   5
HETATM    5  C   UNL     1     -10.408  13.766  66.801  1.00  0.00    -0.272 C  
BRANCH   5   6
HETATM    6  C   UNL     1     -10.793  14.043  68.232  1.00  0.00    -0.268 C  
HETATM    7  C   UNL     1     -11.976  13.659  68.751  1.00  0.00    -0.394 C  
HETATM    8  C   UNL     1      -9.814  14.820  69.052  1.00  0.00    -0.206 C  
HETATM    9  O   UNL     1      -8.830  15.361  68.566  1.00  0.00    -0.170 OA 
BRANCH   7  10
HETATM   10  C   UNL     1     -12.409  13.953  70.117  1.00  0.00    -0.400 A  
HETATM   11  C   UNL     1     -12.745  12.908  70.987  1.00  0.00    -0.338 A  
HETATM   12  C   UNL     1     -13.287  13.192  72.240  1.00  0.00    -0.621 A  
HETATM   13  C   UNL     1     -13.491  14.515  72.629  1.00  0.00    -0.590 A  
HETATM   14  C   UNL     1     -13.136  15.558  71.775  1.00  0.00    -0.548 A  
HETATM   15  C   UNL     1     -12.590  15.279  70.521  1.00  0.00    -0.450 A  
ENDBRANCH   7  10
ENDBRANCH   5   6
ENDBRANCH   4   5
ENDBRANCH   3   4
ENDBRANCH   2   3
TORSDOF 5
ENDMDL
MODEL       46
REMARK 921   NORMALIZED FREE ENERGY PREDICTED BY IDOCK:   -4.44 KCAL/MOL
REMARK 922        TOTAL FREE ENERGY PREDICTED BY IDOCK:   -6.16 KCAL/MOL
REMARK 923 INTER-LIGAND FREE ENERGY PREDICTED BY IDOCK:   -5.80 KCAL/MOL
REMARK 924 INTRA-LIGAND FREE ENERGY PREDICTED BY IDOCK:   -0.37 KCAL/MOL
REMARK 927      BINDING AFFINITY PREDICTED BY RF-SCORE:    0.00 PKD
ROOT
HETATM    1  C   UNL     1     -11.798   9.780  71.589  1.00  0.00    -0.429 C  
HETATM    2  C   UNL     1     -12.988  10.662  71.927  1.00  0.00    -0.542 C  
ENDROOT
BRANCH   2   3
HETATM    3  C   UNL     1     -12.875  12.048  71.288  1.00  0.00    -0.364 C  
BRANCH   3   4
HETATM    4  C   UNL     1     -13.480  13.112  72.209  1.00  0.00    -0.665 C  
BRANCH   4   5
HETATM    5  C   UNL     1     -13.771  14.451  71.516  1.00  0.00    -0.458 C  
BRANCH   5   6
HETATM    6  C   UNL     1     -12.554  15.253  71.129  1.00  0.00    -0.457 C  
HETATM    7  C   UNL     1     -11.947  15.115  69.934  1.00  0.00    -0.372 C  
HETATM    8  C   UNL     1     -12.010  16.187  72.160  1.00  0.00    -0.537 C  
HETATM    9  O   UNL     1     -12.403  16.191  73.319  1.00  0.00    -0.464 OA 
BRANCH   7  10
HETATM   10  C   UNL     1     -10.736  15.835  69.539  1.00  0.00    -0.278 A  
HETATM   11  C   UNL     1     -10.836  17.088  68.921  1.00  0.00    -0.228 A  
HETATM   12  C   UNL     1      -9.692  17.712  68.423  1.00  0.00    -0.321 A  
HETATM   13  C   UNL     1      -8.450  17.090  68.541  1.00  0.00    -0.257 A  
HETATM   14  C   UNL     1      -8.345  15.853  69.176  1.00  0.00    -0.253 A  
HETATM   15  C   UNL     1      -9.485  15.227  69.679  1.00  0.00    -0.171 A  
ENDBRANCH   7  10
ENDBRANCH   5   6
ENDBRANCH   4   5
ENDBRANCH   3   4
ENDBRANCH   2   3
TORSDOF 5
ENDMDL
MODEL       47
REMARK 921   NORMALIZED FREE ENERGY PREDICTED BY IDOCK:   -4.42 KCAL/MOL
REMARK 922        TOTAL FREE ENERGY PREDICTED BY IDOCK:   -6.15 KCAL/MOL
REMARK 923 INTER-LIGAND FREE ENERGY PREDICTED BY IDOCK:   -5.95 KCAL/MOL
REMARK 924 INTRA-LIGAND FREE ENERGY PREDICTED BY IDOCK:   -0.20 KCAL/MOL
REMARK 927      BINDING AFFINITY PREDICTED BY RF-SCORE:    0.00 PKD
ROOT
HETATM    1  C   UNL     1      -8.784   7.627  72.256  1.00  0.00    -0.160 C  
HETATM    2  C   UNL     1     -10.054   8.409  71.964  1.00  0.00    -0.364 C  
ENDROOT
BRANCH   2   3
HETATM    3  C   UNL     1     -10.318   8.534  70.461  1.00  0.00    -0.226 C  
BRANCH   3   4
HETATM    4  C   UNL     1     -10.337  10.006  70.042  1.00  0.00    -0.323 C  
BRANCH   4   5
HETATM    5  C   UNL     1     -11.721  10.525  69.630  1.00  0.00    -0.328 C  
BRANCH   5   6
HETATM    6  C   UNL     1     -12.278  11.631  70.491  1.00  0.00    -0.451 C  
HETATM    7  C   UNL     1     -12.101  12.934  70.200  1.00  0.00    -0.373 C  
HETATM    8  C   UNL     1     -13.004  11.215  71.729  1.00  0.00    -0.421 C  
HETATM    9  O   UNL     1     -13.009  10.061  72.135  1.00  0.00    -0.418 OA 
BRANCH   7  10
HETATM   10  C   UNL     1     -12.579  14.036  71.035  1.00  0.00    -0.437 A  
HETATM   11  C   UNL     1     -11.665  14.832  71.735  1.00  0.00    -0.315 A  
HETATM   12  C   UNL     1     -12.125  15.792  72.636  1.00  0.00    -0.591 A  
HETATM   13  C   UNL     1     -13.494  15.961  72.838  1.00  0.00    -0.637 A  
HETATM   14  C   UNL     1     -14.407  15.185  72.125  1.00  0.00    -0.647 A  
HETATM   15  C   UNL     1     -13.951  14.226  71.220  1.00  0.00    -0.257 A  
ENDBRANCH   7  10
ENDBRANCH   5   6
ENDBRANCH   4   5
ENDBRANCH   3   4
ENDBRANCH   2   3
TORSDOF 5
ENDMDL
MODEL       48
REMARK 921   NORMALIZED FREE ENERGY PREDICTED BY IDOCK:   -4.42 KCAL/MOL
REMARK 922        TOTAL FREE ENERGY PREDICTED BY IDOCK:   -6.14 KCAL/MOL
REMARK 923 INTER-LIGAND FREE ENERGY PREDICTED BY IDOCK:   -5.80 KCAL/MOL
REMARK 924 INTRA-LIGAND FREE ENERGY PREDICTED BY IDOCK:   -0.34 KCAL/MOL
REMARK 927      BINDING AFFINITY PREDICTED BY RF-SCORE:    0.00 PKD
ROOT
HETATM    1  C   UNL     1     -11.811  10.729  69.107  1.00  0.00    -0.347 C  
HETATM    2  C   UNL     1     -11.211  11.022  67.742  1.00  0.00    -0.374 C  
ENDROOT
BRANCH   2   3
HETATM    3  C   UNL     1     -11.761  12.317  67.139  1.00  0.00    -0.396 C  
BRANCH   3   4
HETATM    4  C   UNL     1     -10.614  13.220  66.675  1.00  0.00    -0.283 C  
BRANCH   4   5
HETATM    5  C   UNL     1     -10.965  14.117  65.480  1.00  0.00    -0.310 C  
BRANCH   5   6
HETATM    6  C   UNL     1     -10.704  15.588  65.680  1.00  0.00    -0.378 C  
HETATM    7  C   UNL     1      -9.992  16.062  66.721  1.00  0.00    -0.265 C  
HETATM    8  C   UNL     1     -11.322  16.520  64.689  1.00  0.00    -0.069 C  
HETATM    9  O   UNL     1     -12.139  16.150  63.856  1.00  0.00    -0.956 OA 
BRANCH   7  10
HETATM   10  C   UNL     1      -9.761  17.483  66.980  1.00  0.00    -0.284 A  
HETATM   11  C   UNL     1     -10.648  18.201  67.791  1.00  0.00    -0.407 A  
HETATM   12  C   UNL     1     -10.506  19.582  67.927  1.00  0.00    -0.552 A  
HETATM   13  C   UNL     1      -9.479  20.247  67.259  1.00  0.00    -0.557 A  
HETATM   14  C   UNL     1      -8.580  19.531  66.469  1.00  0.00    -0.374 A  
HETATM   15  C   UNL     1      -8.717  18.150  66.332  1.00  0.00    -0.252 A  
ENDBRANCH   7  10
ENDBRANCH   5   6
ENDBRANCH   4   5
ENDBRANCH   3   4
ENDBRANCH   2   3
TORSDOF 5
ENDMDL
MODEL       49
REMARK 921   NORMALIZED FREE ENERGY PREDICTED BY IDOCK:   -4.42 KCAL/MOL
REMARK 922        TOTAL FREE ENERGY PREDICTED BY IDOCK:   -6.14 KCAL/MOL
REMARK 923 INTER-LIGAND FREE ENERGY PREDICTED BY IDOCK:   -5.83 KCAL/MOL
REMARK 924 INTRA-LIGAND FREE ENERGY PREDICTED BY IDOCK:   -0.31 KCAL/MOL
REMARK 927      BINDING AFFINITY PREDICTED BY RF-SCORE:    0.00 PKD
ROOT
HETATM    1  C   UNL     1     -11.523   8.566  70.868  1.00  0.00    -0.302 C  
HETATM    2  C   UNL     1     -12.296   9.304  71.949  1.00  0.00    -0.454 C  
ENDROOT
BRANCH   2   3
HETATM    3  C   UNL     1     -13.002  10.548  71.402  1.00  0.00    -0.542 C  
BRANCH   3   4
HETATM    4  C   UNL     1     -12.028  11.395  70.579  1.00  0.00    -0.451 C  
BRANCH   4   5
HETATM    5  C   UNL     1     -12.290  12.906  70.657  1.00  0.00    -0.385 C  
BRANCH   5   6
HETATM    6  C   UNL     1     -12.087  13.663  69.368  1.00  0.00    -0.364 C  
HETATM    7  C   UNL     1     -11.700  13.058  68.227  1.00  0.00    -0.390 C  
HETATM    8  C   UNL     1     -12.285  15.142  69.421  1.00  0.00    -0.202 C  
HETATM    9  O   UNL     1     -12.432  15.751  70.472  1.00  0.00    -0.414 OA 
BRANCH   7  10
HETATM   10  C   UNL     1     -11.442  13.762  66.971  1.00  0.00    -0.368 A  
HETATM   11  C   UNL     1     -10.275  14.521  66.820  1.00  0.00    -0.266 A  
HETATM   12  C   UNL     1     -10.094  15.301  65.677  1.00  0.00    -0.401 A  
HETATM   13  C   UNL     1     -11.073  15.322  64.685  1.00  0.00    -0.346 A  
HETATM   14  C   UNL     1     -12.225  14.549  64.822  1.00  0.00    -0.441 A  
HETATM   15  C   UNL     1     -12.409  13.766  65.962  1.00  0.00    -0.499 A  
ENDBRANCH   7  10
ENDBRANCH   5   6
ENDBRANCH   4   5
ENDBRANCH   3   4
ENDBRANCH   2   3
TORSDOF 5
ENDMDL
MODEL       50
REMARK 921   NORMALIZED FREE ENERGY PREDICTED BY IDOCK:   -4.39 KCAL/MOL
REMARK 922        TOTAL FREE ENERGY PREDICTED BY IDOCK:   -6.11 KCAL/MOL
REMARK 923 INTER-LIGAND FREE ENERGY PREDICTED BY IDOCK:   -5.55 KCAL/MOL
REMARK 924 INTRA-LIGAND FREE ENERGY PREDICTED BY IDOCK:   -0.56 KCAL/MOL
REMARK 927      BINDING AFFINITY PREDICTED BY RF-SCORE:    0.00 PKD
ROOT
HETATM    1  C   UNL     1      -7.402  19.798  65.876  1.00  0.00    -0.331 C  
HETATM    2  C   UNL     1      -8.428  20.046  66.969  1.00  0.00    -0.390 C  
ENDROOT
BRANCH   2   3
HETATM    3  C   UNL     1      -9.856  20.081  66.419  1.00  0.00    -0.578 C  
BRANCH   3   4
HETATM    4  C   UNL     1     -10.797  19.283  67.327  1.00  0.00    -0.554 C  
BRANCH   4   5
HETATM    5  C   UNL     1     -10.078  18.368  68.328  1.00  0.00    -0.410 C  
BRANCH   5   6
HETATM    6  C   UNL     1     -10.264  16.890  68.098  1.00  0.00    -0.311 C  
HETATM    7  C   UNL     1     -11.421  16.254  68.368  1.00  0.00    -0.243 C  
HETATM    8  C   UNL     1      -9.075  16.135  67.597  1.00  0.00    -0.196 C  
HETATM    9  O   UNL     1      -7.957  16.629  67.537  1.00  0.00    -0.161 OA 
BRANCH   7  10
HETATM   10  C   UNL     1     -11.625  14.815  68.208  1.00  0.00    -0.348 A  
HETATM   11  C   UNL     1     -11.487  13.961  69.310  1.00  0.00    -0.348 A  
HETATM   12  C   UNL     1     -11.546  12.579  69.131  1.00  0.00    -0.375 A  
HETATM   13  C   UNL     1     -11.746  12.047  67.858  1.00  0.00    -0.393 A  
HETATM   14  C   UNL     1     -11.907  12.896  66.763  1.00  0.00    -0.452 A  
HETATM   15  C   UNL     1     -11.852  14.279  66.938  1.00  0.00    -0.458 A  
ENDBRANCH   7  10
ENDBRANCH   5   6
ENDBRANCH   4   5
ENDBRANCH   3   4
ENDBRANCH   2   3
TORSDOF 5
ENDMDL
MODEL       51
REMARK 921   NORMALIZED FREE ENERGY PREDICTED BY IDOCK:   -4.37 KCAL/MOL
REMARK 922        TOTAL FREE ENERGY PREDICTED BY IDOCK:   -6.08 KCAL/MOL
REMARK 923 INTER-LIGAND FREE ENERGY PREDICTED BY IDOCK:   -5.72 KCAL/MOL
REMARK 924 INTRA-LIGAND FREE ENERGY PREDICTED BY IDOCK:   -0.36 KCAL/MOL
REMARK 927      BINDING AFFINITY PREDICTED BY RF-SCORE:    0.00 PKD
ROOT
HETATM    1  C   UNL     1      -9.477  10.421  62.948  1.00  0.00    -0.354 C  
HETATM    2  C   UNL     1      -8.975  10.590  64.372  1.00  0.00    -0.232 C  
ENDROOT
BRANCH   2   3
HETATM    3  C   UNL     1      -9.811   9.791  65.375  1.00  0.00    -0.365 C  
BRANCH   3   4
HETATM    4  C   UNL     1     -10.412  10.722  66.431  1.00  0.00    -0.293 C  
BRANCH   4   5
HETATM    5  C   UNL     1     -11.243  11.876  65.853  1.00  0.00    -0.373 C  
BRANCH   5   6
HETATM    6  C   UNL     1     -11.543  12.999  66.813  1.00  0.00    -0.420 C  
HETATM    7  C   UNL     1     -11.101  13.001  68.086  1.00  0.00    -0.285 C  
HETATM    8  C   UNL     1     -12.408  14.105  66.302  1.00  0.00    -0.422 C  
HETATM    9  O   UNL     1     -12.996  14.042  65.231  1.00  0.00    -0.743 OA 
BRANCH   7  10
HETATM   10  C   UNL     1     -11.412  14.043  69.063  1.00  0.00    -0.337 A  
HETATM   11  C   UNL     1     -10.768  15.285  68.992  1.00  0.00    -0.244 A  
HETATM   12  C   UNL     1     -10.962  16.229  70.001  1.00  0.00    -0.356 A  
HETATM   13  C   UNL     1     -11.799  15.938  71.077  1.00  0.00    -0.468 A  
HETATM   14  C   UNL     1     -12.459  14.712  71.138  1.00  0.00    -0.402 A  
HETATM   15  C   UNL     1     -12.271  13.766  70.130  1.00  0.00    -0.425 A  
ENDBRANCH   7  10
ENDBRANCH   5   6
ENDBRANCH   4   5
ENDBRANCH   3   4
ENDBRANCH   2   3
TORSDOF 5
ENDMDL
MODEL       52
REMARK 921   NORMALIZED FREE ENERGY PREDICTED BY IDOCK:   -4.36 KCAL/MOL
REMARK 922        TOTAL FREE ENERGY PREDICTED BY IDOCK:   -6.07 KCAL/MOL
REMARK 923 INTER-LIGAND FREE ENERGY PREDICTED BY IDOCK:   -5.65 KCAL/MOL
REMARK 924 INTRA-LIGAND FREE ENERGY PREDICTED BY IDOCK:   -0.42 KCAL/MOL
REMARK 927      BINDING AFFINITY PREDICTED BY RF-SCORE:    0.00 PKD
ROOT
HETATM    1  C   UNL     1     -12.216   6.827  71.766  1.00  0.00    -0.402 C  
HETATM    2  C   UNL     1     -11.927   8.229  72.278  1.00  0.00    -0.448 C  
ENDROOT
BRANCH   2   3
HETATM    3  C   UNL     1     -13.176   9.114  72.264  1.00  0.00    -0.528 C  
BRANCH   3   4
HETATM    4  C   UNL     1     -13.115  10.105  71.098  1.00  0.00    -0.480 C  
BRANCH   4   5
HETATM    5  C   UNL     1     -12.806  11.549  71.517  1.00  0.00    -0.485 C  
BRANCH   5   6
HETATM    6  C   UNL     1     -12.279  12.439  70.420  1.00  0.00    -0.370 C  
HETATM    7  C   UNL     1     -11.796  11.951  69.261  1.00  0.00    -0.379 C  
HETATM    8  C   UNL     1     -12.266  13.908  70.696  1.00  0.00    -0.373 C  
HETATM    9  O   UNL     1     -12.500  14.373  71.803  1.00  0.00    -0.338 OA 
BRANCH   7  10
HETATM   10  C   UNL     1     -11.228  12.775  68.194  1.00  0.00    -0.310 A  
HETATM   11  C   UNL     1     -12.031  13.185  67.122  1.00  0.00    -0.397 A  
HETATM   12  C   UNL     1     -11.459  13.853  66.040  1.00  0.00    -0.345 A  
HETATM   13  C   UNL     1     -10.090  14.117  66.026  1.00  0.00    -0.330 A  
HETATM   14  C   UNL     1      -9.292  13.730  67.103  1.00  0.00    -0.240 A  
HETATM   15  C   UNL     1      -9.861  13.065  68.189  1.00  0.00    -0.228 A  
ENDBRANCH   7  10
ENDBRANCH   5   6
ENDBRANCH   4   5
ENDBRANCH   3   4
ENDBRANCH   2   3
TORSDOF 5
ENDMDL
MODEL       53
REMARK 921   NORMALIZED FREE ENERGY PREDICTED BY IDOCK:   -4.36 KCAL/MOL
REMARK 922        TOTAL FREE ENERGY PREDICTED BY IDOCK:   -6.07 KCAL/MOL
REMARK 923 INTER-LIGAND FREE ENERGY PREDICTED BY IDOCK:   -5.75 KCAL/MOL
REMARK 924 INTRA-LIGAND FREE ENERGY PREDICTED BY IDOCK:   -0.32 KCAL/MOL
REMARK 927      BINDING AFFINITY PREDICTED BY RF-SCORE:    0.00 PKD
ROOT
HETATM    1  C   UNL     1      -7.931   9.935  69.971  1.00  0.00    -0.194 C  
HETATM    2  C   UNL     1      -9.443   9.825  69.868  1.00  0.00    -0.264 C  
ENDROOT
BRANCH   2   3
HETATM    3  C   UNL     1      -9.920   9.813  68.414  1.00  0.00    -0.176 C  
BRANCH   3   4
HETATM    4  C   UNL     1     -11.274  10.518  68.290  1.00  0.00    -0.354 C  
BRANCH   4   5
HETATM    5  C   UNL     1     -11.198  11.923  67.676  1.00  0.00    -0.340 C  
BRANCH   5   6
HETATM    6  C   UNL     1     -11.655  13.044  68.574  1.00  0.00    -0.363 C  
HETATM    7  C   UNL     1     -11.807  12.890  69.905  1.00  0.00    -0.373 C  
HETATM    8  C   UNL     1     -11.987  14.341  67.912  1.00  0.00    -0.329 C  
HETATM    9  O   UNL     1     -12.062  14.461  66.696  1.00  0.00    -0.419 OA 
BRANCH   7  10
HETATM   10  C   UNL     1     -12.297  13.936  70.802  1.00  0.00    -0.449 A  
HETATM   11  C   UNL     1     -11.564  15.117  70.969  1.00  0.00    -0.390 A  
HETATM   12  C   UNL     1     -11.958  16.053  71.925  1.00  0.00    -0.606 A  
HETATM   13  C   UNL     1     -13.083  15.814  72.713  1.00  0.00    -0.596 A  
HETATM   14  C   UNL     1     -13.829  14.649  72.534  1.00  0.00    -0.561 A  
HETATM   15  C   UNL     1     -13.439  13.712  71.576  1.00  0.00    -0.332 A  
ENDBRANCH   7  10
ENDBRANCH   5   6
ENDBRANCH   4   5
ENDBRANCH   3   4
ENDBRANCH   2   3
TORSDOF 5
ENDMDL
MODEL       54
REMARK 921   NORMALIZED FREE ENERGY PREDICTED BY IDOCK:   -4.36 KCAL/MOL
REMARK 922        TOTAL FREE ENERGY PREDICTED BY IDOCK:   -6.07 KCAL/MOL
REMARK 923 INTER-LIGAND FREE ENERGY PREDICTED BY IDOCK:   -5.62 KCAL/MOL
REMARK 924 INTRA-LIGAND FREE ENERGY PREDICTED BY IDOCK:   -0.45 KCAL/MOL
REMARK 927      BINDING AFFINITY PREDICTED BY RF-SCORE:    0.00 PKD
ROOT
HETATM    1  C   UNL     1     -13.105  14.413  71.426  1.00  0.00    -0.416 C  
HETATM    2  C   UNL     1     -12.163  15.480  71.958  1.00  0.00    -0.484 C  
ENDROOT
BRANCH   2   3
HETATM    3  C   UNL     1     -11.208  15.993  70.877  1.00  0.00    -0.365 C  
BRANCH   3   4
HETATM    4  C   UNL     1     -11.797  15.748  69.485  1.00  0.00    -0.359 C  
BRANCH   4   5
HETATM    5  C   UNL     1     -11.140  16.575  68.370  1.00  0.00    -0.333 C  
BRANCH   5   6
HETATM    6  C   UNL     1     -10.950  15.854  67.060  1.00  0.00    -0.189 C  
HETATM    7  C   UNL     1     -11.445  14.621  66.833  1.00  0.00    -0.372 C  
HETATM    8  C   UNL     1     -10.133  16.552  66.022  1.00  0.00    -0.348 C  
HETATM    9  O   UNL     1      -9.498  17.571  66.258  1.00  0.00    -0.345 OA 
BRANCH   7  10
HETATM   10  C   UNL     1     -11.240  13.867  65.597  1.00  0.00    -0.306 A  
HETATM   11  C   UNL     1     -12.151  13.990  64.541  1.00  0.00    -0.484 A  
HETATM   12  C   UNL     1     -12.031  13.171  63.418  1.00  0.00    -0.552 A  
HETATM   13  C   UNL     1     -11.004  12.231  63.346  1.00  0.00    -0.467 A  
HETATM   14  C   UNL     1     -10.082  12.121  64.387  1.00  0.00    -0.300 A  
HETATM   15  C   UNL     1     -10.196  12.941  65.510  1.00  0.00    -0.299 A  
ENDBRANCH   7  10
ENDBRANCH   5   6
ENDBRANCH   4   5
ENDBRANCH   3   4
ENDBRANCH   2   3
TORSDOF 5
ENDMDL
MODEL       55
REMARK 921   NORMALIZED FREE ENERGY PREDICTED BY IDOCK:   -4.34 KCAL/MOL
REMARK 922        TOTAL FREE ENERGY PREDICTED BY IDOCK:   -6.04 KCAL/MOL
REMARK 923 INTER-LIGAND FREE ENERGY PREDICTED BY IDOCK:   -5.50 KCAL/MOL
REMARK 924 INTRA-LIGAND FREE ENERGY PREDICTED BY IDOCK:   -0.54 KCAL/MOL
REMARK 927      BINDING AFFINITY PREDICTED BY RF-SCORE:    0.00 PKD
ROOT
HETATM    1  C   UNL     1     -10.562  11.562  63.437  1.00  0.00    -0.460 C  
HETATM    2  C   UNL     1     -11.614  12.653  63.552  1.00  0.00    -0.584 C  
ENDROOT
BRANCH   2   3
HETATM    3  C   UNL     1     -12.458  12.505  64.820  1.00  0.00    -0.532 C  
BRANCH   3   4
HETATM    4  C   UNL     1     -12.592  13.854  65.532  1.00  0.00    -0.560 C  
BRANCH   4   5
HETATM    5  C   UNL     1     -12.024  13.872  66.958  1.00  0.00    -0.459 C  
BRANCH   5   6
HETATM    6  C   UNL     1     -10.865  14.811  67.178  1.00  0.00    -0.311 C  
HETATM    7  C   UNL     1      -9.723  14.731  66.466  1.00  0.00    -0.295 C  
HETATM    8  C   UNL     1     -11.015  15.818  68.271  1.00  0.00    -0.325 C  
HETATM    9  O   UNL     1     -11.942  15.790  69.070  1.00  0.00    -0.385 OA 
BRANCH   7  10
HETATM   10  C   UNL     1      -8.558  15.588  66.683  1.00  0.00    -0.325 A  
HETATM   11  C   UNL     1      -8.528  16.881  66.147  1.00  0.00    -0.281 A  
HETATM   12  C   UNL     1      -7.366  17.646  66.236  1.00  0.00    -0.345 A  
HETATM   13  C   UNL     1      -6.234  17.126  66.862  1.00  0.00    -0.231 A  
HETATM   14  C   UNL     1      -6.267  15.847  67.417  1.00  0.00    -0.171 A  
HETATM   15  C   UNL     1      -7.429  15.079  67.332  1.00  0.00    -0.234 A  
ENDBRANCH   7  10
ENDBRANCH   5   6
ENDBRANCH   4   5
ENDBRANCH   3   4
ENDBRANCH   2   3
TORSDOF 5
ENDMDL
MODEL       56
REMARK 921   NORMALIZED FREE ENERGY PREDICTED BY IDOCK:   -4.29 KCAL/MOL
REMARK 922        TOTAL FREE ENERGY PREDICTED BY IDOCK:   -5.98 KCAL/MOL
REMARK 923 INTER-LIGAND FREE ENERGY PREDICTED BY IDOCK:   -6.09 KCAL/MOL
REMARK 924 INTRA-LIGAND FREE ENERGY PREDICTED BY IDOCK:    0.11 KCAL/MOL
REMARK 927      BINDING AFFINITY PREDICTED BY RF-SCORE:    0.00 PKD
ROOT
HETATM    1  C   UNL     1     -11.598   6.555  70.983  1.00  0.00    -0.405 C  
HETATM    2  C   UNL     1     -10.628   7.725  70.952  1.00  0.00    -0.220 C  
ENDROOT
BRANCH   2   3
HETATM    3  C   UNL     1     -10.966   8.779  72.010  1.00  0.00    -0.438 C  
BRANCH   3   4
HETATM    4  C   UNL     1     -12.477   8.826  72.253  1.00  0.00    -0.455 C  
BRANCH   4   5
HETATM    5  C   UNL     1     -13.253   9.661  71.224  1.00  0.00    -0.429 C  
BRANCH   5   6
HETATM    6  C   UNL     1     -12.866  11.116  71.152  1.00  0.00    -0.473 C  
HETATM    7  C   UNL     1     -13.387  12.045  71.978  1.00  0.00    -0.447 C  
HETATM    8  C   UNL     1     -11.904  11.502  70.076  1.00  0.00    -0.355 C  
HETATM    9  O   UNL     1     -11.570  10.734  69.184  1.00  0.00    -0.277 OA 
BRANCH   7  10
HETATM   10  C   UNL     1     -13.079  13.473  71.907  1.00  0.00    -0.475 A  
HETATM   11  C   UNL     1     -13.026  14.119  70.665  1.00  0.00    -0.290 A  
HETATM   12  C   UNL     1     -12.599  15.444  70.586  1.00  0.00    -0.491 A  
HETATM   13  C   UNL     1     -12.228  16.128  71.743  1.00  0.00    -0.466 A  
HETATM   14  C   UNL     1     -12.301  15.495  72.984  1.00  0.00    -0.554 A  
HETATM   15  C   UNL     1     -12.731  14.171  73.067  1.00  0.00    -0.310 A  
ENDBRANCH   7  10
ENDBRANCH   5   6
ENDBRANCH   4   5
ENDBRANCH   3   4
ENDBRANCH   2   3
TORSDOF 5
ENDMDL
MODEL       57
REMARK 921   NORMALIZED FREE ENERGY PREDICTED BY IDOCK:   -4.29 KCAL/MOL
REMARK 922        TOTAL FREE ENERGY PREDICTED BY IDOCK:   -5.97 KCAL/MOL
REMARK 923 INTER-LIGAND FREE ENERGY PREDICTED BY IDOCK:   -5.40 KCAL/MOL
REMARK 924 INTRA-LIGAND FREE ENERGY PREDICTED BY IDOCK:   -0.57 KCAL/MOL
REMARK 927      BINDING AFFINITY PREDICTED BY RF-SCORE:    0.00 PKD
ROOT
HETATM    1  C   UNL     1     -14.179   7.426  71.539  1.00  0.00    -0.571 C  
HETATM    2  C   UNL     1     -12.679   7.214  71.416  1.00  0.00    -0.433 C  
ENDROOT
BRANCH   2   3
HETATM    3  C   UNL     1     -11.898   8.014  72.461  1.00  0.00    -0.419 C  
BRANCH   3   4
HETATM    4  C   UNL     1     -10.825   8.872  71.785  1.00  0.00    -0.436 C  
BRANCH   4   5
HETATM    5  C   UNL     1     -10.801   8.757  70.254  1.00  0.00    -0.252 C  
BRANCH   5   6
HETATM    6  C   UNL     1     -10.697  10.064  69.511  1.00  0.00    -0.269 C  
HETATM    7  C   UNL     1     -11.778  10.798  69.182  1.00  0.00    -0.368 C  
HETATM    8  C   UNL     1      -9.326  10.496  69.102  1.00  0.00    -0.187 C  
HETATM    9  O   UNL     1      -8.349   9.766  69.197  1.00  0.00    -0.119 OA 
BRANCH   7  10
HETATM   10  C   UNL     1     -11.724  12.044  68.418  1.00  0.00    -0.390 A  
HETATM   11  C   UNL     1     -11.774  13.277  69.080  1.00  0.00    -0.379 A  
HETATM   12  C   UNL     1     -11.861  14.459  68.347  1.00  0.00    -0.354 A  
HETATM   13  C   UNL     1     -11.895  14.416  66.954  1.00  0.00    -0.433 A  
HETATM   14  C   UNL     1     -11.822  13.191  66.290  1.00  0.00    -0.455 A  
HETATM   15  C   UNL     1     -11.732  12.006  67.020  1.00  0.00    -0.341 A  
ENDBRANCH   7  10
ENDBRANCH   5   6
ENDBRANCH   4   5
ENDBRANCH   3   4
ENDBRANCH   2   3
TORSDOF 5
ENDMDL
MODEL       58
REMARK 921   NORMALIZED FREE ENERGY PREDICTED BY IDOCK:   -4.27 KCAL/MOL
REMARK 922        TOTAL FREE ENERGY PREDICTED BY IDOCK:   -5.96 KCAL/MOL
REMARK 923 INTER-LIGAND FREE ENERGY PREDICTED BY IDOCK:   -5.34 KCAL/MOL
REMARK 924 INTRA-LIGAND FREE ENERGY PREDICTED BY IDOCK:   -0.62 KCAL/MOL
REMARK 927      BINDING AFFINITY PREDICTED BY RF-SCORE:    0.00 PKD
ROOT
HETATM    1  C   UNL     1      -9.413  10.366  66.032  1.00  0.00    -0.232 C  
HETATM    2  C   UNL     1     -10.588  11.083  65.388  1.00  0.00    -0.270 C  
ENDROOT
BRANCH   2   3
HETATM    3  C   UNL     1     -10.308  11.447  63.927  1.00  0.00    -0.434 C  
BRANCH   3   4
HETATM    4  C   UNL     1     -11.092  12.700  63.530  1.00  0.00    -0.449 C  
BRANCH   4   5
HETATM    5  C   UNL     1     -11.793  13.401  64.702  1.00  0.00    -0.430 C  
BRANCH   5   6
HETATM    6  C   UNL     1     -11.117  14.652  65.203  1.00  0.00    -0.382 C  
HETATM    7  C   UNL     1     -10.266  14.646  66.248  1.00  0.00    -0.302 C  
HETATM    8  C   UNL     1     -11.473  15.929  64.514  1.00  0.00    -0.283 C  
HETATM    9  O   UNL     1     -12.388  16.009  63.705  1.00  0.00    -0.858 OA 
BRANCH   7  10
HETATM   10  C   UNL     1      -9.631  15.843  66.798  1.00  0.00    -0.252 A  
HETATM   11  C   UNL     1      -8.323  16.178  66.423  1.00  0.00    -0.357 A  
HETATM   12  C   UNL     1      -7.669  17.239  67.048  1.00  0.00    -0.227 A  
HETATM   13  C   UNL     1      -8.317  17.969  68.044  1.00  0.00    -0.263 A  
HETATM   14  C   UNL     1      -9.627  17.653  68.403  1.00  0.00    -0.310 A  
HETATM   15  C   UNL     1     -10.286  16.594  67.778  1.00  0.00    -0.292 A  
ENDBRANCH   7  10
ENDBRANCH   5   6
ENDBRANCH   4   5
ENDBRANCH   3   4
ENDBRANCH   2   3
TORSDOF 5
ENDMDL
MODEL       59
REMARK 921   NORMALIZED FREE ENERGY PREDICTED BY IDOCK:   -4.27 KCAL/MOL
REMARK 922        TOTAL FREE ENERGY PREDICTED BY IDOCK:   -5.95 KCAL/MOL
REMARK 923 INTER-LIGAND FREE ENERGY PREDICTED BY IDOCK:   -5.45 KCAL/MOL
REMARK 924 INTRA-LIGAND FREE ENERGY PREDICTED BY IDOCK:   -0.51 KCAL/MOL
REMARK 927      BINDING AFFINITY PREDICTED BY RF-SCORE:    0.00 PKD
ROOT
HETATM    1  C   UNL     1     -10.415   7.431  68.100  1.00  0.00    -0.241 C  
HETATM    2  C   UNL     1     -11.057   6.204  68.725  1.00  0.00    -0.398 C  
ENDROOT
BRANCH   2   3
HETATM    3  C   UNL     1     -11.451   6.442  70.185  1.00  0.00    -0.484 C  
BRANCH   3   4
HETATM    4  C   UNL     1     -10.486   7.432  70.843  1.00  0.00    -0.225 C  
BRANCH   4   5
HETATM    5  C   UNL     1     -11.175   8.519  71.680  1.00  0.00    -0.361 C  
BRANCH   5   6
HETATM    6  C   UNL     1     -11.718   9.688  70.898  1.00  0.00    -0.412 C  
HETATM    7  C   UNL     1     -10.988  10.341  69.973  1.00  0.00    -0.371 C  
HETATM    8  C   UNL     1     -13.105  10.132  71.231  1.00  0.00    -0.396 C  
HETATM    9  O   UNL     1     -13.720   9.703  72.198  1.00  0.00    -0.403 OA 
BRANCH   7  10
HETATM   10  C   UNL     1     -11.458  11.510  69.230  1.00  0.00    -0.370 A  
HETATM   11  C   UNL     1     -11.557  11.461  67.834  1.00  0.00    -0.337 A  
HETATM   12  C   UNL     1     -11.873  12.614  67.116  1.00  0.00    -0.399 A  
HETATM   13  C   UNL     1     -12.094  13.816  67.788  1.00  0.00    -0.325 A  
HETATM   14  C   UNL     1     -12.019  13.863  69.180  1.00  0.00    -0.404 A  
HETATM   15  C   UNL     1     -11.706  12.711  69.902  1.00  0.00    -0.320 A  
ENDBRANCH   7  10
ENDBRANCH   5   6
ENDBRANCH   4   5
ENDBRANCH   3   4
ENDBRANCH   2   3
TORSDOF 5
ENDMDL
MODEL       60
REMARK 921   NORMALIZED FREE ENERGY PREDICTED BY IDOCK:   -4.26 KCAL/MOL
REMARK 922        TOTAL FREE ENERGY PREDICTED BY IDOCK:   -5.94 KCAL/MOL
REMARK 923 INTER-LIGAND FREE ENERGY PREDICTED BY IDOCK:   -5.58 KCAL/MOL
REMARK 924 INTRA-LIGAND FREE ENERGY PREDICTED BY IDOCK:   -0.36 KCAL/MOL
REMARK 927      BINDING AFFINITY PREDICTED BY RF-SCORE:    0.00 PKD
ROOT
HETATM    1  C   UNL     1      -8.602  10.335  63.477  1.00  0.00    -0.195 C  
HETATM    2  C   UNL     1      -9.728  11.080  62.778  1.00  0.00    -0.303 C  
ENDROOT
BRANCH   2   3
HETATM    3  C   UNL     1     -10.307  12.195  63.652  1.00  0.00    -0.482 C  
BRANCH   3   4
HETATM    4  C   UNL     1     -10.075  11.887  65.134  1.00  0.00    -0.293 C  
BRANCH   4   5
HETATM    5  C   UNL     1     -11.364  11.739  65.955  1.00  0.00    -0.335 C  
BRANCH   5   6
HETATM    6  C   UNL     1     -11.616  12.834  66.960  1.00  0.00    -0.422 C  
HETATM    7  C   UNL     1     -11.147  12.780  68.222  1.00  0.00    -0.288 C  
HETATM    8  C   UNL     1     -12.467  13.976  66.509  1.00  0.00    -0.311 C  
HETATM    9  O   UNL     1     -13.079  13.964  65.449  1.00  0.00    -0.752 OA 
BRANCH   7  10
HETATM   10  C   UNL     1     -11.413  13.795  69.242  1.00  0.00    -0.344 A  
HETATM   11  C   UNL     1     -12.385  13.565  70.223  1.00  0.00    -0.370 A  
HETATM   12  C   UNL     1     -12.735  14.583  71.110  1.00  0.00    -0.408 A  
HETATM   13  C   UNL     1     -12.115  15.828  71.023  1.00  0.00    -0.464 A  
HETATM   14  C   UNL     1     -11.130  16.053  70.062  1.00  0.00    -0.362 A  
HETATM   15  C   UNL     1     -10.775  15.037  69.175  1.00  0.00    -0.249 A  
ENDBRANCH   7  10
ENDBRANCH   5   6
ENDBRANCH   4   5
ENDBRANCH   3   4
ENDBRANCH   2   3
TORSDOF 5
ENDMDL
MODEL       61
REMARK 921   NORMALIZED FREE ENERGY PREDICTED BY IDOCK:   -4.25 KCAL/MOL
REMARK 922        TOTAL FREE ENERGY PREDICTED BY IDOCK:   -5.92 KCAL/MOL
REMARK 923 INTER-LIGAND FREE ENERGY PREDICTED BY IDOCK:   -5.59 KCAL/MOL
REMARK 924 INTRA-LIGAND FREE ENERGY PREDICTED BY IDOCK:   -0.34 KCAL/MOL
REMARK 927      BINDING AFFINITY PREDICTED BY RF-SCORE:    0.00 PKD
ROOT
HETATM    1  C   UNL     1     -10.042  10.560  65.007  1.00  0.00    -0.390 C  
HETATM    2  C   UNL     1     -10.881  11.568  64.239  1.00  0.00    -0.421 C  
ENDROOT
BRANCH   2   3
HETATM    3  C   UNL     1     -11.416  12.679  65.146  1.00  0.00    -0.363 C  
BRANCH   3   4
HETATM    4  C   UNL     1     -10.501  13.906  65.083  1.00  0.00    -0.409 C  
BRANCH   4   5
HETATM    5  C   UNL     1      -9.724  14.177  66.379  1.00  0.00    -0.313 C  
BRANCH   5   6
HETATM    6  C   UNL     1      -9.546  15.633  66.731  1.00  0.00    -0.257 C  
HETATM    7  C   UNL     1     -10.572  16.506  66.741  1.00  0.00    -0.224 C  
HETATM    8  C   UNL     1      -8.153  16.086  67.023  1.00  0.00    -0.222 C  
HETATM    9  O   UNL     1      -7.174  15.380  66.825  1.00  0.00    -0.137 OA 
BRANCH   7  10
HETATM   10  C   UNL     1     -10.434  17.934  67.024  1.00  0.00    -0.345 A  
HETATM   11  C   UNL     1     -10.416  18.860  65.974  1.00  0.00    -0.507 A  
HETATM   12  C   UNL     1     -10.148  20.203  66.233  1.00  0.00    -0.552 A  
HETATM   13  C   UNL     1      -9.900  20.626  67.538  1.00  0.00    -0.485 A  
HETATM   14  C   UNL     1      -9.939  19.711  68.589  1.00  0.00    -0.553 A  
HETATM   15  C   UNL     1     -10.210  18.367  68.335  1.00  0.00    -0.407 A  
ENDBRANCH   7  10
ENDBRANCH   5   6
ENDBRANCH   4   5
ENDBRANCH   3   4
ENDBRANCH   2   3
TORSDOF 5
ENDMDL
MODEL       62
REMARK 921   NORMALIZED FREE ENERGY PREDICTED BY IDOCK:   -4.24 KCAL/MOL
REMARK 922        TOTAL FREE ENERGY PREDICTED BY IDOCK:   -5.91 KCAL/MOL
REMARK 923 INTER-LIGAND FREE ENERGY PREDICTED BY IDOCK:   -5.50 KCAL/MOL
REMARK 924 INTRA-LIGAND FREE ENERGY PREDICTED BY IDOCK:   -0.41 KCAL/MOL
REMARK 927      BINDING AFFINITY PREDICTED BY RF-SCORE:    0.00 PKD
ROOT
HETATM    1  C   UNL     1      -6.329  21.078  63.717  1.00  0.00    -0.304 C  
HETATM    2  C   UNL     1      -6.506  20.355  65.042  1.00  0.00    -0.332 C  
ENDROOT
BRANCH   2   3
HETATM    3  C   UNL     1      -6.150  18.870  64.938  1.00  0.00    -0.301 C  
BRANCH   3   4
HETATM    4  C   UNL     1      -6.813  18.082  66.071  1.00  0.00    -0.332 C  
BRANCH   4   5
HETATM    5  C   UNL     1      -8.150  18.669  66.547  1.00  0.00    -0.301 C  
BRANCH   5   6
HETATM    6  C   UNL     1      -9.322  17.722  66.501  1.00  0.00    -0.291 C  
HETATM    7  C   UNL     1      -9.217  16.461  66.037  1.00  0.00    -0.328 C  
HETATM    8  C   UNL     1     -10.640  18.264  66.950  1.00  0.00    -0.329 C  
HETATM    9  O   UNL     1     -10.821  19.452  67.181  1.00  0.00    -0.484 OA 
BRANCH   7  10
HETATM   10  C   UNL     1     -10.338  15.529  65.926  1.00  0.00    -0.365 A  
HETATM   11  C   UNL     1     -10.980  15.347  64.694  1.00  0.00    -0.333 A  
HETATM   12  C   UNL     1     -12.132  14.565  64.618  1.00  0.00    -0.486 A  
HETATM   13  C   UNL     1     -12.644  13.963  65.766  1.00  0.00    -0.533 A  
HETATM   14  C   UNL     1     -11.995  14.124  66.990  1.00  0.00    -0.471 A  
HETATM   15  C   UNL     1     -10.841  14.903  67.070  1.00  0.00    -0.315 A  
ENDBRANCH   7  10
ENDBRANCH   5   6
ENDBRANCH   4   5
ENDBRANCH   3   4
ENDBRANCH   2   3
TORSDOF 5
ENDMDL
MODEL       63
REMARK 921   NORMALIZED FREE ENERGY PREDICTED BY IDOCK:   -4.24 KCAL/MOL
REMARK 922        TOTAL FREE ENERGY PREDICTED BY IDOCK:   -5.91 KCAL/MOL
REMARK 923 INTER-LIGAND FREE ENERGY PREDICTED BY IDOCK:   -5.30 KCAL/MOL
REMARK 924 INTRA-LIGAND FREE ENERGY PREDICTED BY IDOCK:   -0.60 KCAL/MOL
REMARK 927      BINDING AFFINITY PREDICTED BY RF-SCORE:    0.00 PKD
ROOT
HETATM    1  C   UNL     1     -12.598  11.374  70.764  1.00  0.00    -0.409 C  
HETATM    2  C   UNL     1     -12.283   9.957  71.214  1.00  0.00    -0.480 C  
ENDROOT
BRANCH   2   3
HETATM    3  C   UNL     1     -10.819   9.586  70.959  1.00  0.00    -0.423 C  
BRANCH   3   4
HETATM    4  C   UNL     1     -10.533   9.549  69.455  1.00  0.00    -0.231 C  
BRANCH   4   5
HETATM    5  C   UNL     1      -9.501  10.584  68.986  1.00  0.00    -0.211 C  
BRANCH   5   6
HETATM    6  C   UNL     1      -9.898  11.385  67.771  1.00  0.00    -0.186 C  
HETATM    7  C   UNL     1     -11.117  11.287  67.207  1.00  0.00    -0.367 C  
HETATM    8  C   UNL     1      -8.849  12.268  67.178  1.00  0.00    -0.194 C  
HETATM    9  O   UNL     1      -7.678  12.230  67.532  1.00  0.00    -0.137 OA 
BRANCH   7  10
HETATM   10  C   UNL     1     -11.524  12.005  65.999  1.00  0.00    -0.399 A  
HETATM   11  C   UNL     1     -11.145  11.528  64.738  1.00  0.00    -0.300 A  
HETATM   12  C   UNL     1     -11.415  12.284  63.598  1.00  0.00    -0.572 A  
HETATM   13  C   UNL     1     -12.064  13.512  63.712  1.00  0.00    -0.482 A  
HETATM   14  C   UNL     1     -12.463  13.980  64.964  1.00  0.00    -0.446 A  
HETATM   15  C   UNL     1     -12.198  13.225  66.107  1.00  0.00    -0.466 A  
ENDBRANCH   7  10
ENDBRANCH   5   6
ENDBRANCH   4   5
ENDBRANCH   3   4
ENDBRANCH   2   3
TORSDOF 5
ENDMDL
MODEL       64
REMARK 921   NORMALIZED FREE ENERGY PREDICTED BY IDOCK:   -4.21 KCAL/MOL
REMARK 922        TOTAL FREE ENERGY PREDICTED BY IDOCK:   -5.87 KCAL/MOL
REMARK 923 INTER-LIGAND FREE ENERGY PREDICTED BY IDOCK:   -5.51 KCAL/MOL
REMARK 924 INTRA-LIGAND FREE ENERGY PREDICTED BY IDOCK:   -0.36 KCAL/MOL
REMARK 927      BINDING AFFINITY PREDICTED BY RF-SCORE:    0.00 PKD
ROOT
HETATM    1  C   UNL     1     -14.396   8.174  71.886  1.00  0.00    -0.566 C  
HETATM    2  C   UNL     1     -13.292   7.236  71.428  1.00  0.00    -0.399 C  
ENDROOT
BRANCH   2   3
HETATM    3  C   UNL     1     -11.911   7.702  71.895  1.00  0.00    -0.331 C  
BRANCH   3   4
HETATM    4  C   UNL     1     -11.064   8.146  70.699  1.00  0.00    -0.264 C  
BRANCH   4   5
HETATM    5  C   UNL     1     -10.417   9.528  70.865  1.00  0.00    -0.382 C  
BRANCH   5   6
HETATM    6  C   UNL     1     -11.054  10.637  70.067  1.00  0.00    -0.359 C  
HETATM    7  C   UNL     1     -10.550  11.067  68.894  1.00  0.00    -0.239 C  
HETATM    8  C   UNL     1     -12.259  11.288  70.666  1.00  0.00    -0.393 C  
HETATM    9  O   UNL     1     -12.624  11.071  71.814  1.00  0.00    -0.330 OA 
BRANCH   7  10
HETATM   10  C   UNL     1     -11.106  12.174  68.116  1.00  0.00    -0.295 A  
HETATM   11  C   UNL     1     -11.626  11.940  66.837  1.00  0.00    -0.358 A  
HETATM   12  C   UNL     1     -12.030  13.012  66.042  1.00  0.00    -0.498 A  
HETATM   13  C   UNL     1     -11.920  14.316  66.521  1.00  0.00    -0.448 A  
HETATM   14  C   UNL     1     -11.424  14.551  67.804  1.00  0.00    -0.362 A  
HETATM   15  C   UNL     1     -11.022  13.481  68.603  1.00  0.00    -0.289 A  
ENDBRANCH   7  10
ENDBRANCH   5   6
ENDBRANCH   4   5
ENDBRANCH   3   4
ENDBRANCH   2   3
TORSDOF 5
ENDMDL
MODEL       65
REMARK 921   NORMALIZED FREE ENERGY PREDICTED BY IDOCK:   -4.17 KCAL/MOL
REMARK 922        TOTAL FREE ENERGY PREDICTED BY IDOCK:   -5.82 KCAL/MOL
REMARK 923 INTER-LIGAND FREE ENERGY PREDICTED BY IDOCK:   -5.16 KCAL/MOL
REMARK 924 INTRA-LIGAND FREE ENERGY PREDICTED BY IDOCK:   -0.66 KCAL/MOL
REMARK 927      BINDING AFFINITY PREDICTED BY RF-SCORE:    0.00 PKD
ROOT
HETATM    1  C   UNL     1     -10.865  11.765  63.517  1.00  0.00    -0.496 C  
HETATM    2  C   UNL     1      -9.801  11.221  64.457  1.00  0.00    -0.317 C  
ENDROOT
BRANCH   2   3
HETATM    3  C   UNL     1     -10.410  10.426  65.614  1.00  0.00    -0.260 C  
BRANCH   3   4
HETATM    4  C   UNL     1     -10.405  11.261  66.897  1.00  0.00    -0.272 C  
BRANCH   4   5
HETATM    5  C   UNL     1     -11.609  12.204  67.038  1.00  0.00    -0.406 C  
BRANCH   5   6
HETATM    6  C   UNL     1     -11.291  13.674  66.938  1.00  0.00    -0.345 C  
HETATM    7  C   UNL     1     -10.341  14.262  67.691  1.00  0.00    -0.248 C  
HETATM    8  C   UNL     1     -12.122  14.477  65.991  1.00  0.00    -0.287 C  
HETATM    9  O   UNL     1     -13.122  14.028  65.447  1.00  0.00    -0.763 OA 
BRANCH   7  10
HETATM   10  C   UNL     1     -10.038  15.693  67.662  1.00  0.00    -0.248 A  
HETATM   11  C   UNL     1      -9.079  16.189  66.771  1.00  0.00    -0.257 A  
HETATM   12  C   UNL     1      -8.692  17.527  66.837  1.00  0.00    -0.269 A  
HETATM   13  C   UNL     1      -9.262  18.372  67.788  1.00  0.00    -0.287 A  
HETATM   14  C   UNL     1     -10.234  17.887  68.662  1.00  0.00    -0.387 A  
HETATM   15  C   UNL     1     -10.626  16.550  68.597  1.00  0.00    -0.316 A  
ENDBRANCH   7  10
ENDBRANCH   5   6
ENDBRANCH   4   5
ENDBRANCH   3   4
ENDBRANCH   2   3
TORSDOF 5
ENDMDL
MODEL       66
REMARK 921   NORMALIZED FREE ENERGY PREDICTED BY IDOCK:   -4.16 KCAL/MOL
REMARK 922        TOTAL FREE ENERGY PREDICTED BY IDOCK:   -5.81 KCAL/MOL
REMARK 923 INTER-LIGAND FREE ENERGY PREDICTED BY IDOCK:   -5.36 KCAL/MOL
REMARK 924 INTRA-LIGAND FREE ENERGY PREDICTED BY IDOCK:   -0.45 KCAL/MOL
REMARK 927      BINDING AFFINITY PREDICTED BY RF-SCORE:    0.00 PKD
ROOT
HETATM    1  C   UNL     1     -12.121  12.629  65.554  1.00  0.00    -0.515 C  
HETATM    2  C   UNL     1     -11.059  13.353  66.365  1.00  0.00    -0.312 C  
ENDROOT
BRANCH   2   3
HETATM    3  C   UNL     1     -10.443  12.451  67.438  1.00  0.00    -0.229 C  
BRANCH   3   4
HETATM    4  C   UNL     1     -11.531  11.624  68.128  1.00  0.00    -0.382 C  
BRANCH   4   5
HETATM    5  C   UNL     1     -11.792  12.021  69.588  1.00  0.00    -0.401 C  
BRANCH   5   6
HETATM    6  C   UNL     1     -11.849  10.876  70.567  1.00  0.00    -0.457 C  
HETATM    7  C   UNL     1     -11.175   9.725  70.375  1.00  0.00    -0.362 C  
HETATM    8  C   UNL     1     -12.739  11.052  71.754  1.00  0.00    -0.303 C  
HETATM    9  O   UNL     1     -13.521  11.988  71.859  1.00  0.00    -0.392 OA 
BRANCH   7  10
HETATM   10  C   UNL     1     -11.245   8.572  71.273  1.00  0.00    -0.321 A  
HETATM   11  C   UNL     1     -10.330   8.446  72.325  1.00  0.00    -0.403 A  
HETATM   12  C   UNL     1     -10.309   7.283  73.095  1.00  0.00    -0.359 A  
HETATM   13  C   UNL     1     -11.201   6.247  72.819  1.00  0.00    -0.272 A  
HETATM   14  C   UNL     1     -12.129   6.379  71.787  1.00  0.00    -0.351 A  
HETATM   15  C   UNL     1     -12.155   7.542  71.017  1.00  0.00    -0.305 A  
ENDBRANCH   7  10
ENDBRANCH   5   6
ENDBRANCH   4   5
ENDBRANCH   3   4
ENDBRANCH   2   3
TORSDOF 5
ENDMDL
MODEL       67
REMARK 921   NORMALIZED FREE ENERGY PREDICTED BY IDOCK:   -4.16 KCAL/MOL
REMARK 922        TOTAL FREE ENERGY PREDICTED BY IDOCK:   -5.81 KCAL/MOL
REMARK 923 INTER-LIGAND FREE ENERGY PREDICTED BY IDOCK:   -5.68 KCAL/MOL
REMARK 924 INTRA-LIGAND FREE ENERGY PREDICTED BY IDOCK:   -0.13 KCAL/MOL
REMARK 927      BINDING AFFINITY PREDICTED BY RF-SCORE:    0.00 PKD
ROOT
HETATM    1  C   UNL     1     -14.271   8.283  71.520  1.00  0.00    -0.489 C  
HETATM    2  C   UNL     1     -13.489   9.446  72.110  1.00  0.00    -0.543 C  
ENDROOT
BRANCH   2   3
HETATM    3  C   UNL     1     -12.064   9.518  71.557  1.00  0.00    -0.468 C  
BRANCH   3   4
HETATM    4  C   UNL     1     -12.004  10.471  70.359  1.00  0.00    -0.425 C  
BRANCH   4   5
HETATM    5  C   UNL     1     -10.660  10.463  69.617  1.00  0.00    -0.289 C  
BRANCH   5   6
HETATM    6  C   UNL     1     -10.742  10.716  68.133  1.00  0.00    -0.267 C  
HETATM    7  C   UNL     1     -10.949  11.945  67.618  1.00  0.00    -0.286 C  
HETATM    8  C   UNL     1     -10.634   9.522  67.241  1.00  0.00    -0.248 C  
HETATM    9  O   UNL     1     -10.654   8.376  67.669  1.00  0.00    -0.243 OA 
BRANCH   7  10
HETATM   10  C   UNL     1     -11.087  12.225  66.190  1.00  0.00    -0.349 A  
HETATM   11  C   UNL     1     -12.323  12.634  65.671  1.00  0.00    -0.390 A  
HETATM   12  C   UNL     1     -12.490  12.769  64.293  1.00  0.00    -0.461 A  
HETATM   13  C   UNL     1     -11.427  12.500  63.432  1.00  0.00    -0.523 A  
HETATM   14  C   UNL     1     -10.190  12.115  63.946  1.00  0.00    -0.426 A  
HETATM   15  C   UNL     1     -10.017  11.982  65.324  1.00  0.00    -0.273 A  
ENDBRANCH   7  10
ENDBRANCH   5   6
ENDBRANCH   4   5
ENDBRANCH   3   4
ENDBRANCH   2   3
TORSDOF 5
ENDMDL
MODEL       68
REMARK 921   NORMALIZED FREE ENERGY PREDICTED BY IDOCK:   -4.16 KCAL/MOL
REMARK 922        TOTAL FREE ENERGY PREDICTED BY IDOCK:   -5.81 KCAL/MOL
REMARK 923 INTER-LIGAND FREE ENERGY PREDICTED BY IDOCK:   -5.55 KCAL/MOL
REMARK 924 INTRA-LIGAND FREE ENERGY PREDICTED BY IDOCK:   -0.26 KCAL/MOL
REMARK 927      BINDING AFFINITY PREDICTED BY RF-SCORE:    0.00 PKD
ROOT
HETATM    1  C   UNL     1     -10.721   5.630  67.239  1.00  0.00    -0.299 C  
HETATM    2  C   UNL     1      -9.876   5.052  68.361  1.00  0.00    -0.209 C  
ENDROOT
BRANCH   2   3
HETATM    3  C   UNL     1     -10.447   5.388  69.741  1.00  0.00    -0.378 C  
BRANCH   3   4
HETATM    4  C   UNL     1     -11.359   6.615  69.657  1.00  0.00    -0.387 C  
BRANCH   4   5
HETATM    5  C   UNL     1     -11.809   7.159  71.021  1.00  0.00    -0.373 C  
BRANCH   5   6
HETATM    6  C   UNL     1     -11.683   8.651  71.193  1.00  0.00    -0.334 C  
HETATM    7  C   UNL     1     -12.717   9.493  70.995  1.00  0.00    -0.314 C  
HETATM    8  C   UNL     1     -10.329   9.173  71.548  1.00  0.00    -0.344 C  
HETATM    9  O   UNL     1      -9.327   8.471  71.534  1.00  0.00    -0.178 OA 
BRANCH   7  10
HETATM   10  C   UNL     1     -12.623  10.949  71.101  1.00  0.00    -0.532 A  
HETATM   11  C   UNL     1     -13.260  11.618  72.153  1.00  0.00    -0.327 A  
HETATM   12  C   UNL     1     -13.286  13.012  72.178  1.00  0.00    -0.622 A  
HETATM   13  C   UNL     1     -12.676  13.740  71.158  1.00  0.00    -0.438 A  
HETATM   14  C   UNL     1     -12.022  13.077  70.120  1.00  0.00    -0.374 A  
HETATM   15  C   UNL     1     -11.990  11.682  70.093  1.00  0.00    -0.441 A  
ENDBRANCH   7  10
ENDBRANCH   5   6
ENDBRANCH   4   5
ENDBRANCH   3   4
ENDBRANCH   2   3
TORSDOF 5
ENDMDL
MODEL       69
REMARK 921   NORMALIZED FREE ENERGY PREDICTED BY IDOCK:   -4.14 KCAL/MOL
REMARK 922        TOTAL FREE ENERGY PREDICTED BY IDOCK:   -5.78 KCAL/MOL
REMARK 923 INTER-LIGAND FREE ENERGY PREDICTED BY IDOCK:   -5.41 KCAL/MOL
REMARK 924 INTRA-LIGAND FREE ENERGY PREDICTED BY IDOCK:   -0.37 KCAL/MOL
REMARK 927      BINDING AFFINITY PREDICTED BY RF-SCORE:    0.00 PKD
ROOT
HETATM    1  C   UNL     1     -13.368   9.882  71.974  1.00  0.00    -0.532 C  
HETATM    2  C   UNL     1     -12.242   9.808  70.956  1.00  0.00    -0.436 C  
ENDROOT
BRANCH   2   3
HETATM    3  C   UNL     1     -11.807  11.196  70.480  1.00  0.00    -0.448 C  
BRANCH   3   4
HETATM    4  C   UNL     1     -10.902  11.080  69.250  1.00  0.00    -0.285 C  
BRANCH   4   5
HETATM    5  C   UNL     1     -11.567  11.518  67.937  1.00  0.00    -0.352 C  
BRANCH   5   6
HETATM    6  C   UNL     1     -11.126  12.859  67.408  1.00  0.00    -0.307 C  
HETATM    7  C   UNL     1     -10.367  13.708  68.129  1.00  0.00    -0.245 C  
HETATM    8  C   UNL     1     -11.616  13.238  66.049  1.00  0.00    -0.349 C  
HETATM    9  O   UNL     1     -12.468  12.594  65.451  1.00  0.00    -0.601 OA 
BRANCH   7  10
HETATM   10  C   UNL     1      -9.962  15.037  67.674  1.00  0.00    -0.225 A  
HETATM   11  C   UNL     1     -10.731  16.158  68.009  1.00  0.00    -0.321 A  
HETATM   12  C   UNL     1     -10.423  17.404  67.463  1.00  0.00    -0.354 A  
HETATM   13  C   UNL     1      -9.347  17.535  66.586  1.00  0.00    -0.275 A  
HETATM   14  C   UNL     1      -8.565  16.425  66.268  1.00  0.00    -0.375 A  
HETATM   15  C   UNL     1      -8.868  15.178  66.814  1.00  0.00    -0.302 A  
ENDBRANCH   7  10
ENDBRANCH   5   6
ENDBRANCH   4   5
ENDBRANCH   3   4
ENDBRANCH   2   3
TORSDOF 5
ENDMDL
MODEL       70
REMARK 921   NORMALIZED FREE ENERGY PREDICTED BY IDOCK:   -4.12 KCAL/MOL
REMARK 922        TOTAL FREE ENERGY PREDICTED BY IDOCK:   -5.76 KCAL/MOL
REMARK 923 INTER-LIGAND FREE ENERGY PREDICTED BY IDOCK:   -5.31 KCAL/MOL
REMARK 924 INTRA-LIGAND FREE ENERGY PREDICTED BY IDOCK:   -0.45 KCAL/MOL
REMARK 927      BINDING AFFINITY PREDICTED BY RF-SCORE:    0.00 PKD
ROOT
HETATM    1  C   UNL     1     -13.208   7.523  71.468  1.00  0.00    -0.404 C  
HETATM    2  C   UNL     1     -12.606   8.772  72.089  1.00  0.00    -0.463 C  
ENDROOT
BRANCH   2   3
HETATM    3  C   UNL     1     -13.006  10.040  71.331  1.00  0.00    -0.517 C  
BRANCH   3   4
HETATM    4  C   UNL     1     -11.771  10.710  70.723  1.00  0.00    -0.435 C  
BRANCH   4   5
HETATM    5  C   UNL     1     -11.349  10.135  69.363  1.00  0.00    -0.233 C  
BRANCH   5   6
HETATM    6  C   UNL     1     -10.986  11.156  68.316  1.00  0.00    -0.278 C  
HETATM    7  C   UNL     1     -11.857  12.087  67.879  1.00  0.00    -0.320 C  
HETATM    8  C   UNL     1      -9.613  11.061  67.734  1.00  0.00    -0.170 C  
HETATM    9  O   UNL     1      -8.869  10.113  67.950  1.00  0.00    -0.125 OA 
BRANCH   7  10
HETATM   10  C   UNL     1     -11.561  13.061  66.829  1.00  0.00    -0.420 A  
HETATM   11  C   UNL     1     -11.120  14.346  67.169  1.00  0.00    -0.318 A  
HETATM   12  C   UNL     1     -10.969  15.316  66.177  1.00  0.00    -0.307 A  
HETATM   13  C   UNL     1     -11.255  15.006  64.849  1.00  0.00    -0.423 A  
HETATM   14  C   UNL     1     -11.673  13.721  64.504  1.00  0.00    -0.432 A  
HETATM   15  C   UNL     1     -11.821  12.747  65.492  1.00  0.00    -0.466 A  
ENDBRANCH   7  10
ENDBRANCH   5   6
ENDBRANCH   4   5
ENDBRANCH   3   4
ENDBRANCH   2   3
TORSDOF 5
ENDMDL
MODEL       71
REMARK 921   NORMALIZED FREE ENERGY PREDICTED BY IDOCK:   -4.10 KCAL/MOL
REMARK 922        TOTAL FREE ENERGY PREDICTED BY IDOCK:   -5.73 KCAL/MOL
REMARK 923 INTER-LIGAND FREE ENERGY PREDICTED BY IDOCK:   -5.28 KCAL/MOL
REMARK 924 INTRA-LIGAND FREE ENERGY PREDICTED BY IDOCK:   -0.45 KCAL/MOL
REMARK 927      BINDING AFFINITY PREDICTED BY RF-SCORE:    0.00 PKD
ROOT
HETATM    1  C   UNL     1     -10.211  17.929  68.867  1.00  0.00    -0.331 C  
HETATM    2  C   UNL     1      -8.927  17.393  68.255  1.00  0.00    -0.268 C  
ENDROOT
BRANCH   2   3
HETATM    3  C   UNL     1      -9.135  16.905  66.819  1.00  0.00    -0.266 C  
BRANCH   3   4
HETATM    4  C   UNL     1     -10.514  16.257  66.670  1.00  0.00    -0.290 C  
BRANCH   4   5
HETATM    5  C   UNL     1     -10.750  15.587  65.309  1.00  0.00    -0.440 C  
BRANCH   5   6
HETATM    6  C   UNL     1     -10.897  14.087  65.347  1.00  0.00    -0.331 C  
HETATM    7  C   UNL     1     -10.052  13.293  66.035  1.00  0.00    -0.301 C  
HETATM    8  C   UNL     1     -12.006  13.501  64.535  1.00  0.00    -0.410 C  
HETATM    9  O   UNL     1     -12.660  14.161  63.739  1.00  0.00    -0.804 OA 
BRANCH   7  10
HETATM   10  C   UNL     1     -10.129  11.833  66.056  1.00  0.00    -0.263 A  
HETATM   11  C   UNL     1     -10.704  11.176  67.150  1.00  0.00    -0.305 A  
HETATM   12  C   UNL     1     -10.654   9.785  67.233  1.00  0.00    -0.320 A  
HETATM   13  C   UNL     1     -10.035   9.047  66.225  1.00  0.00    -0.352 A  
HETATM   14  C   UNL     1      -9.481   9.697  65.122  1.00  0.00    -0.332 A  
HETATM   15  C   UNL     1      -9.532  11.088  65.034  1.00  0.00    -0.269 A  
ENDBRANCH   7  10
ENDBRANCH   5   6
ENDBRANCH   4   5
ENDBRANCH   3   4
ENDBRANCH   2   3
TORSDOF 5
ENDMDL
MODEL       72
REMARK 921   NORMALIZED FREE ENERGY PREDICTED BY IDOCK:   -4.10 KCAL/MOL
REMARK 922        TOTAL FREE ENERGY PREDICTED BY IDOCK:   -5.73 KCAL/MOL
REMARK 923 INTER-LIGAND FREE ENERGY PREDICTED BY IDOCK:   -5.11 KCAL/MOL
REMARK 924 INTRA-LIGAND FREE ENERGY PREDICTED BY IDOCK:   -0.63 KCAL/MOL
REMARK 927      BINDING AFFINITY PREDICTED BY RF-SCORE:    0.00 PKD
ROOT
HETATM    1  C   UNL     1      -6.153  15.401  68.376  1.00  0.00    -0.103 C  
HETATM    2  C   UNL     1      -6.843  16.503  67.590  1.00  0.00    -0.161 C  
ENDROOT
BRANCH   2   3
HETATM    3  C   UNL     1      -7.813  17.308  68.459  1.00  0.00    -0.266 C  
BRANCH   3   4
HETATM    4  C   UNL     1      -8.974  16.423  68.924  1.00  0.00    -0.256 C  
BRANCH   4   5
HETATM    5  C   UNL     1     -10.317  16.747  68.256  1.00  0.00    -0.319 C  
BRANCH   5   6
HETATM    6  C   UNL     1     -10.618  15.967  67.001  1.00  0.00    -0.306 C  
HETATM    7  C   UNL     1     -10.944  14.660  67.021  1.00  0.00    -0.317 C  
HETATM    8  C   UNL     1     -10.486  16.702  65.706  1.00  0.00    -0.311 C  
HETATM    9  O   UNL     1      -9.995  17.821  65.630  1.00  0.00    -0.548 OA 
BRANCH   7  10
HETATM   10  C   UNL     1     -11.191  13.855  65.825  1.00  0.00    -0.303 A  
HETATM   11  C   UNL     1     -12.503  13.535  65.454  1.00  0.00    -0.540 A  
HETATM   12  C   UNL     1     -12.733  12.657  64.395  1.00  0.00    -0.417 A  
HETATM   13  C   UNL     1     -11.658  12.100  63.704  1.00  0.00    -0.575 A  
HETATM   14  C   UNL     1     -10.351  12.434  64.057  1.00  0.00    -0.435 A  
HETATM   15  C   UNL     1     -10.117  13.315  65.113  1.00  0.00    -0.249 A  
ENDBRANCH   7  10
ENDBRANCH   5   6
ENDBRANCH   4   5
ENDBRANCH   3   4
ENDBRANCH   2   3
TORSDOF 5
ENDMDL
MODEL       73
REMARK 921   NORMALIZED FREE ENERGY PREDICTED BY IDOCK:   -4.09 KCAL/MOL
REMARK 922        TOTAL FREE ENERGY PREDICTED BY IDOCK:   -5.72 KCAL/MOL
REMARK 923 INTER-LIGAND FREE ENERGY PREDICTED BY IDOCK:   -5.43 KCAL/MOL
REMARK 924 INTRA-LIGAND FREE ENERGY PREDICTED BY IDOCK:   -0.29 KCAL/MOL
REMARK 927      BINDING AFFINITY PREDICTED BY RF-SCORE:    0.00 PKD
ROOT
HETATM    1  C   UNL     1     -11.020   6.763  71.102  1.00  0.00    -0.298 C  
HETATM    2  C   UNL     1     -10.076   7.948  71.229  1.00  0.00    -0.210 C  
ENDROOT
BRANCH   2   3
HETATM    3  C   UNL     1     -10.833   9.273  71.348  1.00  0.00    -0.434 C  
BRANCH   3   4
HETATM    4  C   UNL     1     -10.950   9.946  69.977  1.00  0.00    -0.338 C  
BRANCH   4   5
HETATM    5  C   UNL     1     -12.057  11.006  69.890  1.00  0.00    -0.435 C  
BRANCH   5   6
HETATM    6  C   UNL     1     -11.873  12.043  68.811  1.00  0.00    -0.358 C  
HETATM    7  C   UNL     1     -11.575  11.717  67.538  1.00  0.00    -0.361 C  
HETATM    8  C   UNL     1     -11.986  13.473  69.228  1.00  0.00    -0.330 C  
HETATM    9  O   UNL     1     -12.050  13.814  70.402  1.00  0.00    -0.322 OA 
BRANCH   7  10
HETATM   10  C   UNL     1     -11.337  12.693  66.474  1.00  0.00    -0.377 A  
HETATM   11  C   UNL     1     -10.123  13.390  66.421  1.00  0.00    -0.292 A  
HETATM   12  C   UNL     1      -9.949  14.416  65.491  1.00  0.00    -0.359 A  
HETATM   13  C   UNL     1     -10.981  14.744  64.614  1.00  0.00    -0.332 A  
HETATM   14  C   UNL     1     -12.182  14.036  64.649  1.00  0.00    -0.460 A  
HETATM   15  C   UNL     1     -12.359  13.008  65.574  1.00  0.00    -0.527 A  
ENDBRANCH   7  10
ENDBRANCH   5   6
ENDBRANCH   4   5
ENDBRANCH   3   4
ENDBRANCH   2   3
TORSDOF 5
ENDMDL
MODEL       74
REMARK 921   NORMALIZED FREE ENERGY PREDICTED BY IDOCK:   -4.09 KCAL/MOL
REMARK 922        TOTAL FREE ENERGY PREDICTED BY IDOCK:   -5.72 KCAL/MOL
REMARK 923 INTER-LIGAND FREE ENERGY PREDICTED BY IDOCK:   -5.36 KCAL/MOL
REMARK 924 INTRA-LIGAND FREE ENERGY PREDICTED BY IDOCK:   -0.36 KCAL/MOL
REMARK 927      BINDING AFFINITY PREDICTED BY RF-SCORE:    0.00 PKD
ROOT
HETATM    1  C   UNL     1      -6.370  20.491  65.858  1.00  0.00    -0.265 C  
HETATM    2  C   UNL     1      -6.992  20.926  67.175  1.00  0.00    -0.426 C  
ENDROOT
BRANCH   2   3
HETATM    3  C   UNL     1      -8.268  20.143  67.493  1.00  0.00    -0.373 C  
BRANCH   3   4
HETATM    4  C   UNL     1      -8.952  19.689  66.200  1.00  0.00    -0.375 C  
BRANCH   4   5
HETATM    5  C   UNL     1     -10.412  19.251  66.382  1.00  0.00    -0.563 C  
BRANCH   5   6
HETATM    6  C   UNL     1     -10.609  17.807  66.769  1.00  0.00    -0.235 C  
HETATM    7  C   UNL     1     -10.374  17.353  68.016  1.00  0.00    -0.362 C  
HETATM    8  C   UNL     1     -11.033  16.874  65.682  1.00  0.00     0.026 C  
HETATM    9  O   UNL     1     -11.057  17.201  64.503  1.00  0.00    -1.105 OA 
BRANCH   7  10
HETATM   10  C   UNL     1     -10.502  15.953  68.418  1.00  0.00    -0.254 A  
HETATM   11  C   UNL     1      -9.508  15.030  68.071  1.00  0.00    -0.193 A  
HETATM   12  C   UNL     1      -9.695  13.673  68.335  1.00  0.00    -0.217 A  
HETATM   13  C   UNL     1     -10.868  13.236  68.947  1.00  0.00    -0.245 A  
HETATM   14  C   UNL     1     -11.850  14.155  69.315  1.00  0.00    -0.381 A  
HETATM   15  C   UNL     1     -11.666  15.514  69.056  1.00  0.00    -0.392 A  
ENDBRANCH   7  10
ENDBRANCH   5   6
ENDBRANCH   4   5
ENDBRANCH   3   4
ENDBRANCH   2   3
TORSDOF 5
ENDMDL
MODEL       75
REMARK 921   NORMALIZED FREE ENERGY PREDICTED BY IDOCK:   -4.08 KCAL/MOL
REMARK 922        TOTAL FREE ENERGY PREDICTED BY IDOCK:   -5.71 KCAL/MOL
REMARK 923 INTER-LIGAND FREE ENERGY PREDICTED BY IDOCK:   -5.09 KCAL/MOL
REMARK 924 INTRA-LIGAND FREE ENERGY PREDICTED BY IDOCK:   -0.62 KCAL/MOL
REMARK 927      BINDING AFFINITY PREDICTED BY RF-SCORE:    0.00 PKD
ROOT
HETATM    1  C   UNL     1      -9.995  19.540  68.363  1.00  0.00    -0.540 C  
HETATM    2  C   UNL     1      -9.574  18.221  67.735  1.00  0.00    -0.289 C  
ENDROOT
BRANCH   2   3
HETATM    3  C   UNL     1      -9.664  18.258  66.208  1.00  0.00    -0.293 C  
BRANCH   3   4
HETATM    4  C   UNL     1     -10.698  17.245  65.709  1.00  0.00    -0.132 C  
BRANCH   4   5
HETATM    5  C   UNL     1     -10.141  15.830  65.497  1.00  0.00    -0.383 C  
BRANCH   5   6
HETATM    6  C   UNL     1     -10.280  14.900  66.675  1.00  0.00    -0.264 C  
HETATM    7  C   UNL     1     -11.476  14.463  67.116  1.00  0.00    -0.379 C  
HETATM    8  C   UNL     1      -9.019  14.516  67.378  1.00  0.00    -0.200 C  
HETATM    9  O   UNL     1      -7.943  15.048  67.142  1.00  0.00    -0.196 OA 
BRANCH   7  10
HETATM   10  C   UNL     1     -11.657  13.603  68.285  1.00  0.00    -0.374 A  
HETATM   11  C   UNL     1     -11.641  12.210  68.140  1.00  0.00    -0.397 A  
HETATM   12  C   UNL     1     -11.949  11.393  69.228  1.00  0.00    -0.400 A  
HETATM   13  C   UNL     1     -12.270  11.962  70.459  1.00  0.00    -0.426 A  
HETATM   14  C   UNL     1     -12.265  13.348  70.612  1.00  0.00    -0.427 A  
HETATM   15  C   UNL     1     -11.954  14.169  69.528  1.00  0.00    -0.389 A  
ENDBRANCH   7  10
ENDBRANCH   5   6
ENDBRANCH   4   5
ENDBRANCH   3   4
ENDBRANCH   2   3
TORSDOF 5
ENDMDL
MODEL       76
REMARK 921   NORMALIZED FREE ENERGY PREDICTED BY IDOCK:   -4.07 KCAL/MOL
REMARK 922        TOTAL FREE ENERGY PREDICTED BY IDOCK:   -5.69 KCAL/MOL
REMARK 923 INTER-LIGAND FREE ENERGY PREDICTED BY IDOCK:   -5.23 KCAL/MOL
REMARK 924 INTRA-LIGAND FREE ENERGY PREDICTED BY IDOCK:   -0.46 KCAL/MOL
REMARK 927      BINDING AFFINITY PREDICTED BY RF-SCORE:    0.00 PKD
ROOT
HETATM    1  C   UNL     1     -11.435  10.555  69.667  1.00  0.00    -0.349 C  
HETATM    2  C   UNL     1     -11.908  11.516  68.589  1.00  0.00    -0.382 C  
ENDROOT
BRANCH   2   3
HETATM    3  C   UNL     1     -11.129  11.343  67.283  1.00  0.00    -0.363 C  
BRANCH   3   4
HETATM    4  C   UNL     1     -11.668  12.293  66.210  1.00  0.00    -0.431 C  
BRANCH   4   5
HETATM    5  C   UNL     1     -12.398  13.523  66.768  1.00  0.00    -0.326 C  
BRANCH   5   6
HETATM    6  C   UNL     1     -11.550  14.760  66.923  1.00  0.00    -0.337 C  
HETATM    7  C   UNL     1     -10.823  15.270  65.910  1.00  0.00    -0.345 C  
HETATM    8  C   UNL     1     -11.508  15.379  68.282  1.00  0.00    -0.353 C  
HETATM    9  O   UNL     1     -11.983  14.834  69.270  1.00  0.00    -0.303 OA 
BRANCH   7  10
HETATM   10  C   UNL     1      -9.948  16.436  66.032  1.00  0.00    -0.369 A  
HETATM   11  C   UNL     1      -8.566  16.263  66.184  1.00  0.00    -0.342 A  
HETATM   12  C   UNL     1      -7.750  17.365  66.437  1.00  0.00    -0.343 A  
HETATM   13  C   UNL     1      -8.307  18.639  66.536  1.00  0.00    -0.304 A  
HETATM   14  C   UNL     1      -9.679  18.817  66.363  1.00  0.00    -0.378 A  
HETATM   15  C   UNL     1     -10.499  17.718  66.107  1.00  0.00    -0.301 A  
ENDBRANCH   7  10
ENDBRANCH   5   6
ENDBRANCH   4   5
ENDBRANCH   3   4
ENDBRANCH   2   3
TORSDOF 5
ENDMDL
MODEL       77
REMARK 921   NORMALIZED FREE ENERGY PREDICTED BY IDOCK:   -4.05 KCAL/MOL
REMARK 922        TOTAL FREE ENERGY PREDICTED BY IDOCK:   -5.67 KCAL/MOL
REMARK 923 INTER-LIGAND FREE ENERGY PREDICTED BY IDOCK:   -5.22 KCAL/MOL
REMARK 924 INTRA-LIGAND FREE ENERGY PREDICTED BY IDOCK:   -0.45 KCAL/MOL
REMARK 927      BINDING AFFINITY PREDICTED BY RF-SCORE:    0.00 PKD
ROOT
HETATM    1  C   UNL     1      -7.796   9.728  64.941  1.00  0.00    -0.133 C  
HETATM    2  C   UNL     1      -9.267   9.450  65.199  1.00  0.00    -0.287 C  
ENDROOT
BRANCH   2   3
HETATM    3  C   UNL     1     -10.116  10.720  65.101  1.00  0.00    -0.363 C  
BRANCH   3   4
HETATM    4  C   UNL     1     -10.067  11.287  63.679  1.00  0.00    -0.432 C  
BRANCH   4   5
HETATM    5  C   UNL     1     -10.971  12.508  63.458  1.00  0.00    -0.472 C  
BRANCH   5   6
HETATM    6  C   UNL     1     -11.172  13.389  64.665  1.00  0.00    -0.377 C  
HETATM    7  C   UNL     1     -10.177  14.127  65.196  1.00  0.00    -0.411 C  
HETATM    8  C   UNL     1     -12.528  13.371  65.291  1.00  0.00    -0.483 C  
HETATM    9  O   UNL     1     -13.392  12.566  64.970  1.00  0.00    -0.591 OA 
BRANCH   7  10
HETATM   10  C   UNL     1     -10.316  14.952  66.396  1.00  0.00    -0.291 A  
HETATM   11  C   UNL     1     -10.514  16.333  66.278  1.00  0.00    -0.314 A  
HETATM   12  C   UNL     1     -10.510  17.138  67.417  1.00  0.00    -0.334 A  
HETATM   13  C   UNL     1     -10.311  16.568  68.673  1.00  0.00    -0.287 A  
HETATM   14  C   UNL     1     -10.136  15.190  68.797  1.00  0.00    -0.226 A  
HETATM   15  C   UNL     1     -10.143  14.381  67.660  1.00  0.00    -0.222 A  
ENDBRANCH   7  10
ENDBRANCH   5   6
ENDBRANCH   4   5
ENDBRANCH   3   4
ENDBRANCH   2   3
TORSDOF 5
ENDMDL
MODEL       78
REMARK 921   NORMALIZED FREE ENERGY PREDICTED BY IDOCK:   -4.05 KCAL/MOL
REMARK 922        TOTAL FREE ENERGY PREDICTED BY IDOCK:   -5.67 KCAL/MOL
REMARK 923 INTER-LIGAND FREE ENERGY PREDICTED BY IDOCK:   -5.12 KCAL/MOL
REMARK 924 INTRA-LIGAND FREE ENERGY PREDICTED BY IDOCK:   -0.55 KCAL/MOL
REMARK 927      BINDING AFFINITY PREDICTED BY RF-SCORE:    0.00 PKD
ROOT
HETATM    1  C   UNL     1     -12.053  10.608  70.855  1.00  0.00    -0.489 C  
HETATM    2  C   UNL     1     -12.111  11.691  69.791  1.00  0.00    -0.357 C  
ENDROOT
BRANCH   2   3
HETATM    3  C   UNL     1     -11.022  11.512  68.730  1.00  0.00    -0.271 C  
BRANCH   3   4
HETATM    4  C   UNL     1     -11.044  12.681  67.741  1.00  0.00    -0.287 C  
BRANCH   4   5
HETATM    5  C   UNL     1     -12.005  13.814  68.127  1.00  0.00    -0.394 C  
BRANCH   5   6
HETATM    6  C   UNL     1     -11.351  15.139  68.428  1.00  0.00    -0.326 C  
HETATM    7  C   UNL     1     -10.597  15.795  67.525  1.00  0.00    -0.309 C  
HETATM    8  C   UNL     1     -11.535  15.679  69.808  1.00  0.00    -0.342 C  
HETATM    9  O   UNL     1     -12.034  15.023  70.713  1.00  0.00    -0.275 OA 
BRANCH   7  10
HETATM   10  C   UNL     1      -9.903  17.054  67.793  1.00  0.00    -0.271 A  
HETATM   11  C   UNL     1     -10.545  18.275  67.546  1.00  0.00    -0.432 A  
HETATM   12  C   UNL     1      -9.839  19.471  67.671  1.00  0.00    -0.475 A  
HETATM   13  C   UNL     1      -8.496  19.453  68.045  1.00  0.00    -0.355 A  
HETATM   14  C   UNL     1      -7.861  18.241  68.314  1.00  0.00    -0.310 A  
HETATM   15  C   UNL     1      -8.564  17.043  68.193  1.00  0.00    -0.228 A  
ENDBRANCH   7  10
ENDBRANCH   5   6
ENDBRANCH   4   5
ENDBRANCH   3   4
ENDBRANCH   2   3
TORSDOF 5
ENDMDL
MODEL       79
REMARK 921   NORMALIZED FREE ENERGY PREDICTED BY IDOCK:   -4.01 KCAL/MOL
REMARK 922        TOTAL FREE ENERGY PREDICTED BY IDOCK:   -5.62 KCAL/MOL
REMARK 923 INTER-LIGAND FREE ENERGY PREDICTED BY IDOCK:   -4.96 KCAL/MOL
REMARK 924 INTRA-LIGAND FREE ENERGY PREDICTED BY IDOCK:   -0.65 KCAL/MOL
REMARK 927      BINDING AFFINITY PREDICTED BY RF-SCORE:    0.00 PKD
ROOT
HETATM    1  C   UNL     1     -10.217   5.520  68.795  1.00  0.00    -0.270 C  
HETATM    2  C   UNL     1      -9.676   4.408  69.679  1.00  0.00    -0.289 C  
ENDROOT
BRANCH   2   3
HETATM    3  C   UNL     1      -9.517   4.857  71.134  1.00  0.00    -0.216 C  
BRANCH   3   4
HETATM    4  C   UNL     1     -10.519   4.126  72.031  1.00  0.00    -0.068 C  
BRANCH   4   5
HETATM    5  C   UNL     1     -11.150   5.009  73.117  1.00  0.00    -0.395 C  
BRANCH   5   6
HETATM    6  C   UNL     1     -11.139   6.489  72.832  1.00  0.00    -0.257 C  
HETATM    7  C   UNL     1     -11.988   7.064  71.957  1.00  0.00    -0.334 C  
HETATM    8  C   UNL     1     -10.097   7.299  73.531  1.00  0.00    -0.340 C  
HETATM    9  O   UNL     1      -9.183   6.791  74.167  1.00  0.00    -0.174 OA 
BRANCH   7  10
HETATM   10  C   UNL     1     -11.976   8.485  71.613  1.00  0.00    -0.372 A  
HETATM   11  C   UNL     1     -12.951   9.343  72.138  1.00  0.00    -0.503 A  
HETATM   12  C   UNL     1     -13.022  10.666  71.704  1.00  0.00    -0.582 A  
HETATM   13  C   UNL     1     -12.121  11.137  70.750  1.00  0.00    -0.458 A  
HETATM   14  C   UNL     1     -11.135  10.292  70.242  1.00  0.00    -0.388 A  
HETATM   15  C   UNL     1     -11.058   8.969  70.675  1.00  0.00    -0.314 A  
ENDBRANCH   7  10
ENDBRANCH   5   6
ENDBRANCH   4   5
ENDBRANCH   3   4
ENDBRANCH   2   3
TORSDOF 5
ENDMDL
MODEL       80
REMARK 921   NORMALIZED FREE ENERGY PREDICTED BY IDOCK:   -4.01 KCAL/MOL
REMARK 922        TOTAL FREE ENERGY PREDICTED BY IDOCK:   -5.61 KCAL/MOL
REMARK 923 INTER-LIGAND FREE ENERGY PREDICTED BY IDOCK:   -5.17 KCAL/MOL
REMARK 924 INTRA-LIGAND FREE ENERGY PREDICTED BY IDOCK:   -0.44 KCAL/MOL
REMARK 927      BINDING AFFINITY PREDICTED BY RF-SCORE:    0.00 PKD
ROOT
HETATM    1  C   UNL     1     -10.248   5.108  70.111  1.00  0.00    -0.348 C  
HETATM    2  C   UNL     1     -11.177   6.212  69.634  1.00  0.00    -0.488 C  
ENDROOT
BRANCH   2   3
HETATM    3  C   UNL     1     -11.719   7.048  70.796  1.00  0.00    -0.394 C  
BRANCH   3   4
HETATM    4  C   UNL     1     -10.692   8.103  71.218  1.00  0.00    -0.270 C  
BRANCH   4   5
HETATM    5  C   UNL     1     -11.307   9.439  71.657  1.00  0.00    -0.452 C  
BRANCH   5   6
HETATM    6  C   UNL     1     -11.475  10.461  70.561  1.00  0.00    -0.431 C  
HETATM    7  C   UNL     1     -10.626  10.552  69.519  1.00  0.00    -0.278 C  
HETATM    8  C   UNL     1     -12.612  11.420  70.706  1.00  0.00    -0.316 C  
HETATM    9  O   UNL     1     -13.277  11.504  71.731  1.00  0.00    -0.457 OA 
BRANCH   7  10
HETATM   10  C   UNL     1     -10.723  11.561  68.464  1.00  0.00    -0.242 A  
HETATM   11  C   UNL     1     -10.251  12.860  68.691  1.00  0.00    -0.170 A  
HETATM   12  C   UNL     1     -10.467  13.855  67.738  1.00  0.00    -0.243 A  
HETATM   13  C   UNL     1     -11.149  13.558  66.560  1.00  0.00    -0.310 A  
HETATM   14  C   UNL     1     -11.600  12.260  66.321  1.00  0.00    -0.446 A  
HETATM   15  C   UNL     1     -11.383  11.260  67.269  1.00  0.00    -0.329 A  
ENDBRANCH   7  10
ENDBRANCH   5   6
ENDBRANCH   4   5
ENDBRANCH   3   4
ENDBRANCH   2   3
TORSDOF 5
ENDMDL
MODEL       81
REMARK 921   NORMALIZED FREE ENERGY PREDICTED BY IDOCK:   -4.00 KCAL/MOL
REMARK 922        TOTAL FREE ENERGY PREDICTED BY IDOCK:   -5.60 KCAL/MOL
REMARK 923 INTER-LIGAND FREE ENERGY PREDICTED BY IDOCK:   -5.07 KCAL/MOL
REMARK 924 INTRA-LIGAND FREE ENERGY PREDICTED BY IDOCK:   -0.54 KCAL/MOL
REMARK 927      BINDING AFFINITY PREDICTED BY RF-SCORE:    0.00 PKD
ROOT
HETATM    1  C   UNL     1     -13.474  13.962  72.479  1.00  0.00    -0.676 C  
HETATM    2  C   UNL     1     -13.722  14.849  71.271  1.00  0.00    -0.505 C  
ENDROOT
BRANCH   2   3
HETATM    3  C   UNL     1     -12.558  15.810  71.015  1.00  0.00    -0.470 C  
BRANCH   3   4
HETATM    4  C   UNL     1     -11.541  15.175  70.063  1.00  0.00    -0.326 C  
BRANCH   4   5
HETATM    5  C   UNL     1     -12.023  15.066  68.609  1.00  0.00    -0.278 C  
BRANCH   5   6
HETATM    6  C   UNL     1     -11.694  13.768  67.917  1.00  0.00    -0.395 C  
HETATM    7  C   UNL     1     -10.880  12.843  68.462  1.00  0.00    -0.283 C  
HETATM    8  C   UNL     1     -12.276  13.567  66.556  1.00  0.00    -0.380 C  
HETATM    9  O   UNL     1     -12.846  14.461  65.944  1.00  0.00    -0.359 OA 
BRANCH   7  10
HETATM   10  C   UNL     1     -10.494  11.596  67.802  1.00  0.00    -0.213 A  
HETATM   11  C   UNL     1     -11.196  10.414  68.070  1.00  0.00    -0.340 A  
HETATM   12  C   UNL     1     -10.745   9.202  67.548  1.00  0.00    -0.255 A  
HETATM   13  C   UNL     1      -9.598   9.166  66.757  1.00  0.00    -0.253 A  
HETATM   14  C   UNL     1      -8.909  10.344  66.470  1.00  0.00    -0.150 A  
HETATM   15  C   UNL     1      -9.359  11.559  66.987  1.00  0.00    -0.185 A  
ENDBRANCH   7  10
ENDBRANCH   5   6
ENDBRANCH   4   5
ENDBRANCH   3   4
ENDBRANCH   2   3
TORSDOF 5
ENDMDL
MODEL       82
REMARK 921   NORMALIZED FREE ENERGY PREDICTED BY IDOCK:   -3.98 KCAL/MOL
REMARK 922        TOTAL FREE ENERGY PREDICTED BY IDOCK:   -5.58 KCAL/MOL
REMARK 923 INTER-LIGAND FREE ENERGY PREDICTED BY IDOCK:   -5.20 KCAL/MOL
REMARK 924 INTRA-LIGAND FREE ENERGY PREDICTED BY IDOCK:   -0.38 KCAL/MOL
REMARK 927      BINDING AFFINITY PREDICTED BY RF-SCORE:    0.00 PKD
ROOT
HETATM    1  C   UNL     1     -10.355   5.135  66.720  1.00  0.00    -0.306 C  
HETATM    2  C   UNL     1     -11.082   6.461  66.872  1.00  0.00    -0.346 C  
ENDROOT
BRANCH   2   3
HETATM    3  C   UNL     1     -10.544   7.280  68.048  1.00  0.00    -0.247 C  
BRANCH   3   4
HETATM    4  C   UNL     1     -10.311   8.733  67.625  1.00  0.00    -0.317 C  
BRANCH   4   5
HETATM    5  C   UNL     1     -10.905   9.770  68.588  1.00  0.00    -0.223 C  
BRANCH   5   6
HETATM    6  C   UNL     1     -11.162  11.131  67.991  1.00  0.00    -0.359 C  
HETATM    7  C   UNL     1     -10.830  11.439  66.722  1.00  0.00    -0.336 C  
HETATM    8  C   UNL     1     -11.764  12.157  68.895  1.00  0.00    -0.327 C  
HETATM    9  O   UNL     1     -11.888  11.983  70.100  1.00  0.00    -0.335 OA 
BRANCH   7  10
HETATM   10  C   UNL     1     -11.015  12.760  66.121  1.00  0.00    -0.310 A  
HETATM   11  C   UNL     1     -12.162  13.033  65.366  1.00  0.00    -0.520 A  
HETATM   12  C   UNL     1     -12.275  14.242  64.682  1.00  0.00    -0.470 A  
HETATM   13  C   UNL     1     -11.247  15.182  64.751  1.00  0.00    -0.396 A  
HETATM   14  C   UNL     1     -10.113  14.922  65.521  1.00  0.00    -0.400 A  
HETATM   15  C   UNL     1      -9.998  13.715  66.210  1.00  0.00    -0.305 A  
ENDBRANCH   7  10
ENDBRANCH   5   6
ENDBRANCH   4   5
ENDBRANCH   3   4
ENDBRANCH   2   3
TORSDOF 5
ENDMDL
MODEL       83
REMARK 921   NORMALIZED FREE ENERGY PREDICTED BY IDOCK:   -3.97 KCAL/MOL
REMARK 922        TOTAL FREE ENERGY PREDICTED BY IDOCK:   -5.57 KCAL/MOL
REMARK 923 INTER-LIGAND FREE ENERGY PREDICTED BY IDOCK:   -4.82 KCAL/MOL
REMARK 924 INTRA-LIGAND FREE ENERGY PREDICTED BY IDOCK:   -0.75 KCAL/MOL
REMARK 927      BINDING AFFINITY PREDICTED BY RF-SCORE:    0.00 PKD
ROOT
HETATM    1  C   UNL     1     -10.061   5.659  69.328  1.00  0.00    -0.281 C  
HETATM    2  C   UNL     1      -9.808   4.951  70.648  1.00  0.00    -0.289 C  
ENDROOT
BRANCH   2   3
HETATM    3  C   UNL     1      -9.430   5.932  71.762  1.00  0.00    -0.168 C  
BRANCH   3   4
HETATM    4  C   UNL     1     -10.588   6.087  72.752  1.00  0.00    -0.254 C  
BRANCH   4   5
HETATM    5  C   UNL     1     -11.016   7.541  72.995  1.00  0.00    -0.443 C  
BRANCH   5   6
HETATM    6  C   UNL     1     -11.441   8.302  71.766  1.00  0.00    -0.353 C  
HETATM    7  C   UNL     1     -10.720   9.323  71.261  1.00  0.00    -0.422 C  
HETATM    8  C   UNL     1     -12.743   7.907  71.148  1.00  0.00    -0.151 C  
HETATM    9  O   UNL     1     -13.522   7.133  71.689  1.00  0.00    -0.379 OA 
BRANCH   7  10
HETATM   10  C   UNL     1     -11.123  10.120  70.102  1.00  0.00    -0.378 A  
HETATM   11  C   UNL     1     -10.781   9.701  68.810  1.00  0.00    -0.234 A  
HETATM   12  C   UNL     1     -11.045  10.528  67.718  1.00  0.00    -0.382 A  
HETATM   13  C   UNL     1     -11.650  11.768  67.911  1.00  0.00    -0.377 A  
HETATM   14  C   UNL     1     -12.012  12.178  69.194  1.00  0.00    -0.311 A  
HETATM   15  C   UNL     1     -11.754  11.353  70.289  1.00  0.00    -0.397 A  
ENDBRANCH   7  10
ENDBRANCH   5   6
ENDBRANCH   4   5
ENDBRANCH   3   4
ENDBRANCH   2   3
TORSDOF 5
ENDMDL
MODEL       84
REMARK 921   NORMALIZED FREE ENERGY PREDICTED BY IDOCK:   -3.95 KCAL/MOL
REMARK 922        TOTAL FREE ENERGY PREDICTED BY IDOCK:   -5.54 KCAL/MOL
REMARK 923 INTER-LIGAND FREE ENERGY PREDICTED BY IDOCK:   -5.11 KCAL/MOL
REMARK 924 INTRA-LIGAND FREE ENERGY PREDICTED BY IDOCK:   -0.43 KCAL/MOL
REMARK 927      BINDING AFFINITY PREDICTED BY RF-SCORE:    0.00 PKD
ROOT
HETATM    1  C   UNL     1     -10.583   5.912  69.471  1.00  0.00    -0.378 C  
HETATM    2  C   UNL     1     -11.268   6.765  68.417  1.00  0.00    -0.146 C  
ENDROOT
BRANCH   2   3
HETATM    3  C   UNL     1     -10.557   6.686  67.063  1.00  0.00    -0.404 C  
BRANCH   3   4
HETATM    4  C   UNL     1     -10.124   8.081  66.606  1.00  0.00    -0.329 C  
BRANCH   4   5
HETATM    5  C   UNL     1     -10.341   9.182  67.654  1.00  0.00    -0.314 C  
BRANCH   5   6
HETATM    6  C   UNL     1     -10.766  10.520  67.105  1.00  0.00    -0.323 C  
HETATM    7  C   UNL     1     -10.256  11.031  65.967  1.00  0.00    -0.305 C  
HETATM    8  C   UNL     1     -11.755  11.294  67.914  1.00  0.00    -0.214 C  
HETATM    9  O   UNL     1     -12.084  10.964  69.046  1.00  0.00    -0.417 OA 
BRANCH   7  10
HETATM   10  C   UNL     1     -10.602  12.346  65.428  1.00  0.00    -0.316 A  
HETATM   11  C   UNL     1      -9.928  13.488  65.879  1.00  0.00    -0.295 A  
HETATM   12  C   UNL     1     -10.348  14.753  65.469  1.00  0.00    -0.387 A  
HETATM   13  C   UNL     1     -11.438  14.881  64.608  1.00  0.00    -0.380 A  
HETATM   14  C   UNL     1     -12.097  13.745  64.140  1.00  0.00    -0.478 A  
HETATM   15  C   UNL     1     -11.677  12.477  64.545  1.00  0.00    -0.423 A  
ENDBRANCH   7  10
ENDBRANCH   5   6
ENDBRANCH   4   5
ENDBRANCH   3   4
ENDBRANCH   2   3
TORSDOF 5
ENDMDL
MODEL       85
REMARK 921   NORMALIZED FREE ENERGY PREDICTED BY IDOCK:   -3.93 KCAL/MOL
REMARK 922        TOTAL FREE ENERGY PREDICTED BY IDOCK:   -5.52 KCAL/MOL
REMARK 923 INTER-LIGAND FREE ENERGY PREDICTED BY IDOCK:   -5.18 KCAL/MOL
REMARK 924 INTRA-LIGAND FREE ENERGY PREDICTED BY IDOCK:   -0.34 KCAL/MOL
REMARK 927      BINDING AFFINITY PREDICTED BY RF-SCORE:    0.00 PKD
ROOT
HETATM    1  C   UNL     1     -10.291   5.624  70.047  1.00  0.00    -0.345 C  
HETATM    2  C   UNL     1     -11.285   6.398  69.197  1.00  0.00    -0.421 C  
ENDROOT
BRANCH   2   3
HETATM    3  C   UNL     1     -10.740   6.686  67.796  1.00  0.00    -0.352 C  
BRANCH   3   4
HETATM    4  C   UNL     1     -10.409   8.174  67.648  1.00  0.00    -0.313 C  
BRANCH   4   5
HETATM    5  C   UNL     1      -9.632   8.521  66.370  1.00  0.00    -0.314 C  
BRANCH   5   6
HETATM    6  C   UNL     1      -9.873   9.905  65.824  1.00  0.00    -0.356 C  
HETATM    7  C   UNL     1     -10.560  10.843  66.507  1.00  0.00    -0.295 C  
HETATM    8  C   UNL     1      -9.356  10.185  64.451  1.00  0.00    -0.293 C  
HETATM    9  O   UNL     1      -8.913   9.307  63.722  1.00  0.00    -0.183 OA 
BRANCH   7  10
HETATM   10  C   UNL     1     -10.861  12.178  65.992  1.00  0.00    -0.318 A  
HETATM   11  C   UNL     1     -12.014  12.392  65.228  1.00  0.00    -0.461 A  
HETATM   12  C   UNL     1     -12.231  13.630  64.624  1.00  0.00    -0.448 A  
HETATM   13  C   UNL     1     -11.301  14.657  64.783  1.00  0.00    -0.398 A  
HETATM   14  C   UNL     1     -10.162  14.454  65.563  1.00  0.00    -0.386 A  
HETATM   15  C   UNL     1      -9.944  13.218  66.171  1.00  0.00    -0.295 A  
ENDBRANCH   7  10
ENDBRANCH   5   6
ENDBRANCH   4   5
ENDBRANCH   3   4
ENDBRANCH   2   3
TORSDOF 5
ENDMDL
MODEL       86
REMARK 921   NORMALIZED FREE ENERGY PREDICTED BY IDOCK:   -3.92 KCAL/MOL
REMARK 922        TOTAL FREE ENERGY PREDICTED BY IDOCK:   -5.50 KCAL/MOL
REMARK 923 INTER-LIGAND FREE ENERGY PREDICTED BY IDOCK:   -4.97 KCAL/MOL
REMARK 924 INTRA-LIGAND FREE ENERGY PREDICTED BY IDOCK:   -0.52 KCAL/MOL
REMARK 927      BINDING AFFINITY PREDICTED BY RF-SCORE:    0.00 PKD
ROOT
HETATM    1  C   UNL     1      -6.555  20.234  65.151  1.00  0.00    -0.333 C  
HETATM    2  C   UNL     1      -6.127  20.965  66.412  1.00  0.00    -0.305 C  
ENDROOT
BRANCH   2   3
HETATM    3  C   UNL     1      -6.973  20.565  67.624  1.00  0.00    -0.364 C  
BRANCH   3   4
HETATM    4  C   UNL     1      -8.419  20.292  67.198  1.00  0.00    -0.407 C  
BRANCH   4   5
HETATM    5  C   UNL     1      -9.210  19.419  68.183  1.00  0.00    -0.395 C  
BRANCH   5   6
HETATM    6  C   UNL     1      -9.383  17.979  67.772  1.00  0.00    -0.263 C  
HETATM    7  C   UNL     1     -10.418  17.560  67.017  1.00  0.00    -0.293 C  
HETATM    8  C   UNL     1      -8.371  17.008  68.287  1.00  0.00    -0.228 C  
HETATM    9  O   UNL     1      -7.542  17.308  69.136  1.00  0.00    -0.214 OA 
BRANCH   7  10
HETATM   10  C   UNL     1     -10.650  16.166  66.641  1.00  0.00    -0.274 A  
HETATM   11  C   UNL     1     -10.230  15.698  65.391  1.00  0.00    -0.401 A  
HETATM   12  C   UNL     1     -10.571  14.410  64.978  1.00  0.00    -0.452 A  
HETATM   13  C   UNL     1     -11.329  13.588  65.811  1.00  0.00    -0.318 A  
HETATM   14  C   UNL     1     -11.730  14.044  67.066  1.00  0.00    -0.425 A  
HETATM   15  C   UNL     1     -11.388  15.330  67.484  1.00  0.00    -0.300 A  
ENDBRANCH   7  10
ENDBRANCH   5   6
ENDBRANCH   4   5
ENDBRANCH   3   4
ENDBRANCH   2   3
TORSDOF 5
ENDMDL
MODEL       87
REMARK 921   NORMALIZED FREE ENERGY PREDICTED BY IDOCK:   -3.90 KCAL/MOL
REMARK 922        TOTAL FREE ENERGY PREDICTED BY IDOCK:   -5.48 KCAL/MOL
REMARK 923 INTER-LIGAND FREE ENERGY PREDICTED BY IDOCK:   -4.90 KCAL/MOL
REMARK 924 INTRA-LIGAND FREE ENERGY PREDICTED BY IDOCK:   -0.57 KCAL/MOL
REMARK 927      BINDING AFFINITY PREDICTED BY RF-SCORE:    0.00 PKD
ROOT
HETATM    1  C   UNL     1      -8.395  10.459  69.188  1.00  0.00    -0.160 C  
HETATM    2  C   UNL     1      -7.787  10.700  67.817  1.00  0.00    -0.108 C  
ENDROOT
BRANCH   2   3
HETATM    3  C   UNL     1      -7.966  12.148  67.356  1.00  0.00    -0.168 C  
BRANCH   3   4
HETATM    4  C   UNL     1      -9.314  12.320  66.649  1.00  0.00    -0.228 C  
BRANCH   4   5
HETATM    5  C   UNL     1      -9.882  13.745  66.716  1.00  0.00    -0.275 C  
BRANCH   5   6
HETATM    6  C   UNL     1     -11.021  13.940  67.685  1.00  0.00    -0.278 C  
HETATM    7  C   UNL     1     -10.842  13.950  69.020  1.00  0.00    -0.253 C  
HETATM    8  C   UNL     1     -12.387  14.072  67.095  1.00  0.00    -0.199 C  
HETATM    9  O   UNL     1     -12.618  13.862  65.911  1.00  0.00    -0.478 OA 
BRANCH   7  10
HETATM   10  C   UNL     1     -11.926  14.084  69.994  1.00  0.00    -0.404 A  
HETATM   11  C   UNL     1     -12.417  15.352  70.327  1.00  0.00    -0.413 A  
HETATM   12  C   UNL     1     -13.353  15.490  71.352  1.00  0.00    -0.592 A  
HETATM   13  C   UNL     1     -13.801  14.365  72.043  1.00  0.00    -0.567 A  
HETATM   14  C   UNL     1     -13.331  13.098  71.698  1.00  0.00    -0.393 A  
HETATM   15  C   UNL     1     -12.398  12.956  70.672  1.00  0.00    -0.385 A  
ENDBRANCH   7  10
ENDBRANCH   5   6
ENDBRANCH   4   5
ENDBRANCH   3   4
ENDBRANCH   2   3
TORSDOF 5
ENDMDL
MODEL       88
REMARK 921   NORMALIZED FREE ENERGY PREDICTED BY IDOCK:   -3.86 KCAL/MOL
REMARK 922        TOTAL FREE ENERGY PREDICTED BY IDOCK:   -5.42 KCAL/MOL
REMARK 923 INTER-LIGAND FREE ENERGY PREDICTED BY IDOCK:   -5.01 KCAL/MOL
REMARK 924 INTRA-LIGAND FREE ENERGY PREDICTED BY IDOCK:   -0.40 KCAL/MOL
REMARK 927      BINDING AFFINITY PREDICTED BY RF-SCORE:    0.00 PKD
ROOT
HETATM    1  C   UNL     1     -13.008  13.895  65.458  1.00  0.00    -0.375 C  
HETATM    2  C   UNL     1     -11.788  14.385  64.696  1.00  0.00    -0.460 C  
ENDROOT
BRANCH   2   3
HETATM    3  C   UNL     1     -10.516  13.642  65.111  1.00  0.00    -0.388 C  
BRANCH   3   4
HETATM    4  C   UNL     1     -10.778  12.789  66.356  1.00  0.00    -0.282 C  
BRANCH   4   5
HETATM    5  C   UNL     1      -9.820  11.600  66.516  1.00  0.00    -0.228 C  
BRANCH   5   6
HETATM    6  C   UNL     1     -10.178  10.627  67.611  1.00  0.00    -0.229 C  
HETATM    7  C   UNL     1     -10.287  10.998  68.902  1.00  0.00    -0.223 C  
HETATM    8  C   UNL     1     -10.360   9.200  67.207  1.00  0.00    -0.270 C  
HETATM    9  O   UNL     1     -10.070   8.788  66.092  1.00  0.00    -0.269 OA 
BRANCH   7  10
HETATM   10  C   UNL     1     -10.580  10.077  70.000  1.00  0.00    -0.344 A  
HETATM   11  C   UNL     1     -11.884   9.975  70.500  1.00  0.00    -0.387 A  
HETATM   12  C   UNL     1     -12.138   9.202  71.633  1.00  0.00    -0.432 A  
HETATM   13  C   UNL     1     -11.094   8.528  72.265  1.00  0.00    -0.430 A  
HETATM   14  C   UNL     1      -9.799   8.609  71.757  1.00  0.00    -0.365 A  
HETATM   15  C   UNL     1      -9.541   9.379  70.622  1.00  0.00    -0.331 A  
ENDBRANCH   7  10
ENDBRANCH   5   6
ENDBRANCH   4   5
ENDBRANCH   3   4
ENDBRANCH   2   3
TORSDOF 5
ENDMDL
MODEL       89
REMARK 921   NORMALIZED FREE ENERGY PREDICTED BY IDOCK:   -3.85 KCAL/MOL
REMARK 922        TOTAL FREE ENERGY PREDICTED BY IDOCK:   -5.40 KCAL/MOL
REMARK 923 INTER-LIGAND FREE ENERGY PREDICTED BY IDOCK:   -5.00 KCAL/MOL
REMARK 924 INTRA-LIGAND FREE ENERGY PREDICTED BY IDOCK:   -0.40 KCAL/MOL
REMARK 927      BINDING AFFINITY PREDICTED BY RF-SCORE:    0.00 PKD
ROOT
HETATM    1  C   UNL     1     -11.668  12.046  63.820  1.00  0.00    -0.575 C  
HETATM    2  C   UNL     1     -10.350  11.488  64.332  1.00  0.00    -0.364 C  
ENDROOT
BRANCH   2   3
HETATM    3  C   UNL     1      -9.860  12.227  65.580  1.00  0.00    -0.247 C  
BRANCH   3   4
HETATM    4  C   UNL     1      -9.251  11.241  66.580  1.00  0.00    -0.191 C  
BRANCH   4   5
HETATM    5  C   UNL     1      -9.415  11.654  68.050  1.00  0.00    -0.185 C  
BRANCH   5   6
HETATM    6  C   UNL     1     -10.281  10.743  68.882  1.00  0.00    -0.219 C  
HETATM    7  C   UNL     1      -9.779   9.711  69.587  1.00  0.00    -0.230 C  
HETATM    8  C   UNL     1     -11.752  11.004  68.851  1.00  0.00    -0.330 C  
HETATM    9  O   UNL     1     -12.266  11.792  68.069  1.00  0.00    -0.518 OA 
BRANCH   7  10
HETATM   10  C   UNL     1     -10.589   8.773  70.364  1.00  0.00    -0.251 A  
HETATM   11  C   UNL     1     -10.880   9.043  71.707  1.00  0.00    -0.437 A  
HETATM   12  C   UNL     1     -11.535   8.088  72.484  1.00  0.00    -0.471 A  
HETATM   13  C   UNL     1     -11.904   6.866  71.924  1.00  0.00    -0.351 A  
HETATM   14  C   UNL     1     -11.636   6.603  70.580  1.00  0.00    -0.439 A  
HETATM   15  C   UNL     1     -10.984   7.557  69.799  1.00  0.00    -0.195 A  
ENDBRANCH   7  10
ENDBRANCH   5   6
ENDBRANCH   4   5
ENDBRANCH   3   4
ENDBRANCH   2   3
TORSDOF 5
ENDMDL
MODEL       90
REMARK 921   NORMALIZED FREE ENERGY PREDICTED BY IDOCK:   -3.84 KCAL/MOL
REMARK 922        TOTAL FREE ENERGY PREDICTED BY IDOCK:   -5.40 KCAL/MOL
REMARK 923 INTER-LIGAND FREE ENERGY PREDICTED BY IDOCK:   -4.86 KCAL/MOL
REMARK 924 INTRA-LIGAND FREE ENERGY PREDICTED BY IDOCK:   -0.54 KCAL/MOL
REMARK 927      BINDING AFFINITY PREDICTED BY RF-SCORE:    0.00 PKD
ROOT
HETATM    1  C   UNL     1      -6.402  12.959  67.921  1.00  0.00    -0.125 C  
HETATM    2  C   UNL     1      -7.588  13.909  67.941  1.00  0.00    -0.158 C  
ENDROOT
BRANCH   2   3
HETATM    3  C   UNL     1      -8.907  13.176  68.197  1.00  0.00    -0.194 C  
BRANCH   3   4
HETATM    4  C   UNL     1      -9.766  13.165  66.929  1.00  0.00    -0.243 C  
BRANCH   4   5
HETATM    5  C   UNL     1     -11.092  13.928  67.062  1.00  0.00    -0.311 C  
BRANCH   5   6
HETATM    6  C   UNL     1     -10.961  15.394  67.388  1.00  0.00    -0.312 C  
HETATM    7  C   UNL     1     -10.228  16.240  66.638  1.00  0.00    -0.287 C  
HETATM    8  C   UNL     1     -11.648  15.870  68.626  1.00  0.00    -0.380 C  
HETATM    9  O   UNL     1     -12.147  15.104  69.439  1.00  0.00    -0.302 OA 
BRANCH   7  10
HETATM   10  C   UNL     1     -10.033  17.656  66.947  1.00  0.00    -0.323 A  
HETATM   11  C   UNL     1     -10.562  18.638  66.101  1.00  0.00    -0.409 A  
HETATM   12  C   UNL     1     -10.262  19.982  66.320  1.00  0.00    -0.595 A  
HETATM   13  C   UNL     1      -9.437  20.349  67.383  1.00  0.00    -0.561 A  
HETATM   14  C   UNL     1      -8.927  19.375  68.241  1.00  0.00    -0.384 A  
HETATM   15  C   UNL     1      -9.228  18.030  68.028  1.00  0.00    -0.273 A  
ENDBRANCH   7  10
ENDBRANCH   5   6
ENDBRANCH   4   5
ENDBRANCH   3   4
ENDBRANCH   2   3
TORSDOF 5
ENDMDL
MODEL       91
REMARK 921   NORMALIZED FREE ENERGY PREDICTED BY IDOCK:   -3.84 KCAL/MOL
REMARK 922        TOTAL FREE ENERGY PREDICTED BY IDOCK:   -5.39 KCAL/MOL
REMARK 923 INTER-LIGAND FREE ENERGY PREDICTED BY IDOCK:   -4.88 KCAL/MOL
REMARK 924 INTRA-LIGAND FREE ENERGY PREDICTED BY IDOCK:   -0.51 KCAL/MOL
REMARK 927      BINDING AFFINITY PREDICTED BY RF-SCORE:    0.00 PKD
ROOT
HETATM    1  C   UNL     1     -12.313   7.156  71.276  1.00  0.00    -0.418 C  
HETATM    2  C   UNL     1     -12.286   8.121  72.450  1.00  0.00    -0.374 C  
ENDROOT
BRANCH   2   3
HETATM    3  C   UNL     1     -13.402   9.164  72.361  1.00  0.00    -0.527 C  
BRANCH   3   4
HETATM    4  C   UNL     1     -13.262   9.989  71.079  1.00  0.00    -0.399 C  
BRANCH   4   5
HETATM    5  C   UNL     1     -11.927  10.736  70.955  1.00  0.00    -0.438 C  
BRANCH   5   6
HETATM    6  C   UNL     1     -11.064  10.325  69.789  1.00  0.00    -0.340 C  
HETATM    7  C   UNL     1     -11.478  10.427  68.510  1.00  0.00    -0.231 C  
HETATM    8  C   UNL     1      -9.728   9.742  70.115  1.00  0.00    -0.248 C  
HETATM    9  O   UNL     1      -9.400   9.443  71.256  1.00  0.00    -0.246 OA 
BRANCH   7  10
HETATM   10  C   UNL     1     -10.694   9.991  67.355  1.00  0.00    -0.336 A  
HETATM   11  C   UNL     1     -10.408   8.632  67.173  1.00  0.00    -0.369 A  
HETATM   12  C   UNL     1      -9.549   8.232  66.151  1.00  0.00    -0.217 A  
HETATM   13  C   UNL     1      -8.976   9.182  65.308  1.00  0.00    -0.246 A  
HETATM   14  C   UNL     1      -9.276  10.534  65.472  1.00  0.00    -0.223 A  
HETATM   15  C   UNL     1     -10.138  10.939  66.491  1.00  0.00    -0.269 A  
ENDBRANCH   7  10
ENDBRANCH   5   6
ENDBRANCH   4   5
ENDBRANCH   3   4
ENDBRANCH   2   3
TORSDOF 5
ENDMDL
MODEL       92
REMARK 921   NORMALIZED FREE ENERGY PREDICTED BY IDOCK:   -3.83 KCAL/MOL
REMARK 922        TOTAL FREE ENERGY PREDICTED BY IDOCK:   -5.38 KCAL/MOL
REMARK 923 INTER-LIGAND FREE ENERGY PREDICTED BY IDOCK:   -5.10 KCAL/MOL
REMARK 924 INTRA-LIGAND FREE ENERGY PREDICTED BY IDOCK:   -0.28 KCAL/MOL
REMARK 927      BINDING AFFINITY PREDICTED BY RF-SCORE:    0.00 PKD
ROOT
HETATM    1  C   UNL     1     -12.525  15.933  74.170  1.00  0.00    -0.776 C  
HETATM    2  C   UNL     1     -13.407  15.560  72.990  1.00  0.00    -0.650 C  
ENDROOT
BRANCH   2   3
HETATM    3  C   UNL     1     -12.740  14.528  72.078  1.00  0.00    -0.410 C  
BRANCH   3   4
HETATM    4  C   UNL     1     -12.251  15.193  70.788  1.00  0.00    -0.392 C  
BRANCH   4   5
HETATM    5  C   UNL     1     -11.258  14.344  69.981  1.00  0.00    -0.193 C  
BRANCH   5   6
HETATM    6  C   UNL     1     -10.468  15.094  68.938  1.00  0.00    -0.241 C  
HETATM    7  C   UNL     1      -9.373  15.818  69.241  1.00  0.00    -0.261 C  
HETATM    8  C   UNL     1     -10.988  15.043  67.538  1.00  0.00    -0.307 C  
HETATM    9  O   UNL     1     -12.083  14.574  67.258  1.00  0.00    -0.392 OA 
BRANCH   7  10
HETATM   10  C   UNL     1      -8.610  16.601  68.270  1.00  0.00    -0.212 A  
HETATM   11  C   UNL     1      -9.130  17.804  67.776  1.00  0.00    -0.249 A  
HETATM   12  C   UNL     1      -8.468  18.480  66.751  1.00  0.00    -0.290 A  
HETATM   13  C   UNL     1      -7.289  17.960  66.220  1.00  0.00    -0.327 A  
HETATM   14  C   UNL     1      -6.757  16.774  66.725  1.00  0.00    -0.257 A  
HETATM   15  C   UNL     1      -7.413  16.097  67.752  1.00  0.00    -0.150 A  
ENDBRANCH   7  10
ENDBRANCH   5   6
ENDBRANCH   4   5
ENDBRANCH   3   4
ENDBRANCH   2   3
TORSDOF 5
ENDMDL
MODEL       93
REMARK 921   NORMALIZED FREE ENERGY PREDICTED BY IDOCK:   -3.83 KCAL/MOL
REMARK 922        TOTAL FREE ENERGY PREDICTED BY IDOCK:   -5.38 KCAL/MOL
REMARK 923 INTER-LIGAND FREE ENERGY PREDICTED BY IDOCK:   -4.76 KCAL/MOL
REMARK 924 INTRA-LIGAND FREE ENERGY PREDICTED BY IDOCK:   -0.61 KCAL/MOL
REMARK 927      BINDING AFFINITY PREDICTED BY RF-SCORE:    0.00 PKD
ROOT
HETATM    1  C   UNL     1     -10.819  16.273  64.879  1.00  0.00    -0.315 C  
HETATM    2  C   UNL     1      -9.840  16.141  66.033  1.00  0.00    -0.375 C  
ENDROOT
BRANCH   2   3
HETATM    3  C   UNL     1     -10.509  16.402  67.385  1.00  0.00    -0.309 C  
BRANCH   3   4
HETATM    4  C   UNL     1     -10.756  15.083  68.122  1.00  0.00    -0.256 C  
BRANCH   4   5
HETATM    5  C   UNL     1     -11.851  14.208  67.494  1.00  0.00    -0.437 C  
BRANCH   5   6
HETATM    6  C   UNL     1     -11.366  12.943  66.835  1.00  0.00    -0.358 C  
HETATM    7  C   UNL     1     -10.410  12.164  67.378  1.00  0.00    -0.220 C  
HETATM    8  C   UNL     1     -11.961  12.608  65.506  1.00  0.00    -0.456 C  
HETATM    9  O   UNL     1     -12.673  13.387  64.887  1.00  0.00    -0.633 OA 
BRANCH   7  10
HETATM   10  C   UNL     1      -9.874  10.958  66.746  1.00  0.00    -0.231 A  
HETATM   11  C   UNL     1     -10.416   9.705  67.056  1.00  0.00    -0.302 A  
HETATM   12  C   UNL     1      -9.819   8.546  66.561  1.00  0.00    -0.342 A  
HETATM   13  C   UNL     1      -8.685   8.634  65.755  1.00  0.00    -0.212 A  
HETATM   14  C   UNL     1      -8.156   9.882  65.426  1.00  0.00    -0.137 A  
HETATM   15  C   UNL     1      -8.753  11.044  65.916  1.00  0.00    -0.182 A  
ENDBRANCH   7  10
ENDBRANCH   5   6
ENDBRANCH   4   5
ENDBRANCH   3   4
ENDBRANCH   2   3
TORSDOF 5
ENDMDL
MODEL       94
REMARK 921   NORMALIZED FREE ENERGY PREDICTED BY IDOCK:   -3.82 KCAL/MOL
REMARK 922        TOTAL FREE ENERGY PREDICTED BY IDOCK:   -5.37 KCAL/MOL
REMARK 923 INTER-LIGAND FREE ENERGY PREDICTED BY IDOCK:   -4.87 KCAL/MOL
REMARK 924 INTRA-LIGAND FREE ENERGY PREDICTED BY IDOCK:   -0.50 KCAL/MOL
REMARK 927      BINDING AFFINITY PREDICTED BY RF-SCORE:    0.00 PKD
ROOT
HETATM    1  C   UNL     1      -9.600  14.364  68.444  1.00  0.00    -0.219 C  
HETATM    2  C   UNL     1     -10.978  14.111  69.031  1.00  0.00    -0.286 C  
ENDROOT
BRANCH   2   3
HETATM    3  C   UNL     1     -12.094  14.645  68.128  1.00  0.00    -0.199 C  
BRANCH   3   4
HETATM    4  C   UNL     1     -11.646  14.636  66.664  1.00  0.00    -0.359 C  
BRANCH   4   5
HETATM    5  C   UNL     1     -12.476  13.715  65.758  1.00  0.00    -0.524 C  
BRANCH   5   6
HETATM    6  C   UNL     1     -11.790  12.443  65.330  1.00  0.00    -0.451 C  
HETATM    7  C   UNL     1     -10.820  11.862  66.062  1.00  0.00    -0.342 C  
HETATM    8  C   UNL     1     -12.199  11.871  64.012  1.00  0.00    -0.339 C  
HETATM    9  O   UNL     1     -12.920  12.473  63.227  1.00  0.00    -0.634 OA 
BRANCH   7  10
HETATM   10  C   UNL     1     -10.093  10.658  65.658  1.00  0.00    -0.335 A  
HETATM   11  C   UNL     1     -10.168   9.498  66.439  1.00  0.00    -0.302 A  
HETATM   12  C   UNL     1      -9.370   8.397  66.129  1.00  0.00    -0.267 A  
HETATM   13  C   UNL     1      -8.500   8.450  65.040  1.00  0.00    -0.160 A  
HETATM   14  C   UNL     1      -8.440   9.595  64.247  1.00  0.00    -0.188 A  
HETATM   15  C   UNL     1      -9.239  10.697  64.552  1.00  0.00    -0.264 A  
ENDBRANCH   7  10
ENDBRANCH   5   6
ENDBRANCH   4   5
ENDBRANCH   3   4
ENDBRANCH   2   3
TORSDOF 5
ENDMDL
MODEL       95
REMARK 921   NORMALIZED FREE ENERGY PREDICTED BY IDOCK:   -3.82 KCAL/MOL
REMARK 922        TOTAL FREE ENERGY PREDICTED BY IDOCK:   -5.37 KCAL/MOL
REMARK 923 INTER-LIGAND FREE ENERGY PREDICTED BY IDOCK:   -4.94 KCAL/MOL
REMARK 924 INTRA-LIGAND FREE ENERGY PREDICTED BY IDOCK:   -0.44 KCAL/MOL
REMARK 927      BINDING AFFINITY PREDICTED BY RF-SCORE:    0.00 PKD
ROOT
HETATM    1  C   UNL     1     -12.298  13.940  66.103  1.00  0.00    -0.504 C  
HETATM    2  C   UNL     1     -11.307  13.759  67.240  1.00  0.00    -0.343 C  
ENDROOT
BRANCH   2   3
HETATM    3  C   UNL     1     -11.982  13.850  68.611  1.00  0.00    -0.401 C  
BRANCH   3   4
HETATM    4  C   UNL     1     -11.817  12.534  69.376  1.00  0.00    -0.368 C  
BRANCH   4   5
HETATM    5  C   UNL     1     -10.928  11.502  68.667  1.00  0.00    -0.270 C  
BRANCH   5   6
HETATM    6  C   UNL     1     -10.857  10.149  69.329  1.00  0.00    -0.269 C  
HETATM    7  C   UNL     1     -11.289   9.936  70.588  1.00  0.00    -0.413 C  
HETATM    8  C   UNL     1     -10.229   9.048  68.539  1.00  0.00    -0.200 C  
HETATM    9  O   UNL     1      -9.642   9.245  67.484  1.00  0.00    -0.142 OA 
BRANCH   7  10
HETATM   10  C   UNL     1     -11.191   8.654  71.284  1.00  0.00    -0.338 A  
HETATM   11  C   UNL     1     -12.169   7.671  71.087  1.00  0.00    -0.310 A  
HETATM   12  C   UNL     1     -12.150   6.505  71.852  1.00  0.00    -0.388 A  
HETATM   13  C   UNL     1     -11.156   6.316  72.811  1.00  0.00    -0.284 A  
HETATM   14  C   UNL     1     -10.167   7.282  72.994  1.00  0.00    -0.313 A  
HETATM   15  C   UNL     1     -10.181   8.448  72.229  1.00  0.00    -0.396 A  
ENDBRANCH   7  10
ENDBRANCH   5   6
ENDBRANCH   4   5
ENDBRANCH   3   4
ENDBRANCH   2   3
TORSDOF 5
ENDMDL
MODEL       96
REMARK 921   NORMALIZED FREE ENERGY PREDICTED BY IDOCK:   -3.78 KCAL/MOL
REMARK 922        TOTAL FREE ENERGY PREDICTED BY IDOCK:   -5.31 KCAL/MOL
REMARK 923 INTER-LIGAND FREE ENERGY PREDICTED BY IDOCK:   -4.92 KCAL/MOL
REMARK 924 INTRA-LIGAND FREE ENERGY PREDICTED BY IDOCK:   -0.39 KCAL/MOL
REMARK 927      BINDING AFFINITY PREDICTED BY RF-SCORE:    0.00 PKD
ROOT
HETATM    1  C   UNL     1      -6.157  21.301  63.067  1.00  0.00    -0.340 C  
HETATM    2  C   UNL     1      -6.388  20.765  64.470  1.00  0.00    -0.329 C  
ENDROOT
BRANCH   2   3
HETATM    3  C   UNL     1      -5.971  19.298  64.599  1.00  0.00    -0.310 C  
BRANCH   3   4
HETATM    4  C   UNL     1      -6.734  18.625  65.744  1.00  0.00    -0.311 C  
BRANCH   4   5
HETATM    5  C   UNL     1      -8.020  19.354  66.156  1.00  0.00    -0.320 C  
BRANCH   5   6
HETATM    6  C   UNL     1      -9.163  18.461  66.568  1.00  0.00    -0.300 C  
HETATM    7  C   UNL     1      -8.974  17.300  67.225  1.00  0.00    -0.233 C  
HETATM    8  C   UNL     1     -10.534  18.898  66.167  1.00  0.00    -0.457 C  
HETATM    9  O   UNL     1     -10.731  19.830  65.399  1.00  0.00    -0.432 OA 
BRANCH   7  10
HETATM   10  C   UNL     1     -10.049  16.381  67.596  1.00  0.00    -0.263 A  
HETATM   11  C   UNL     1     -10.837  16.642  68.724  1.00  0.00    -0.331 A  
HETATM   12  C   UNL     1     -11.770  15.700  69.156  1.00  0.00    -0.402 A  
HETATM   13  C   UNL     1     -11.921  14.499  68.464  1.00  0.00    -0.321 A  
HETATM   14  C   UNL     1     -11.154  14.245  67.327  1.00  0.00    -0.315 A  
HETATM   15  C   UNL     1     -10.222  15.187  66.890  1.00  0.00    -0.259 A  
ENDBRANCH   7  10
ENDBRANCH   5   6
ENDBRANCH   4   5
ENDBRANCH   3   4
ENDBRANCH   2   3
TORSDOF 5
ENDMDL
MODEL       97
REMARK 921   NORMALIZED FREE ENERGY PREDICTED BY IDOCK:   -3.77 KCAL/MOL
REMARK 922        TOTAL FREE ENERGY PREDICTED BY IDOCK:   -5.31 KCAL/MOL
REMARK 923 INTER-LIGAND FREE ENERGY PREDICTED BY IDOCK:   -4.51 KCAL/MOL
REMARK 924 INTRA-LIGAND FREE ENERGY PREDICTED BY IDOCK:   -0.79 KCAL/MOL
REMARK 927      BINDING AFFINITY PREDICTED BY RF-SCORE:    0.00 PKD
ROOT
HETATM    1  C   UNL     1     -11.013   5.975  68.957  1.00  0.00    -0.409 C  
HETATM    2  C   UNL     1     -10.635   5.412  70.317  1.00  0.00    -0.329 C  
ENDROOT
BRANCH   2   3
HETATM    3  C   UNL     1      -9.840   6.417  71.153  1.00  0.00    -0.198 C  
BRANCH   3   4
HETATM    4  C   UNL     1     -10.788   7.323  71.944  1.00  0.00    -0.255 C  
BRANCH   4   5
HETATM    5  C   UNL     1     -10.401   8.808  71.925  1.00  0.00    -0.414 C  
BRANCH   5   6
HETATM    6  C   UNL     1     -10.190   9.402  70.555  1.00  0.00    -0.332 C  
HETATM    7  C   UNL     1     -11.202   9.593  69.686  1.00  0.00    -0.176 C  
HETATM    8  C   UNL     1      -8.783   9.727  70.174  1.00  0.00    -0.180 C  
HETATM    9  O   UNL     1      -7.821   9.381  70.846  1.00  0.00    -0.243 OA 
BRANCH   7  10
HETATM   10  C   UNL     1     -11.033  10.117  68.330  1.00  0.00    -0.293 A  
HETATM   11  C   UNL     1     -10.443   9.322  67.340  1.00  0.00    -0.340 A  
HETATM   12  C   UNL     1     -10.158   9.866  66.088  1.00  0.00    -0.315 A  
HETATM   13  C   UNL     1     -10.463  11.199  65.820  1.00  0.00    -0.305 A  
HETATM   14  C   UNL     1     -11.072  11.987  66.797  1.00  0.00    -0.353 A  
HETATM   15  C   UNL     1     -11.362  11.446  68.049  1.00  0.00    -0.372 A  
ENDBRANCH   7  10
ENDBRANCH   5   6
ENDBRANCH   4   5
ENDBRANCH   3   4
ENDBRANCH   2   3
TORSDOF 5
ENDMDL
MODEL       98
REMARK 921   NORMALIZED FREE ENERGY PREDICTED BY IDOCK:   -3.75 KCAL/MOL
REMARK 922        TOTAL FREE ENERGY PREDICTED BY IDOCK:   -5.28 KCAL/MOL
REMARK 923 INTER-LIGAND FREE ENERGY PREDICTED BY IDOCK:   -4.88 KCAL/MOL
REMARK 924 INTRA-LIGAND FREE ENERGY PREDICTED BY IDOCK:   -0.40 KCAL/MOL
REMARK 927      BINDING AFFINITY PREDICTED BY RF-SCORE:    0.00 PKD
ROOT
HETATM    1  C   UNL     1      -9.125  10.700  66.860  1.00  0.00    -0.168 C  
HETATM    2  C   UNL     1      -9.539   9.497  66.029  1.00  0.00    -0.316 C  
ENDROOT
BRANCH   2   3
HETATM    3  C   UNL     1     -10.174   8.398  66.885  1.00  0.00    -0.383 C  
BRANCH   3   4
HETATM    4  C   UNL     1      -9.431   8.265  68.218  1.00  0.00    -0.146 C  
BRANCH   4   5
HETATM    5  C   UNL     1     -10.342   7.964  69.417  1.00  0.00    -0.220 C  
BRANCH   5   6
HETATM    6  C   UNL     1     -10.890   9.174  70.130  1.00  0.00    -0.269 C  
HETATM    7  C   UNL     1     -11.656  10.094  69.511  1.00  0.00    -0.181 C  
HETATM    8  C   UNL     1     -10.501   9.342  71.563  1.00  0.00    -0.315 C  
HETATM    9  O   UNL     1      -9.648   8.648  72.100  1.00  0.00    -0.287 OA 
BRANCH   7  10
HETATM   10  C   UNL     1     -12.163  11.307  70.151  1.00  0.00    -0.410 A  
HETATM   11  C   UNL     1     -11.720  12.564  69.723  1.00  0.00    -0.355 A  
HETATM   12  C   UNL     1     -12.098  13.711  70.421  1.00  0.00    -0.421 A  
HETATM   13  C   UNL     1     -12.918  13.607  71.543  1.00  0.00    -0.443 A  
HETATM   14  C   UNL     1     -13.380  12.358  71.958  1.00  0.00    -0.511 A  
HETATM   15  C   UNL     1     -13.007  11.209  71.261  1.00  0.00    -0.457 A  
ENDBRANCH   7  10
ENDBRANCH   5   6
ENDBRANCH   4   5
ENDBRANCH   3   4
ENDBRANCH   2   3
TORSDOF 5
ENDMDL
MODEL       99
REMARK 921   NORMALIZED FREE ENERGY PREDICTED BY IDOCK:   -3.73 KCAL/MOL
REMARK 922        TOTAL FREE ENERGY PREDICTED BY IDOCK:   -5.25 KCAL/MOL
REMARK 923 INTER-LIGAND FREE ENERGY PREDICTED BY IDOCK:   -5.16 KCAL/MOL
REMARK 924 INTRA-LIGAND FREE ENERGY PREDICTED BY IDOCK:   -0.09 KCAL/MOL
REMARK 927      BINDING AFFINITY PREDICTED BY RF-SCORE:    0.00 PKD
ROOT
HETATM    1  C   UNL     1     -12.594  12.119  63.554  1.00  0.00    -0.621 C  
HETATM    2  C   UNL     1     -11.167  11.643  63.337  1.00  0.00    -0.401 C  
ENDROOT
BRANCH   2   3
HETATM    3  C   UNL     1     -10.197  12.253  64.352  1.00  0.00    -0.341 C  
BRANCH   3   4
HETATM    4  C   UNL     1      -9.805  11.215  65.407  1.00  0.00    -0.289 C  
BRANCH   4   5
HETATM    5  C   UNL     1      -9.105  11.804  66.640  1.00  0.00    -0.194 C  
BRANCH   5   6
HETATM    6  C   UNL     1      -9.799  11.557  67.955  1.00  0.00    -0.192 C  
HETATM    7  C   UNL     1     -10.986  12.117  68.263  1.00  0.00    -0.273 C  
HETATM    8  C   UNL     1      -9.082  10.693  68.940  1.00  0.00    -0.176 C  
HETATM    9  O   UNL     1      -7.921  10.338  68.784  1.00  0.00    -0.099 OA 
BRANCH   7  10
HETATM   10  C   UNL     1     -11.666  11.945  69.546  1.00  0.00    -0.410 A  
HETATM   11  C   UNL     1     -11.990  10.660  70.002  1.00  0.00    -0.408 A  
HETATM   12  C   UNL     1     -12.758  10.503  71.156  1.00  0.00    -0.518 A  
HETATM   13  C   UNL     1     -13.202  11.624  71.857  1.00  0.00    -0.475 A  
HETATM   14  C   UNL     1     -12.862  12.903  71.418  1.00  0.00    -0.377 A  
HETATM   15  C   UNL     1     -12.091  13.065  70.267  1.00  0.00    -0.388 A  
ENDBRANCH   7  10
ENDBRANCH   5   6
ENDBRANCH   4   5
ENDBRANCH   3   4
ENDBRANCH   2   3
TORSDOF 5
ENDMDL
MODEL      100
REMARK 921   NORMALIZED FREE ENERGY PREDICTED BY IDOCK:   -3.72 KCAL/MOL
REMARK 922        TOTAL FREE ENERGY PREDICTED BY IDOCK:   -5.24 KCAL/MOL
REMARK 923 INTER-LIGAND FREE ENERGY PREDICTED BY IDOCK:   -4.89 KCAL/MOL
REMARK 924 INTRA-LIGAND FREE ENERGY PREDICTED BY IDOCK:   -0.35 KCAL/MOL
REMARK 927      BINDING AFFINITY PREDICTED BY RF-SCORE:    0.00 PKD
ROOT
HETATM    1  C   UNL     1     -10.399   5.486  70.540  1.00  0.00    -0.342 C  
HETATM    2  C   UNL     1     -11.408   6.339  69.789  1.00  0.00    -0.506 C  
ENDROOT
BRANCH   2   3
HETATM    3  C   UNL     1     -11.039   6.498  68.312  1.00  0.00    -0.332 C  
BRANCH   3   4
HETATM    4  C   UNL     1     -10.401   7.868  68.066  1.00  0.00    -0.264 C  
BRANCH   4   5
HETATM    5  C   UNL     1     -10.019   8.130  66.602  1.00  0.00    -0.339 C  
BRANCH   5   6
HETATM    6  C   UNL     1     -10.022   9.579  66.185  1.00  0.00    -0.342 C  
HETATM    7  C   UNL     1     -10.659  10.534  66.890  1.00  0.00    -0.303 C  
HETATM    8  C   UNL     1      -9.321   9.910  64.908  1.00  0.00    -0.268 C  
HETATM    9  O   UNL     1      -8.911   9.052  64.138  1.00  0.00    -0.156 OA 
BRANCH   7  10
HETATM   10  C   UNL     1     -10.730  11.940  66.492  1.00  0.00    -0.293 A  
HETATM   11  C   UNL     1      -9.670  12.806  66.787  1.00  0.00    -0.243 A  
HETATM   12  C   UNL     1      -9.795  14.172  66.531  1.00  0.00    -0.298 A  
HETATM   13  C   UNL     1     -10.972  14.674  65.979  1.00  0.00    -0.325 A  
HETATM   14  C   UNL     1     -12.021  13.811  65.664  1.00  0.00    -0.410 A  
HETATM   15  C   UNL     1     -11.899  12.444  65.915  1.00  0.00    -0.467 A  
ENDBRANCH   7  10
ENDBRANCH   5   6
ENDBRANCH   4   5
ENDBRANCH   3   4
ENDBRANCH   2   3
TORSDOF 5
ENDMDL
MODEL      101
REMARK 921   NORMALIZED FREE ENERGY PREDICTED BY IDOCK:   -3.72 KCAL/MOL
REMARK 922        TOTAL FREE ENERGY PREDICTED BY IDOCK:   -5.24 KCAL/MOL
REMARK 923 INTER-LIGAND FREE ENERGY PREDICTED BY IDOCK:   -4.99 KCAL/MOL
REMARK 924 INTRA-LIGAND FREE ENERGY PREDICTED BY IDOCK:   -0.26 KCAL/MOL
REMARK 927      BINDING AFFINITY PREDICTED BY RF-SCORE:    0.00 PKD
ROOT
HETATM    1  C   UNL     1      -8.843   5.358  72.928  1.00  0.00    -0.121 C  
HETATM    2  C   UNL     1     -10.161   6.107  73.030  1.00  0.00    -0.210 C  
ENDROOT
BRANCH   2   3
HETATM    3  C   UNL     1     -10.925   6.107  71.703  1.00  0.00    -0.320 C  
BRANCH   3   4
HETATM    4  C   UNL     1     -11.936   7.257  71.670  1.00  0.00    -0.341 C  
BRANCH   4   5
HETATM    5  C   UNL     1     -11.386   8.593  72.188  1.00  0.00    -0.434 C  
BRANCH   5   6
HETATM    6  C   UNL     1     -11.226   9.671  71.146  1.00  0.00    -0.454 C  
HETATM    7  C   UNL     1     -12.198  10.563  70.872  1.00  0.00    -0.490 C  
HETATM    8  C   UNL     1      -9.943   9.679  70.380  1.00  0.00    -0.271 C  
HETATM    9  O   UNL     1      -9.127   8.770  70.452  1.00  0.00    -0.154 OA 
BRANCH   7  10
HETATM   10  C   UNL     1     -12.103  11.590  69.834  1.00  0.00    -0.389 A  
HETATM   11  C   UNL     1     -12.005  11.219  68.488  1.00  0.00    -0.288 A  
HETATM   12  C   UNL     1     -11.777  12.190  67.512  1.00  0.00    -0.385 A  
HETATM   13  C   UNL     1     -11.650  13.529  67.877  1.00  0.00    -0.377 A  
HETATM   14  C   UNL     1     -11.769  13.905  69.215  1.00  0.00    -0.381 A  
HETATM   15  C   UNL     1     -12.000  12.937  70.193  1.00  0.00    -0.373 A  
ENDBRANCH   7  10
ENDBRANCH   5   6
ENDBRANCH   4   5
ENDBRANCH   3   4
ENDBRANCH   2   3
TORSDOF 5
ENDMDL
MODEL      102
REMARK 921   NORMALIZED FREE ENERGY PREDICTED BY IDOCK:   -3.70 KCAL/MOL
REMARK 922        TOTAL FREE ENERGY PREDICTED BY IDOCK:   -5.21 KCAL/MOL
REMARK 923 INTER-LIGAND FREE ENERGY PREDICTED BY IDOCK:   -4.75 KCAL/MOL
REMARK 924 INTRA-LIGAND FREE ENERGY PREDICTED BY IDOCK:   -0.47 KCAL/MOL
REMARK 927      BINDING AFFINITY PREDICTED BY RF-SCORE:    0.00 PKD
ROOT
HETATM    1  C   UNL     1     -10.377  18.292  68.427  1.00  0.00    -0.366 C  
HETATM    2  C   UNL     1      -9.883  16.912  68.028  1.00  0.00    -0.264 C  
ENDROOT
BRANCH   2   3
HETATM    3  C   UNL     1      -9.624  16.808  66.522  1.00  0.00    -0.285 C  
BRANCH   3   4
HETATM    4  C   UNL     1     -10.893  16.358  65.792  1.00  0.00    -0.149 C  
BRANCH   4   5
HETATM    5  C   UNL     1     -10.698  15.129  64.893  1.00  0.00    -0.421 C  
BRANCH   5   6
HETATM    6  C   UNL     1     -10.924  13.798  65.563  1.00  0.00    -0.299 C  
HETATM    7  C   UNL     1     -10.033  13.257  66.417  1.00  0.00    -0.288 C  
HETATM    8  C   UNL     1     -12.173  13.066  65.197  1.00  0.00    -0.459 C  
HETATM    9  O   UNL     1     -12.901  13.421  64.279  1.00  0.00    -0.637 OA 
BRANCH   7  10
HETATM   10  C   UNL     1     -10.189  11.946  67.048  1.00  0.00    -0.233 A  
HETATM   11  C   UNL     1      -9.866  10.784  66.337  1.00  0.00    -0.254 A  
HETATM   12  C   UNL     1     -10.143   9.532  66.886  1.00  0.00    -0.295 A  
HETATM   13  C   UNL     1     -10.739   9.437  68.143  1.00  0.00    -0.230 A  
HETATM   14  C   UNL     1     -11.041  10.593  68.863  1.00  0.00    -0.314 A  
HETATM   15  C   UNL     1     -10.763  11.847  68.318  1.00  0.00    -0.253 A  
ENDBRANCH   7  10
ENDBRANCH   5   6
ENDBRANCH   4   5
ENDBRANCH   3   4
ENDBRANCH   2   3
TORSDOF 5
ENDMDL
MODEL      103
REMARK 921   NORMALIZED FREE ENERGY PREDICTED BY IDOCK:   -3.68 KCAL/MOL
REMARK 922        TOTAL FREE ENERGY PREDICTED BY IDOCK:   -5.18 KCAL/MOL
REMARK 923 INTER-LIGAND FREE ENERGY PREDICTED BY IDOCK:   -4.56 KCAL/MOL
REMARK 924 INTRA-LIGAND FREE ENERGY PREDICTED BY IDOCK:   -0.63 KCAL/MOL
REMARK 927      BINDING AFFINITY PREDICTED BY RF-SCORE:    0.00 PKD
ROOT
HETATM    1  C   UNL     1      -6.267  14.258  69.673  1.00  0.00    -0.126 C  
HETATM    2  C   UNL     1      -6.690  15.192  68.552  1.00  0.00    -0.108 C  
ENDROOT
BRANCH   2   3
HETATM    3  C   UNL     1      -7.532  16.362  69.067  1.00  0.00    -0.227 C  
BRANCH   3   4
HETATM    4  C   UNL     1      -8.901  16.378  68.381  1.00  0.00    -0.214 C  
BRANCH   4   5
HETATM    5  C   UNL     1      -9.891  15.340  68.929  1.00  0.00    -0.221 C  
BRANCH   5   6
HETATM    6  C   UNL     1     -10.557  14.474  67.890  1.00  0.00    -0.243 C  
HETATM    7  C   UNL     1     -10.107  14.388  66.622  1.00  0.00    -0.276 C  
HETATM    8  C   UNL     1     -11.788  13.742  68.316  1.00  0.00    -0.378 C  
HETATM    9  O   UNL     1     -12.343  13.952  69.386  1.00  0.00    -0.329 OA 
BRANCH   7  10
HETATM   10  C   UNL     1     -10.754  13.602  65.572  1.00  0.00    -0.296 A  
HETATM   11  C   UNL     1     -10.333  12.290  65.318  1.00  0.00    -0.311 A  
HETATM   12  C   UNL     1     -10.854  11.590  64.230  1.00  0.00    -0.421 A  
HETATM   13  C   UNL     1     -11.795  12.193  63.397  1.00  0.00    -0.553 A  
HETATM   14  C   UNL     1     -12.233  13.491  63.661  1.00  0.00    -0.438 A  
HETATM   15  C   UNL     1     -11.717  14.194  64.750  1.00  0.00    -0.416 A  
ENDBRANCH   7  10
ENDBRANCH   5   6
ENDBRANCH   4   5
ENDBRANCH   3   4
ENDBRANCH   2   3
TORSDOF 5
ENDMDL
MODEL      104
REMARK 921   NORMALIZED FREE ENERGY PREDICTED BY IDOCK:   -3.67 KCAL/MOL
REMARK 922        TOTAL FREE ENERGY PREDICTED BY IDOCK:   -5.18 KCAL/MOL
REMARK 923 INTER-LIGAND FREE ENERGY PREDICTED BY IDOCK:   -4.72 KCAL/MOL
REMARK 924 INTRA-LIGAND FREE ENERGY PREDICTED BY IDOCK:   -0.46 KCAL/MOL
REMARK 927      BINDING AFFINITY PREDICTED BY RF-SCORE:    0.00 PKD
ROOT
HETATM    1  C   UNL     1     -12.363   9.210  71.971  1.00  0.00    -0.448 C  
HETATM    2  C   UNL     1     -11.572   9.179  70.675  1.00  0.00    -0.282 C  
ENDROOT
BRANCH   2   3
HETATM    3  C   UNL     1     -11.001  10.554  70.318  1.00  0.00    -0.306 C  
BRANCH   3   4
HETATM    4  C   UNL     1     -12.078  11.426  69.666  1.00  0.00    -0.373 C  
BRANCH   4   5
HETATM    5  C   UNL     1     -12.336  12.754  70.392  1.00  0.00    -0.324 C  
BRANCH   5   6
HETATM    6  C   UNL     1     -11.839  13.986  69.678  1.00  0.00    -0.386 C  
HETATM    7  C   UNL     1     -10.788  13.959  68.836  1.00  0.00    -0.278 C  
HETATM    8  C   UNL     1     -12.540  15.269  69.987  1.00  0.00    -0.242 C  
HETATM    9  O   UNL     1     -13.356  15.373  70.893  1.00  0.00    -0.471 OA 
BRANCH   7  10
HETATM   10  C   UNL     1     -10.242  15.139  68.165  1.00  0.00    -0.227 A  
HETATM   11  C   UNL     1     -10.621  15.436  66.849  1.00  0.00    -0.309 A  
HETATM   12  C   UNL     1      -9.999  16.479  66.164  1.00  0.00    -0.363 A  
HETATM   13  C   UNL     1      -9.004  17.229  66.788  1.00  0.00    -0.269 A  
HETATM   14  C   UNL     1      -8.640  16.951  68.105  1.00  0.00    -0.221 A  
HETATM   15  C   UNL     1      -9.262  15.910  68.796  1.00  0.00    -0.218 A  
ENDBRANCH   7  10
ENDBRANCH   5   6
ENDBRANCH   4   5
ENDBRANCH   3   4
ENDBRANCH   2   3
TORSDOF 5
ENDMDL
MODEL      105
REMARK 921   NORMALIZED FREE ENERGY PREDICTED BY IDOCK:   -3.65 KCAL/MOL
REMARK 922        TOTAL FREE ENERGY PREDICTED BY IDOCK:   -5.15 KCAL/MOL
REMARK 923 INTER-LIGAND FREE ENERGY PREDICTED BY IDOCK:   -4.61 KCAL/MOL
REMARK 924 INTRA-LIGAND FREE ENERGY PREDICTED BY IDOCK:   -0.54 KCAL/MOL
REMARK 927      BINDING AFFINITY PREDICTED BY RF-SCORE:    0.00 PKD
ROOT
HETATM    1  C   UNL     1      -7.799   9.666  70.258  1.00  0.00    -0.193 C  
HETATM    2  C   UNL     1      -9.223   9.238  70.572  1.00  0.00    -0.311 C  
ENDROOT
BRANCH   2   3
HETATM    3  C   UNL     1      -9.903   8.580  69.370  1.00  0.00    -0.185 C  
BRANCH   3   4
HETATM    4  C   UNL     1      -9.384   9.188  68.064  1.00  0.00    -0.149 C  
BRANCH   4   5
HETATM    5  C   UNL     1     -10.488   9.601  67.080  1.00  0.00    -0.317 C  
BRANCH   5   6
HETATM    6  C   UNL     1     -10.710  11.087  66.948  1.00  0.00    -0.325 C  
HETATM    7  C   UNL     1     -10.008  11.850  66.088  1.00  0.00    -0.254 C  
HETATM    8  C   UNL     1     -11.722  11.698  67.862  1.00  0.00    -0.259 C  
HETATM    9  O   UNL     1     -12.228  11.083  68.792  1.00  0.00    -0.546 OA 
BRANCH   7  10
HETATM   10  C   UNL     1     -10.156  13.300  65.966  1.00  0.00    -0.301 A  
HETATM   11  C   UNL     1     -11.064  13.838  65.046  1.00  0.00    -0.348 A  
HETATM   12  C   UNL     1     -11.107  15.215  64.833  1.00  0.00    -0.425 A  
HETATM   13  C   UNL     1     -10.248  16.058  65.538  1.00  0.00    -0.389 A  
HETATM   14  C   UNL     1      -9.359  15.528  66.472  1.00  0.00    -0.311 A  
HETATM   15  C   UNL     1      -9.315  14.151  66.690  1.00  0.00    -0.299 A  
ENDBRANCH   7  10
ENDBRANCH   5   6
ENDBRANCH   4   5
ENDBRANCH   3   4
ENDBRANCH   2   3
TORSDOF 5
ENDMDL
MODEL      106
REMARK 921   NORMALIZED FREE ENERGY PREDICTED BY IDOCK:   -3.64 KCAL/MOL
REMARK 922        TOTAL FREE ENERGY PREDICTED BY IDOCK:   -5.14 KCAL/MOL
REMARK 923 INTER-LIGAND FREE ENERGY PREDICTED BY IDOCK:   -4.59 KCAL/MOL
REMARK 924 INTRA-LIGAND FREE ENERGY PREDICTED BY IDOCK:   -0.55 KCAL/MOL
REMARK 927      BINDING AFFINITY PREDICTED BY RF-SCORE:    0.00 PKD
ROOT
HETATM    1  C   UNL     1      -6.881  18.569  65.876  1.00  0.00    -0.318 C  
HETATM    2  C   UNL     1      -6.749  19.554  67.025  1.00  0.00    -0.209 C  
ENDROOT
BRANCH   2   3
HETATM    3  C   UNL     1      -7.510  19.089  68.270  1.00  0.00    -0.325 C  
BRANCH   3   4
HETATM    4  C   UNL     1      -8.887  18.544  67.880  1.00  0.00    -0.301 C  
BRANCH   4   5
HETATM    5  C   UNL     1      -9.277  17.248  68.605  1.00  0.00    -0.266 C  
BRANCH   5   6
HETATM    6  C   UNL     1      -9.522  16.059  67.710  1.00  0.00    -0.217 C  
HETATM    7  C   UNL     1     -10.761  15.643  67.383  1.00  0.00    -0.309 C  
HETATM    8  C   UNL     1      -8.315  15.316  67.236  1.00  0.00    -0.200 C  
HETATM    9  O   UNL     1      -7.193  15.533  67.673  1.00  0.00    -0.144 OA 
BRANCH   7  10
HETATM   10  C   UNL     1     -11.043  14.465  66.562  1.00  0.00    -0.331 A  
HETATM   11  C   UNL     1     -11.354  13.243  67.172  1.00  0.00    -0.351 A  
HETATM   12  C   UNL     1     -11.488  12.092  66.397  1.00  0.00    -0.417 A  
HETATM   13  C   UNL     1     -11.315  12.156  65.015  1.00  0.00    -0.379 A  
HETATM   14  C   UNL     1     -11.027  13.375  64.402  1.00  0.00    -0.413 A  
HETATM   15  C   UNL     1     -10.896  14.530  65.174  1.00  0.00    -0.407 A  
ENDBRANCH   7  10
ENDBRANCH   5   6
ENDBRANCH   4   5
ENDBRANCH   3   4
ENDBRANCH   2   3
TORSDOF 5
ENDMDL
MODEL      107
REMARK 921   NORMALIZED FREE ENERGY PREDICTED BY IDOCK:   -3.64 KCAL/MOL
REMARK 922        TOTAL FREE ENERGY PREDICTED BY IDOCK:   -5.14 KCAL/MOL
REMARK 923 INTER-LIGAND FREE ENERGY PREDICTED BY IDOCK:   -4.73 KCAL/MOL
REMARK 924 INTRA-LIGAND FREE ENERGY PREDICTED BY IDOCK:   -0.41 KCAL/MOL
REMARK 927      BINDING AFFINITY PREDICTED BY RF-SCORE:    0.00 PKD
ROOT
HETATM    1  C   UNL     1     -10.051  18.377  66.259  1.00  0.00    -0.409 C  
HETATM    2  C   UNL     1      -9.883  16.958  65.743  1.00  0.00    -0.166 C  
ENDROOT
BRANCH   2   3
HETATM    3  C   UNL     1     -11.119  16.474  64.980  1.00  0.00    -0.174 C  
BRANCH   3   4
HETATM    4  C   UNL     1     -11.305  14.966  65.167  1.00  0.00    -0.379 C  
BRANCH   4   5
HETATM    5  C   UNL     1     -10.230  14.303  66.039  1.00  0.00    -0.327 C  
BRANCH   5   6
HETATM    6  C   UNL     1     -10.502  14.319  67.522  1.00  0.00    -0.252 C  
HETATM    7  C   UNL     1     -11.708  14.638  68.033  1.00  0.00    -0.371 C  
HETATM    8  C   UNL     1      -9.348  14.013  68.420  1.00  0.00    -0.210 C  
HETATM    9  O   UNL     1      -8.199  13.923  68.009  1.00  0.00    -0.138 OA 
BRANCH   7  10
HETATM   10  C   UNL     1     -12.000  14.716  69.464  1.00  0.00    -0.361 A  
HETATM   11  C   UNL     1     -11.809  15.920  70.153  1.00  0.00    -0.327 A  
HETATM   12  C   UNL     1     -11.955  15.960  71.540  1.00  0.00    -0.537 A  
HETATM   13  C   UNL     1     -12.295  14.803  72.239  1.00  0.00    -0.403 A  
HETATM   14  C   UNL     1     -12.508  13.608  71.553  1.00  0.00    -0.330 A  
HETATM   15  C   UNL     1     -12.366  13.564  70.166  1.00  0.00    -0.345 A  
ENDBRANCH   7  10
ENDBRANCH   5   6
ENDBRANCH   4   5
ENDBRANCH   3   4
ENDBRANCH   2   3
TORSDOF 5
ENDMDL
MODEL      108
REMARK 921   NORMALIZED FREE ENERGY PREDICTED BY IDOCK:   -3.64 KCAL/MOL
REMARK 922        TOTAL FREE ENERGY PREDICTED BY IDOCK:   -5.13 KCAL/MOL
REMARK 923 INTER-LIGAND FREE ENERGY PREDICTED BY IDOCK:   -5.36 KCAL/MOL
REMARK 924 INTRA-LIGAND FREE ENERGY PREDICTED BY IDOCK:    0.22 KCAL/MOL
REMARK 927      BINDING AFFINITY PREDICTED BY RF-SCORE:    0.00 PKD
ROOT
HETATM    1  C   UNL     1     -10.544  17.759  67.993  1.00  0.00    -0.372 C  
HETATM    2  C   UNL     1      -9.830  17.501  66.677  1.00  0.00    -0.308 C  
ENDROOT
BRANCH   2   3
HETATM    3  C   UNL     1     -10.377  16.265  65.959  1.00  0.00    -0.363 C  
BRANCH   3   4
HETATM    4  C   UNL     1     -10.971  15.280  66.970  1.00  0.00    -0.324 C  
BRANCH   4   5
HETATM    5  C   UNL     1     -11.989  14.300  66.369  1.00  0.00    -0.438 C  
BRANCH   5   6
HETATM    6  C   UNL     1     -11.425  13.310  65.382  1.00  0.00    -0.328 C  
HETATM    7  C   UNL     1     -10.483  12.407  65.719  1.00  0.00    -0.288 C  
HETATM    8  C   UNL     1     -11.924  13.405  63.977  1.00  0.00    -0.464 C  
HETATM    9  O   UNL     1     -12.618  14.334  63.585  1.00  0.00    -0.831 OA 
BRANCH   7  10
HETATM   10  C   UNL     1      -9.873  11.466  64.781  1.00  0.00    -0.302 A  
HETATM   11  C   UNL     1      -9.706  11.824  63.438  1.00  0.00    -0.341 A  
HETATM   12  C   UNL     1      -9.251  10.880  62.516  1.00  0.00    -0.339 A  
HETATM   13  C   UNL     1      -8.961   9.582  62.933  1.00  0.00    -0.230 A  
HETATM   14  C   UNL     1      -9.105   9.229  64.274  1.00  0.00    -0.076 A  
HETATM   15  C   UNL     1      -9.556  10.170  65.199  1.00  0.00    -0.354 A  
ENDBRANCH   7  10
ENDBRANCH   5   6
ENDBRANCH   4   5
ENDBRANCH   3   4
ENDBRANCH   2   3
TORSDOF 5
ENDMDL
MODEL      109
REMARK 921   NORMALIZED FREE ENERGY PREDICTED BY IDOCK:   -3.61 KCAL/MOL
REMARK 922        TOTAL FREE ENERGY PREDICTED BY IDOCK:   -5.10 KCAL/MOL
REMARK 923 INTER-LIGAND FREE ENERGY PREDICTED BY IDOCK:   -4.52 KCAL/MOL
REMARK 924 INTRA-LIGAND FREE ENERGY PREDICTED BY IDOCK:   -0.58 KCAL/MOL
REMARK 927      BINDING AFFINITY PREDICTED BY RF-SCORE:    0.00 PKD
ROOT
HETATM    1  C   UNL     1      -7.517   7.389  69.304  1.00  0.00    -0.092 C  
HETATM    2  C   UNL     1      -7.962   7.981  67.976  1.00  0.00    -0.128 C  
ENDROOT
BRANCH   2   3
HETATM    3  C   UNL     1      -7.470   9.420  67.796  1.00  0.00    -0.087 C  
BRANCH   3   4
HETATM    4  C   UNL     1      -8.607  10.312  67.289  1.00  0.00    -0.125 C  
BRANCH   4   5
HETATM    5  C   UNL     1      -9.215  11.226  68.362  1.00  0.00    -0.178 C  
BRANCH   5   6
HETATM    6  C   UNL     1     -10.399  10.655  69.100  1.00  0.00    -0.242 C  
HETATM    7  C   UNL     1     -10.264   9.845  70.169  1.00  0.00    -0.326 C  
HETATM    8  C   UNL     1     -11.751  10.986  68.558  1.00  0.00    -0.278 C  
HETATM    9  O   UNL     1     -11.911  11.541  67.479  1.00  0.00    -0.629 OA 
BRANCH   7  10
HETATM   10  C   UNL     1     -11.383   9.229  70.880  1.00  0.00    -0.373 A  
HETATM   11  C   UNL     1     -11.600   7.848  70.785  1.00  0.00    -0.258 A  
HETATM   12  C   UNL     1     -12.742   7.282  71.349  1.00  0.00    -0.427 A  
HETATM   13  C   UNL     1     -13.667   8.088  72.010  1.00  0.00    -0.321 A  
HETATM   14  C   UNL     1     -13.443   9.459  72.126  1.00  0.00    -0.543 A  
HETATM   15  C   UNL     1     -12.300  10.030  71.566  1.00  0.00    -0.513 A  
ENDBRANCH   7  10
ENDBRANCH   5   6
ENDBRANCH   4   5
ENDBRANCH   3   4
ENDBRANCH   2   3
TORSDOF 5
ENDMDL
MODEL      110
REMARK 921   NORMALIZED FREE ENERGY PREDICTED BY IDOCK:   -3.60 KCAL/MOL
REMARK 922        TOTAL FREE ENERGY PREDICTED BY IDOCK:   -5.09 KCAL/MOL
REMARK 923 INTER-LIGAND FREE ENERGY PREDICTED BY IDOCK:   -4.46 KCAL/MOL
REMARK 924 INTRA-LIGAND FREE ENERGY PREDICTED BY IDOCK:   -0.62 KCAL/MOL
REMARK 927      BINDING AFFINITY PREDICTED BY RF-SCORE:    0.00 PKD
ROOT
HETATM    1  C   UNL     1     -12.400  14.096  71.230  1.00  0.00    -0.447 C  
HETATM    2  C   UNL     1     -11.474  15.286  71.418  1.00  0.00    -0.444 C  
ENDROOT
BRANCH   2   3
HETATM    3  C   UNL     1     -11.151  15.977  70.091  1.00  0.00    -0.372 C  
BRANCH   3   4
HETATM    4  C   UNL     1      -9.809  15.483  69.544  1.00  0.00    -0.284 C  
BRANCH   4   5
HETATM    5  C   UNL     1      -9.844  15.083  68.062  1.00  0.00    -0.218 C  
BRANCH   5   6
HETATM    6  C   UNL     1     -10.158  13.633  67.793  1.00  0.00    -0.242 C  
HETATM    7  C   UNL     1      -9.224  12.664  67.864  1.00  0.00    -0.201 C  
HETATM    8  C   UNL     1     -11.560  13.315  67.386  1.00  0.00    -0.353 C  
HETATM    9  O   UNL     1     -12.380  14.181  67.110  1.00  0.00    -0.370 OA 
BRANCH   7  10
HETATM   10  C   UNL     1      -9.476  11.256  67.560  1.00  0.00    -0.177 A  
HETATM   11  C   UNL     1      -9.414  10.802  66.237  1.00  0.00    -0.213 A  
HETATM   12  C   UNL     1      -9.786   9.494  65.931  1.00  0.00    -0.360 A  
HETATM   13  C   UNL     1     -10.217   8.636  66.942  1.00  0.00    -0.367 A  
HETATM   14  C   UNL     1     -10.258   9.078  68.264  1.00  0.00    -0.241 A  
HETATM   15  C   UNL     1      -9.883  10.385  68.575  1.00  0.00    -0.176 A  
ENDBRANCH   7  10
ENDBRANCH   5   6
ENDBRANCH   4   5
ENDBRANCH   3   4
ENDBRANCH   2   3
TORSDOF 5
ENDMDL
MODEL      111
REMARK 921   NORMALIZED FREE ENERGY PREDICTED BY IDOCK:   -3.59 KCAL/MOL
REMARK 922        TOTAL FREE ENERGY PREDICTED BY IDOCK:   -5.08 KCAL/MOL
REMARK 923 INTER-LIGAND FREE ENERGY PREDICTED BY IDOCK:   -4.34 KCAL/MOL
REMARK 924 INTRA-LIGAND FREE ENERGY PREDICTED BY IDOCK:   -0.74 KCAL/MOL
REMARK 927      BINDING AFFINITY PREDICTED BY RF-SCORE:    0.00 PKD
ROOT
HETATM    1  C   UNL     1      -6.299  10.127  64.572  1.00  0.00    -0.129 C  
HETATM    2  C   UNL     1      -6.297  10.584  66.021  1.00  0.00    -0.124 C  
ENDROOT
BRANCH   2   3
HETATM    3  C   UNL     1      -7.132   9.663  66.915  1.00  0.00    -0.086 C  
BRANCH   3   4
HETATM    4  C   UNL     1      -7.707   8.503  66.097  1.00  0.00    -0.093 C  
BRANCH   4   5
HETATM    5  C   UNL     1      -9.231   8.351  66.207  1.00  0.00    -0.263 C  
BRANCH   5   6
HETATM    6  C   UNL     1     -10.019   9.628  66.060  1.00  0.00    -0.344 C  
HETATM    7  C   UNL     1     -10.006  10.360  64.928  1.00  0.00    -0.409 C  
HETATM    8  C   UNL     1     -10.786  10.085  67.258  1.00  0.00    -0.244 C  
HETATM    9  O   UNL     1     -10.660   9.567  68.359  1.00  0.00    -0.220 OA 
BRANCH   7  10
HETATM   10  C   UNL     1     -10.713  11.630  64.763  1.00  0.00    -0.365 A  
HETATM   11  C   UNL     1     -11.796  11.719  63.879  1.00  0.00    -0.449 A  
HETATM   12  C   UNL     1     -12.382  12.958  63.619  1.00  0.00    -0.520 A  
HETATM   13  C   UNL     1     -11.893  14.106  64.239  1.00  0.00    -0.420 A  
HETATM   14  C   UNL     1     -10.829  14.017  65.137  1.00  0.00    -0.376 A  
HETATM   15  C   UNL     1     -10.242  12.780  65.403  1.00  0.00    -0.299 A  
ENDBRANCH   7  10
ENDBRANCH   5   6
ENDBRANCH   4   5
ENDBRANCH   3   4
ENDBRANCH   2   3
TORSDOF 5
ENDMDL
MODEL      112
REMARK 921   NORMALIZED FREE ENERGY PREDICTED BY IDOCK:   -3.59 KCAL/MOL
REMARK 922        TOTAL FREE ENERGY PREDICTED BY IDOCK:   -5.07 KCAL/MOL
REMARK 923 INTER-LIGAND FREE ENERGY PREDICTED BY IDOCK:   -4.54 KCAL/MOL
REMARK 924 INTRA-LIGAND FREE ENERGY PREDICTED BY IDOCK:   -0.53 KCAL/MOL
REMARK 927      BINDING AFFINITY PREDICTED BY RF-SCORE:    0.00 PKD
ROOT
HETATM    1  C   UNL     1     -12.103  13.452  63.553  1.00  0.00    -0.497 C  
HETATM    2  C   UNL     1     -11.720  13.125  64.987  1.00  0.00    -0.369 C  
ENDROOT
BRANCH   2   3
HETATM    3  C   UNL     1     -12.365  14.088  65.987  1.00  0.00    -0.504 C  
BRANCH   3   4
HETATM    4  C   UNL     1     -11.288  14.834  66.780  1.00  0.00    -0.347 C  
BRANCH   4   5
HETATM    5  C   UNL     1     -11.165  14.389  68.244  1.00  0.00    -0.295 C  
BRANCH   5   6
HETATM    6  C   UNL     1     -10.690  12.973  68.450  1.00  0.00    -0.273 C  
HETATM    7  C   UNL     1     -11.520  11.977  68.818  1.00  0.00    -0.355 C  
HETATM    8  C   UNL     1      -9.227  12.724  68.275  1.00  0.00    -0.186 C  
HETATM    9  O   UNL     1      -8.415  13.630  68.145  1.00  0.00    -0.159 OA 
BRANCH   7  10
HETATM   10  C   UNL     1     -11.091  10.603  69.078  1.00  0.00    -0.307 A  
HETATM   11  C   UNL     1     -10.933   9.705  68.016  1.00  0.00    -0.197 A  
HETATM   12  C   UNL     1     -10.658   8.362  68.274  1.00  0.00    -0.163 A  
HETATM   13  C   UNL     1     -10.536   7.915  69.588  1.00  0.00    -0.234 A  
HETATM   14  C   UNL     1     -10.671   8.811  70.648  1.00  0.00    -0.267 A  
HETATM   15  C   UNL     1     -10.943  10.156  70.394  1.00  0.00    -0.386 A  
ENDBRANCH   7  10
ENDBRANCH   5   6
ENDBRANCH   4   5
ENDBRANCH   3   4
ENDBRANCH   2   3
TORSDOF 5
ENDMDL
MODEL      113
REMARK 921   NORMALIZED FREE ENERGY PREDICTED BY IDOCK:   -3.59 KCAL/MOL
REMARK 922        TOTAL FREE ENERGY PREDICTED BY IDOCK:   -5.07 KCAL/MOL
REMARK 923 INTER-LIGAND FREE ENERGY PREDICTED BY IDOCK:   -4.58 KCAL/MOL
REMARK 924 INTRA-LIGAND FREE ENERGY PREDICTED BY IDOCK:   -0.48 KCAL/MOL
REMARK 927      BINDING AFFINITY PREDICTED BY RF-SCORE:    0.00 PKD
ROOT
HETATM    1  C   UNL     1     -11.517   9.332  71.667  1.00  0.00    -0.468 C  
HETATM    2  C   UNL     1     -10.710   8.600  70.608  1.00  0.00    -0.259 C  
ENDROOT
BRANCH   2   3
HETATM    3  C   UNL     1      -9.840   9.556  69.788  1.00  0.00    -0.236 C  
BRANCH   3   4
HETATM    4  C   UNL     1      -9.555   8.964  68.405  1.00  0.00    -0.157 C  
BRANCH   4   5
HETATM    5  C   UNL     1     -10.591   9.336  67.335  1.00  0.00    -0.324 C  
BRANCH   5   6
HETATM    6  C   UNL     1     -10.323  10.623  66.598  1.00  0.00    -0.297 C  
HETATM    7  C   UNL     1     -10.850  11.802  66.983  1.00  0.00    -0.306 C  
HETATM    8  C   UNL     1      -9.475  10.529  65.371  1.00  0.00    -0.223 C  
HETATM    9  O   UNL     1      -9.151   9.459  64.874  1.00  0.00    -0.219 OA 
BRANCH   7  10
HETATM   10  C   UNL     1     -10.657  13.062  66.267  1.00  0.00    -0.283 A  
HETATM   11  C   UNL     1      -9.636  13.939  66.653  1.00  0.00    -0.297 A  
HETATM   12  C   UNL     1      -9.538  15.198  66.062  1.00  0.00    -0.365 A  
HETATM   13  C   UNL     1     -10.455  15.583  65.084  1.00  0.00    -0.431 A  
HETATM   14  C   UNL     1     -11.459  14.704  64.681  1.00  0.00    -0.389 A  
HETATM   15  C   UNL     1     -11.558  13.442  65.268  1.00  0.00    -0.329 A  
ENDBRANCH   7  10
ENDBRANCH   5   6
ENDBRANCH   4   5
ENDBRANCH   3   4
ENDBRANCH   2   3
TORSDOF 5
ENDMDL
MODEL      114
REMARK 921   NORMALIZED FREE ENERGY PREDICTED BY IDOCK:   -3.58 KCAL/MOL
REMARK 922        TOTAL FREE ENERGY PREDICTED BY IDOCK:   -5.05 KCAL/MOL
REMARK 923 INTER-LIGAND FREE ENERGY PREDICTED BY IDOCK:   -4.59 KCAL/MOL
REMARK 924 INTRA-LIGAND FREE ENERGY PREDICTED BY IDOCK:   -0.47 KCAL/MOL
REMARK 927      BINDING AFFINITY PREDICTED BY RF-SCORE:    0.00 PKD
ROOT
HETATM    1  C   UNL     1     -12.624  11.981  63.394  1.00  0.00    -0.592 C  
HETATM    2  C   UNL     1     -11.182  12.457  63.352  1.00  0.00    -0.492 C  
ENDROOT
BRANCH   2   3
HETATM    3  C   UNL     1     -10.768  13.152  64.652  1.00  0.00    -0.398 C  
BRANCH   3   4
HETATM    4  C   UNL     1     -10.159  12.140  65.627  1.00  0.00    -0.274 C  
BRANCH   4   5
HETATM    5  C   UNL     1     -11.133  11.638  66.702  1.00  0.00    -0.364 C  
BRANCH   5   6
HETATM    6  C   UNL     1     -10.803  10.290  67.292  1.00  0.00    -0.312 C  
HETATM    7  C   UNL     1     -10.199   9.318  66.581  1.00  0.00    -0.323 C  
HETATM    8  C   UNL     1     -11.227  10.055  68.705  1.00  0.00    -0.121 C  
HETATM    9  O   UNL     1     -11.955  10.828  69.313  1.00  0.00    -0.308 OA 
BRANCH   7  10
HETATM   10  C   UNL     1      -9.909   7.981  67.099  1.00  0.00    -0.274 A  
HETATM   11  C   UNL     1     -10.866   6.964  66.993  1.00  0.00    -0.436 A  
HETATM   12  C   UNL     1     -10.645   5.731  67.606  1.00  0.00    -0.313 A  
HETATM   13  C   UNL     1      -9.470   5.509  68.322  1.00  0.00    -0.137 A  
HETATM   14  C   UNL     1      -8.504   6.511  68.411  1.00  0.00    -0.120 A  
HETATM   15  C   UNL     1      -8.720   7.745  67.797  1.00  0.00    -0.123 A  
ENDBRANCH   7  10
ENDBRANCH   5   6
ENDBRANCH   4   5
ENDBRANCH   3   4
ENDBRANCH   2   3
TORSDOF 5
ENDMDL
MODEL      115
REMARK 921   NORMALIZED FREE ENERGY PREDICTED BY IDOCK:   -3.57 KCAL/MOL
REMARK 922        TOTAL FREE ENERGY PREDICTED BY IDOCK:   -5.04 KCAL/MOL
REMARK 923 INTER-LIGAND FREE ENERGY PREDICTED BY IDOCK:   -4.65 KCAL/MOL
REMARK 924 INTRA-LIGAND FREE ENERGY PREDICTED BY IDOCK:   -0.39 KCAL/MOL
REMARK 927      BINDING AFFINITY PREDICTED BY RF-SCORE:    0.00 PKD
ROOT
HETATM    1  C   UNL     1     -11.033  12.196  63.497  1.00  0.00    -0.521 C  
HETATM    2  C   UNL     1     -10.842  12.560  64.960  1.00  0.00    -0.324 C  
ENDROOT
BRANCH   2   3
HETATM    3  C   UNL     1     -10.623  11.323  65.836  1.00  0.00    -0.309 C  
BRANCH   3   4
HETATM    4  C   UNL     1     -11.173  11.563  67.244  1.00  0.00    -0.365 C  
BRANCH   4   5
HETATM    5  C   UNL     1     -10.099  11.607  68.340  1.00  0.00    -0.207 C  
BRANCH   5   6
HETATM    6  C   UNL     1     -10.031  10.389  69.226  1.00  0.00    -0.246 C  
HETATM    7  C   UNL     1     -11.132   9.722  69.625  1.00  0.00    -0.251 C  
HETATM    8  C   UNL     1      -8.674   9.973  69.693  1.00  0.00    -0.194 C  
HETATM    9  O   UNL     1      -7.679  10.665  69.525  1.00  0.00    -0.149 OA 
BRANCH   7  10
HETATM   10  C   UNL     1     -11.114   8.569  70.525  1.00  0.00    -0.265 A  
HETATM   11  C   UNL     1     -11.064   7.271  70.001  1.00  0.00    -0.262 A  
HETATM   12  C   UNL     1     -11.185   6.172  70.851  1.00  0.00    -0.365 A  
HETATM   13  C   UNL     1     -11.352   6.364  72.221  1.00  0.00    -0.330 A  
HETATM   14  C   UNL     1     -11.379   7.655  72.749  1.00  0.00    -0.419 A  
HETATM   15  C   UNL     1     -11.255   8.757  71.903  1.00  0.00    -0.438 A  
ENDBRANCH   7  10
ENDBRANCH   5   6
ENDBRANCH   4   5
ENDBRANCH   3   4
ENDBRANCH   2   3
TORSDOF 5
ENDMDL
MODEL      116
REMARK 921   NORMALIZED FREE ENERGY PREDICTED BY IDOCK:   -3.56 KCAL/MOL
REMARK 922        TOTAL FREE ENERGY PREDICTED BY IDOCK:   -5.03 KCAL/MOL
REMARK 923 INTER-LIGAND FREE ENERGY PREDICTED BY IDOCK:   -5.61 KCAL/MOL
REMARK 924 INTRA-LIGAND FREE ENERGY PREDICTED BY IDOCK:    0.58 KCAL/MOL
REMARK 927      BINDING AFFINITY PREDICTED BY RF-SCORE:    0.00 PKD
ROOT
HETATM    1  C   UNL     1      -7.275  20.591  67.397  1.00  0.00    -0.370 C  
HETATM    2  C   UNL     1      -8.433  19.882  68.079  1.00  0.00    -0.301 C  
ENDROOT
BRANCH   2   3
HETATM    3  C   UNL     1      -9.781  20.519  67.730  1.00  0.00    -0.433 C  
BRANCH   3   4
HETATM    4  C   UNL     1     -10.794  19.440  67.334  1.00  0.00    -0.555 C  
BRANCH   4   5
HETATM    5  C   UNL     1     -10.386  18.616  66.105  1.00  0.00    -0.481 C  
BRANCH   5   6
HETATM    6  C   UNL     1     -10.599  17.128  66.227  1.00  0.00    -0.185 C  
HETATM    7  C   UNL     1     -10.807  16.336  65.157  1.00  0.00    -0.333 C  
HETATM    8  C   UNL     1     -10.622  16.565  67.611  1.00  0.00    -0.321 C  
HETATM    9  O   UNL     1     -10.644  17.272  68.610  1.00  0.00    -0.347 OA 
BRANCH   7  10
HETATM   10  C   UNL     1     -11.070  14.900  65.236  1.00  0.00    -0.382 A  
HETATM   11  C   UNL     1     -12.379  14.418  65.110  1.00  0.00    -0.383 A  
HETATM   12  C   UNL     1     -12.648  13.066  65.321  1.00  0.00    -0.516 A  
HETATM   13  C   UNL     1     -11.613  12.193  65.654  1.00  0.00    -0.409 A  
HETATM   14  C   UNL     1     -10.305  12.665  65.757  1.00  0.00    -0.298 A  
HETATM   15  C   UNL     1     -10.032  14.016  65.544  1.00  0.00    -0.302 A  
ENDBRANCH   7  10
ENDBRANCH   5   6
ENDBRANCH   4   5
ENDBRANCH   3   4
ENDBRANCH   2   3
TORSDOF 5
ENDMDL
MODEL      117
REMARK 921   NORMALIZED FREE ENERGY PREDICTED BY IDOCK:   -3.55 KCAL/MOL
REMARK 922        TOTAL FREE ENERGY PREDICTED BY IDOCK:   -5.02 KCAL/MOL
REMARK 923 INTER-LIGAND FREE ENERGY PREDICTED BY IDOCK:   -4.43 KCAL/MOL
REMARK 924 INTRA-LIGAND FREE ENERGY PREDICTED BY IDOCK:   -0.59 KCAL/MOL
REMARK 927      BINDING AFFINITY PREDICTED BY RF-SCORE:    0.00 PKD
ROOT
HETATM    1  C   UNL     1     -11.613   6.263  71.389  1.00  0.00    -0.338 C  
HETATM    2  C   UNL     1     -11.311   7.577  72.091  1.00  0.00    -0.326 C  
ENDROOT
BRANCH   2   3
HETATM    3  C   UNL     1     -12.586   8.352  72.432  1.00  0.00    -0.372 C  
BRANCH   3   4
HETATM    4  C   UNL     1     -13.005   9.234  71.252  1.00  0.00    -0.342 C  
BRANCH   4   5
HETATM    5  C   UNL     1     -12.357  10.625  71.245  1.00  0.00    -0.488 C  
BRANCH   5   6
HETATM    6  C   UNL     1     -11.639  10.995  69.972  1.00  0.00    -0.427 C  
HETATM    7  C   UNL     1     -10.923  10.103  69.260  1.00  0.00    -0.279 C  
HETATM    8  C   UNL     1     -11.711  12.427  69.552  1.00  0.00    -0.322 C  
HETATM    9  O   UNL     1     -12.172  13.303  70.272  1.00  0.00    -0.340 OA 
BRANCH   7  10
HETATM   10  C   UNL     1     -10.169  10.432  68.050  1.00  0.00    -0.199 A  
HETATM   11  C   UNL     1     -10.818  10.479  66.810  1.00  0.00    -0.209 A  
HETATM   12  C   UNL     1     -10.077  10.658  65.642  1.00  0.00    -0.335 A  
HETATM   13  C   UNL     1      -8.691  10.792  65.708  1.00  0.00    -0.194 A  
HETATM   14  C   UNL     1      -8.044  10.769  66.943  1.00  0.00    -0.132 A  
HETATM   15  C   UNL     1      -8.782  10.594  68.114  1.00  0.00    -0.130 A  
ENDBRANCH   7  10
ENDBRANCH   5   6
ENDBRANCH   4   5
ENDBRANCH   3   4
ENDBRANCH   2   3
TORSDOF 5
ENDMDL
MODEL      118
REMARK 921   NORMALIZED FREE ENERGY PREDICTED BY IDOCK:   -3.54 KCAL/MOL
REMARK 922        TOTAL FREE ENERGY PREDICTED BY IDOCK:   -5.00 KCAL/MOL
REMARK 923 INTER-LIGAND FREE ENERGY PREDICTED BY IDOCK:   -4.44 KCAL/MOL
REMARK 924 INTRA-LIGAND FREE ENERGY PREDICTED BY IDOCK:   -0.56 KCAL/MOL
REMARK 927      BINDING AFFINITY PREDICTED BY RF-SCORE:    0.00 PKD
ROOT
HETATM    1  C   UNL     1     -10.240  16.495  66.248  1.00  0.00    -0.343 C  
HETATM    2  C   UNL     1     -11.129  16.203  65.050  1.00  0.00    -0.304 C  
ENDROOT
BRANCH   2   3
HETATM    3  C   UNL     1     -11.077  14.729  64.643  1.00  0.00    -0.337 C  
BRANCH   3   4
HETATM    4  C   UNL     1     -12.404  14.038  64.970  1.00  0.00    -0.458 C  
BRANCH   4   5
HETATM    5  C   UNL     1     -12.430  12.538  64.642  1.00  0.00    -0.539 C  
BRANCH   5   6
HETATM    6  C   UNL     1     -11.402  11.703  65.363  1.00  0.00    -0.218 C  
HETATM    7  C   UNL     1     -11.359  11.608  66.706  1.00  0.00    -0.354 C  
HETATM    8  C   UNL     1     -10.383  11.014  64.515  1.00  0.00    -0.354 C  
HETATM    9  O   UNL     1     -10.260  11.238  63.318  1.00  0.00    -0.349 OA 
BRANCH   7  10
HETATM   10  C   UNL     1     -10.348  10.852  67.445  1.00  0.00    -0.248 A  
HETATM   11  C   UNL     1     -10.533   9.486  67.688  1.00  0.00    -0.321 A  
HETATM   12  C   UNL     1      -9.639   8.796  68.507  1.00  0.00    -0.158 A  
HETATM   13  C   UNL     1      -8.560   9.466  69.082  1.00  0.00    -0.140 A  
HETATM   14  C   UNL     1      -8.360  10.822  68.824  1.00  0.00    -0.147 A  
HETATM   15  C   UNL     1      -9.250  11.515  68.002  1.00  0.00    -0.175 A  
ENDBRANCH   7  10
ENDBRANCH   5   6
ENDBRANCH   4   5
ENDBRANCH   3   4
ENDBRANCH   2   3
TORSDOF 5
ENDMDL
MODEL      119
REMARK 921   NORMALIZED FREE ENERGY PREDICTED BY IDOCK:   -3.53 KCAL/MOL
REMARK 922        TOTAL FREE ENERGY PREDICTED BY IDOCK:   -5.00 KCAL/MOL
REMARK 923 INTER-LIGAND FREE ENERGY PREDICTED BY IDOCK:   -4.67 KCAL/MOL
REMARK 924 INTRA-LIGAND FREE ENERGY PREDICTED BY IDOCK:   -0.33 KCAL/MOL
REMARK 927      BINDING AFFINITY PREDICTED BY RF-SCORE:    0.00 PKD
ROOT
HETATM    1  C   UNL     1     -14.326  14.504  72.073  1.00  0.00    -0.639 C  
HETATM    2  C   UNL     1     -13.515  15.236  71.017  1.00  0.00    -0.516 C  
ENDROOT
BRANCH   2   3
HETATM    3  C   UNL     1     -12.009  15.100  71.253  1.00  0.00    -0.399 C  
BRANCH   3   4
HETATM    4  C   UNL     1     -11.361  14.296  70.122  1.00  0.00    -0.187 C  
BRANCH   4   5
HETATM    5  C   UNL     1     -12.284  13.244  69.491  1.00  0.00    -0.233 C  
BRANCH   5   6
HETATM    6  C   UNL     1     -11.666  11.883  69.289  1.00  0.00    -0.389 C  
HETATM    7  C   UNL     1     -11.175  11.153  70.309  1.00  0.00    -0.126 C  
HETATM    8  C   UNL     1     -11.573  11.392  67.881  1.00  0.00    -0.266 C  
HETATM    9  O   UNL     1     -11.816  12.104  66.916  1.00  0.00    -0.555 OA 
BRANCH   7  10
HETATM   10  C   UNL     1     -10.521   9.854  70.149  1.00  0.00    -0.339 A  
HETATM   11  C   UNL     1      -9.258   9.773  69.550  1.00  0.00    -0.226 A  
HETATM   12  C   UNL     1      -8.696   8.526  69.274  1.00  0.00    -0.133 A  
HETATM   13  C   UNL     1      -9.390   7.361  69.597  1.00  0.00    -0.149 A  
HETATM   14  C   UNL     1     -10.638   7.438  70.215  1.00  0.00    -0.241 A  
HETATM   15  C   UNL     1     -11.202   8.683  70.495  1.00  0.00    -0.266 A  
ENDBRANCH   7  10
ENDBRANCH   5   6
ENDBRANCH   4   5
ENDBRANCH   3   4
ENDBRANCH   2   3
TORSDOF 5
ENDMDL
MODEL      120
REMARK 921   NORMALIZED FREE ENERGY PREDICTED BY IDOCK:   -3.53 KCAL/MOL
REMARK 922        TOTAL FREE ENERGY PREDICTED BY IDOCK:   -5.00 KCAL/MOL
REMARK 923 INTER-LIGAND FREE ENERGY PREDICTED BY IDOCK:   -4.57 KCAL/MOL
REMARK 924 INTRA-LIGAND FREE ENERGY PREDICTED BY IDOCK:   -0.43 KCAL/MOL
REMARK 927      BINDING AFFINITY PREDICTED BY RF-SCORE:    0.00 PKD
ROOT
HETATM    1  C   UNL     1     -12.093  13.028  63.380  1.00  0.00    -0.591 C  
HETATM    2  C   UNL     1     -11.990  13.853  64.652  1.00  0.00    -0.443 C  
ENDROOT
BRANCH   2   3
HETATM    3  C   UNL     1     -12.070  12.982  65.909  1.00  0.00    -0.503 C  
BRANCH   3   4
HETATM    4  C   UNL     1     -10.841  13.207  66.794  1.00  0.00    -0.289 C  
BRANCH   4   5
HETATM    5  C   UNL     1      -9.793  12.088  66.711  1.00  0.00    -0.218 C  
BRANCH   5   6
HETATM    6  C   UNL     1      -9.787  11.124  67.870  1.00  0.00    -0.187 C  
HETATM    7  C   UNL     1     -10.863  10.383  68.201  1.00  0.00    -0.311 C  
HETATM    8  C   UNL     1      -8.535  11.060  68.683  1.00  0.00    -0.157 C  
HETATM    9  O   UNL     1      -7.618  11.858  68.545  1.00  0.00    -0.117 OA 
BRANCH   7  10
HETATM   10  C   UNL     1     -10.916   9.476  69.347  1.00  0.00    -0.192 A  
HETATM   11  C   UNL     1     -11.318   9.953  70.601  1.00  0.00    -0.413 A  
HETATM   12  C   UNL     1     -11.237   9.125  71.720  1.00  0.00    -0.451 A  
HETATM   13  C   UNL     1     -10.760   7.821  71.591  1.00  0.00    -0.257 A  
HETATM   14  C   UNL     1     -10.380   7.336  70.340  1.00  0.00    -0.217 A  
HETATM   15  C   UNL     1     -10.462   8.160  69.217  1.00  0.00    -0.221 A  
ENDBRANCH   7  10
ENDBRANCH   5   6
ENDBRANCH   4   5
ENDBRANCH   3   4
ENDBRANCH   2   3
TORSDOF 5
ENDMDL
MODEL      121
REMARK 921   NORMALIZED FREE ENERGY PREDICTED BY IDOCK:   -3.53 KCAL/MOL
REMARK 922        TOTAL FREE ENERGY PREDICTED BY IDOCK:   -4.99 KCAL/MOL
REMARK 923 INTER-LIGAND FREE ENERGY PREDICTED BY IDOCK:   -4.26 KCAL/MOL
REMARK 924 INTRA-LIGAND FREE ENERGY PREDICTED BY IDOCK:   -0.73 KCAL/MOL
REMARK 927      BINDING AFFINITY PREDICTED BY RF-SCORE:    0.00 PKD
ROOT
HETATM    1  C   UNL     1      -7.799  10.904  69.001  1.00  0.00    -0.138 C  
HETATM    2  C   UNL     1      -7.181  10.176  67.819  1.00  0.00    -0.087 C  
ENDROOT
BRANCH   2   3
HETATM    3  C   UNL     1      -7.749   8.764  67.654  1.00  0.00    -0.101 C  
BRANCH   3   4
HETATM    4  C   UNL     1      -8.124   8.507  66.192  1.00  0.00    -0.105 C  
BRANCH   4   5
HETATM    5  C   UNL     1      -9.593   8.802  65.859  1.00  0.00    -0.255 C  
BRANCH   5   6
HETATM    6  C   UNL     1      -9.886  10.222  65.443  1.00  0.00    -0.362 C  
HETATM    7  C   UNL     1     -10.439  11.122  66.279  1.00  0.00    -0.312 C  
HETATM    8  C   UNL     1      -9.581  10.582  64.026  1.00  0.00    -0.311 C  
HETATM    9  O   UNL     1      -9.275   9.747  63.184  1.00  0.00    -0.265 OA 
BRANCH   7  10
HETATM   10  C   UNL     1     -10.787  12.491  65.900  1.00  0.00    -0.302 A  
HETATM   11  C   UNL     1     -12.031  12.763  65.317  1.00  0.00    -0.473 A  
HETATM   12  C   UNL     1     -12.309  14.040  64.832  1.00  0.00    -0.447 A  
HETATM   13  C   UNL     1     -11.351  15.048  64.929  1.00  0.00    -0.419 A  
HETATM   14  C   UNL     1     -10.120  14.786  65.530  1.00  0.00    -0.409 A  
HETATM   15  C   UNL     1      -9.839  13.511  66.020  1.00  0.00    -0.277 A  
ENDBRANCH   7  10
ENDBRANCH   5   6
ENDBRANCH   4   5
ENDBRANCH   3   4
ENDBRANCH   2   3
TORSDOF 5
ENDMDL
MODEL      122
REMARK 921   NORMALIZED FREE ENERGY PREDICTED BY IDOCK:   -3.51 KCAL/MOL
REMARK 922        TOTAL FREE ENERGY PREDICTED BY IDOCK:   -4.97 KCAL/MOL
REMARK 923 INTER-LIGAND FREE ENERGY PREDICTED BY IDOCK:   -4.53 KCAL/MOL
REMARK 924 INTRA-LIGAND FREE ENERGY PREDICTED BY IDOCK:   -0.44 KCAL/MOL
REMARK 927      BINDING AFFINITY PREDICTED BY RF-SCORE:    0.00 PKD
ROOT
HETATM    1  C   UNL     1      -5.689  12.728  70.294  1.00  0.00    -0.165 C  
HETATM    2  C   UNL     1      -6.309  13.656  69.262  1.00  0.00    -0.108 C  
ENDROOT
BRANCH   2   3
HETATM    3  C   UNL     1      -6.365  15.105  69.754  1.00  0.00    -0.154 C  
BRANCH   3   4
HETATM    4  C   UNL     1      -7.382  15.907  68.937  1.00  0.00    -0.167 C  
BRANCH   4   5
HETATM    5  C   UNL     1      -7.261  15.712  67.418  1.00  0.00    -0.241 C  
BRANCH   5   6
HETATM    6  C   UNL     1      -8.561  15.464  66.696  1.00  0.00    -0.318 C  
HETATM    7  C   UNL     1      -9.113  14.238  66.600  1.00  0.00    -0.249 C  
HETATM    8  C   UNL     1      -9.196  16.643  66.034  1.00  0.00    -0.228 C  
HETATM    9  O   UNL     1      -8.629  17.721  65.921  1.00  0.00    -0.516 OA 
BRANCH   7  10
HETATM   10  C   UNL     1     -10.343  13.946  65.865  1.00  0.00    -0.318 A  
HETATM   11  C   UNL     1     -11.583  14.327  66.392  1.00  0.00    -0.381 A  
HETATM   12  C   UNL     1     -12.761  13.929  65.761  1.00  0.00    -0.503 A  
HETATM   13  C   UNL     1     -12.705  13.155  64.603  1.00  0.00    -0.326 A  
HETATM   14  C   UNL     1     -11.471  12.794  64.062  1.00  0.00    -0.476 A  
HETATM   15  C   UNL     1     -10.291  13.192  64.688  1.00  0.00    -0.381 A  
ENDBRANCH   7  10
ENDBRANCH   5   6
ENDBRANCH   4   5
ENDBRANCH   3   4
ENDBRANCH   2   3
TORSDOF 5
ENDMDL
MODEL      123
REMARK 921   NORMALIZED FREE ENERGY PREDICTED BY IDOCK:   -3.51 KCAL/MOL
REMARK 922        TOTAL FREE ENERGY PREDICTED BY IDOCK:   -4.96 KCAL/MOL
REMARK 923 INTER-LIGAND FREE ENERGY PREDICTED BY IDOCK:   -5.35 KCAL/MOL
REMARK 924 INTRA-LIGAND FREE ENERGY PREDICTED BY IDOCK:    0.39 KCAL/MOL
REMARK 927      BINDING AFFINITY PREDICTED BY RF-SCORE:    0.00 PKD
ROOT
HETATM    1  C   UNL     1     -10.097  17.267  68.315  1.00  0.00    -0.321 C  
HETATM    2  C   UNL     1      -9.558  16.796  66.975  1.00  0.00    -0.244 C  
ENDROOT
BRANCH   2   3
HETATM    3  C   UNL     1     -10.199  15.479  66.529  1.00  0.00    -0.291 C  
BRANCH   3   4
HETATM    4  C   UNL     1     -10.610  14.646  67.746  1.00  0.00    -0.251 C  
BRANCH   4   5
HETATM    5  C   UNL     1     -11.708  13.613  67.458  1.00  0.00    -0.406 C  
BRANCH   5   6
HETATM    6  C   UNL     1     -11.662  12.369  68.309  1.00  0.00    -0.398 C  
HETATM    7  C   UNL     1     -12.066  12.355  69.594  1.00  0.00    -0.271 C  
HETATM    8  C   UNL     1     -11.092  11.143  67.674  1.00  0.00    -0.287 C  
HETATM    9  O   UNL     1     -10.527  11.164  66.588  1.00  0.00    -0.232 OA 
BRANCH   7  10
HETATM   10  C   UNL     1     -11.989  11.185  70.468  1.00  0.00    -0.475 A  
HETATM   11  C   UNL     1     -10.975  10.238  70.283  1.00  0.00    -0.375 A  
HETATM   12  C   UNL     1     -10.981   9.056  71.025  1.00  0.00    -0.352 A  
HETATM   13  C   UNL     1     -11.994   8.820  71.952  1.00  0.00    -0.435 A  
HETATM   14  C   UNL     1     -12.993   9.772  72.155  1.00  0.00    -0.483 A  
HETATM   15  C   UNL     1     -12.989  10.956  71.418  1.00  0.00    -0.527 A  
ENDBRANCH   7  10
ENDBRANCH   5   6
ENDBRANCH   4   5
ENDBRANCH   3   4
ENDBRANCH   2   3
TORSDOF 5
ENDMDL
MODEL      124
REMARK 921   NORMALIZED FREE ENERGY PREDICTED BY IDOCK:   -3.50 KCAL/MOL
REMARK 922        TOTAL FREE ENERGY PREDICTED BY IDOCK:   -4.96 KCAL/MOL
REMARK 923 INTER-LIGAND FREE ENERGY PREDICTED BY IDOCK:   -4.28 KCAL/MOL
REMARK 924 INTRA-LIGAND FREE ENERGY PREDICTED BY IDOCK:   -0.67 KCAL/MOL
REMARK 927      BINDING AFFINITY PREDICTED BY RF-SCORE:    0.00 PKD
ROOT
HETATM    1  C   UNL     1     -11.159  15.925  70.320  1.00  0.00    -0.381 C  
HETATM    2  C   UNL     1     -11.525  15.927  68.846  1.00  0.00    -0.386 C  
ENDROOT
BRANCH   2   3
HETATM    3  C   UNL     1     -10.652  16.892  68.039  1.00  0.00    -0.367 C  
BRANCH   3   4
HETATM    4  C   UNL     1     -10.606  16.467  66.568  1.00  0.00    -0.235 C  
BRANCH   4   5
HETATM    5  C   UNL     1      -9.349  15.674  66.182  1.00  0.00    -0.382 C  
BRANCH   5   6
HETATM    6  C   UNL     1      -9.297  14.258  66.697  1.00  0.00    -0.302 C  
HETATM    7  C   UNL     1     -10.324  13.398  66.554  1.00  0.00    -0.284 C  
HETATM    8  C   UNL     1      -8.059  13.855  67.430  1.00  0.00    -0.178 C  
HETATM    9  O   UNL     1      -7.197  14.659  67.760  1.00  0.00    -0.140 OA 
BRANCH   7  10
HETATM   10  C   UNL     1     -10.335  12.034  67.084  1.00  0.00    -0.235 A  
HETATM   11  C   UNL     1      -9.724  10.999  66.367  1.00  0.00    -0.235 A  
HETATM   12  C   UNL     1      -9.851   9.680  66.802  1.00  0.00    -0.270 A  
HETATM   13  C   UNL     1     -10.584   9.392  67.952  1.00  0.00    -0.293 A  
HETATM   14  C   UNL     1     -11.175  10.424  68.682  1.00  0.00    -0.305 A  
HETATM   15  C   UNL     1     -11.047  11.745  68.252  1.00  0.00    -0.291 A  
ENDBRANCH   7  10
ENDBRANCH   5   6
ENDBRANCH   4   5
ENDBRANCH   3   4
ENDBRANCH   2   3
TORSDOF 5
ENDMDL
MODEL      125
REMARK 921   NORMALIZED FREE ENERGY PREDICTED BY IDOCK:   -3.50 KCAL/MOL
REMARK 922        TOTAL FREE ENERGY PREDICTED BY IDOCK:   -4.95 KCAL/MOL
REMARK 923 INTER-LIGAND FREE ENERGY PREDICTED BY IDOCK:   -4.60 KCAL/MOL
REMARK 924 INTRA-LIGAND FREE ENERGY PREDICTED BY IDOCK:   -0.35 KCAL/MOL
REMARK 927      BINDING AFFINITY PREDICTED BY RF-SCORE:    0.00 PKD
ROOT
HETATM    1  C   UNL     1      -8.413   7.628  72.398  1.00  0.00    -0.151 C  
HETATM    2  C   UNL     1      -9.514   7.615  73.447  1.00  0.00    -0.330 C  
ENDROOT
BRANCH   2   3
HETATM    3  C   UNL     1     -10.889   7.903  72.839  1.00  0.00    -0.451 C  
BRANCH   3   4
HETATM    4  C   UNL     1     -10.740   8.649  71.510  1.00  0.00    -0.352 C  
BRANCH   4   5
HETATM    5  C   UNL     1     -12.058   9.198  70.945  1.00  0.00    -0.270 C  
BRANCH   5   6
HETATM    6  C   UNL     1     -11.948  10.511  70.213  1.00  0.00    -0.411 C  
HETATM    7  C   UNL     1     -11.243  10.646  69.073  1.00  0.00    -0.324 C  
HETATM    8  C   UNL     1     -12.622  11.687  70.840  1.00  0.00    -0.313 C  
HETATM    9  O   UNL     1     -13.094  11.653  71.969  1.00  0.00    -0.478 OA 
BRANCH   7  10
HETATM   10  C   UNL     1     -11.068  11.912  68.360  1.00  0.00    -0.292 A  
HETATM   11  C   UNL     1     -12.093  12.403  67.542  1.00  0.00    -0.078 A  
HETATM   12  C   UNL     1     -11.876  13.535  66.757  1.00  0.00    -0.450 A  
HETATM   13  C   UNL     1     -10.641  14.180  66.789  1.00  0.00    -0.277 A  
HETATM   14  C   UNL     1      -9.625  13.707  67.620  1.00  0.00    -0.221 A  
HETATM   15  C   UNL     1      -9.839  12.577  68.409  1.00  0.00    -0.202 A  
ENDBRANCH   7  10
ENDBRANCH   5   6
ENDBRANCH   4   5
ENDBRANCH   3   4
ENDBRANCH   2   3
TORSDOF 5
ENDMDL
MODEL      126
REMARK 921   NORMALIZED FREE ENERGY PREDICTED BY IDOCK:   -3.50 KCAL/MOL
REMARK 922        TOTAL FREE ENERGY PREDICTED BY IDOCK:   -4.95 KCAL/MOL
REMARK 923 INTER-LIGAND FREE ENERGY PREDICTED BY IDOCK:   -4.60 KCAL/MOL
REMARK 924 INTRA-LIGAND FREE ENERGY PREDICTED BY IDOCK:   -0.36 KCAL/MOL
REMARK 927      BINDING AFFINITY PREDICTED BY RF-SCORE:    0.00 PKD
ROOT
HETATM    1  C   UNL     1     -12.259  13.122  69.856  1.00  0.00    -0.293 C  
HETATM    2  C   UNL     1     -11.795  11.817  69.230  1.00  0.00    -0.389 C  
ENDROOT
BRANCH   2   3
HETATM    3  C   UNL     1     -11.138  12.037  67.865  1.00  0.00    -0.289 C  
BRANCH   3   4
HETATM    4  C   UNL     1     -11.300  13.494  67.423  1.00  0.00    -0.338 C  
BRANCH   4   5
HETATM    5  C   UNL     1     -10.139  14.025  66.571  1.00  0.00    -0.287 C  
BRANCH   5   6
HETATM    6  C   UNL     1      -9.686  15.425  66.900  1.00  0.00    -0.241 C  
HETATM    7  C   UNL     1     -10.222  16.516  66.318  1.00  0.00    -0.343 C  
HETATM    8  C   UNL     1      -8.564  15.554  67.878  1.00  0.00    -0.155 C  
HETATM    9  O   UNL     1      -7.916  14.592  68.270  1.00  0.00    -0.122 OA 
BRANCH   7  10
HETATM   10  C   UNL     1      -9.775  17.885  66.570  1.00  0.00    -0.331 A  
HETATM   11  C   UNL     1      -8.572  18.344  66.019  1.00  0.00    -0.018 A  
HETATM   12  C   UNL     1      -8.079  19.601  66.370  1.00  0.00    -0.341 A  
HETATM   13  C   UNL     1      -8.785  20.402  67.266  1.00  0.00    -0.429 A  
HETATM   14  C   UNL     1      -9.995  19.958  67.799  1.00  0.00    -0.552 A  
HETATM   15  C   UNL     1     -10.493  18.703  67.448  1.00  0.00    -0.467 A  
ENDBRANCH   7  10
ENDBRANCH   5   6
ENDBRANCH   4   5
ENDBRANCH   3   4
ENDBRANCH   2   3
TORSDOF 5
ENDMDL
MODEL      127
REMARK 921   NORMALIZED FREE ENERGY PREDICTED BY IDOCK:   -3.47 KCAL/MOL
REMARK 922        TOTAL FREE ENERGY PREDICTED BY IDOCK:   -4.92 KCAL/MOL
REMARK 923 INTER-LIGAND FREE ENERGY PREDICTED BY IDOCK:   -4.56 KCAL/MOL
REMARK 924 INTRA-LIGAND FREE ENERGY PREDICTED BY IDOCK:   -0.36 KCAL/MOL
REMARK 927      BINDING AFFINITY PREDICTED BY RF-SCORE:    0.00 PKD
ROOT
HETATM    1  C   UNL     1      -7.738   8.916  62.925  1.00  0.00    -0.116 C  
HETATM    2  C   UNL     1      -8.591   9.386  64.091  1.00  0.00    -0.216 C  
ENDROOT
BRANCH   2   3
HETATM    3  C   UNL     1      -9.637  10.417  63.658  1.00  0.00    -0.364 C  
BRANCH   3   4
HETATM    4  C   UNL     1     -10.348  11.002  64.882  1.00  0.00    -0.378 C  
BRANCH   4   5
HETATM    5  C   UNL     1      -9.419  11.739  65.856  1.00  0.00    -0.239 C  
BRANCH   5   6
HETATM    6  C   UNL     1      -9.972  11.944  67.244  1.00  0.00    -0.200 C  
HETATM    7  C   UNL     1     -11.292  11.903  67.510  1.00  0.00    -0.381 C  
HETATM    8  C   UNL     1      -8.983  12.250  68.321  1.00  0.00    -0.182 C  
HETATM    9  O   UNL     1      -7.808  12.498  68.087  1.00  0.00    -0.131 OA 
BRANCH   7  10
HETATM   10  C   UNL     1     -11.872  12.148  68.830  1.00  0.00    -0.358 A  
HETATM   11  C   UNL     1     -12.015  13.459  69.301  1.00  0.00    -0.367 A  
HETATM   12  C   UNL     1     -12.440  13.686  70.610  1.00  0.00    -0.417 A  
HETATM   13  C   UNL     1     -12.725  12.610  71.449  1.00  0.00    -0.347 A  
HETATM   14  C   UNL     1     -12.605  11.303  70.976  1.00  0.00    -0.495 A  
HETATM   15  C   UNL     1     -12.184  11.071  69.666  1.00  0.00    -0.370 A  
ENDBRANCH   7  10
ENDBRANCH   5   6
ENDBRANCH   4   5
ENDBRANCH   3   4
ENDBRANCH   2   3
TORSDOF 5
ENDMDL
MODEL      128
REMARK 921   NORMALIZED FREE ENERGY PREDICTED BY IDOCK:   -3.46 KCAL/MOL
REMARK 922        TOTAL FREE ENERGY PREDICTED BY IDOCK:   -4.90 KCAL/MOL
REMARK 923 INTER-LIGAND FREE ENERGY PREDICTED BY IDOCK:   -4.77 KCAL/MOL
REMARK 924 INTRA-LIGAND FREE ENERGY PREDICTED BY IDOCK:   -0.13 KCAL/MOL
REMARK 927      BINDING AFFINITY PREDICTED BY RF-SCORE:    0.00 PKD
ROOT
HETATM    1  C   UNL     1      -8.518   7.747  71.702  1.00  0.00    -0.128 C  
HETATM    2  C   UNL     1      -9.593   7.949  72.757  1.00  0.00    -0.311 C  
ENDROOT
BRANCH   2   3
HETATM    3  C   UNL     1     -10.827   8.657  72.190  1.00  0.00    -0.424 C  
BRANCH   3   4
HETATM    4  C   UNL     1     -10.473   9.389  70.893  1.00  0.00    -0.381 C  
BRANCH   4   5
HETATM    5  C   UNL     1     -11.623  10.221  70.307  1.00  0.00    -0.396 C  
BRANCH   5   6
HETATM    6  C   UNL     1     -11.298  10.967  69.038  1.00  0.00    -0.345 C  
HETATM    7  C   UNL     1     -11.440  12.303  68.927  1.00  0.00    -0.355 C  
HETATM    8  C   UNL     1     -10.853  10.146  67.873  1.00  0.00    -0.284 C  
HETATM    9  O   UNL     1     -10.909   8.923  67.867  1.00  0.00    -0.164 OA 
BRANCH   7  10
HETATM   10  C   UNL     1     -11.185  13.057  67.700  1.00  0.00    -0.315 A  
HETATM   11  C   UNL     1      -9.899  13.538  67.427  1.00  0.00    -0.227 A  
HETATM   12  C   UNL     1      -9.685  14.371  66.329  1.00  0.00    -0.330 A  
HETATM   13  C   UNL     1     -10.751  14.723  65.502  1.00  0.00    -0.369 A  
HETATM   14  C   UNL     1     -12.029  14.228  65.759  1.00  0.00    -0.399 A  
HETATM   15  C   UNL     1     -12.246  13.391  66.854  1.00  0.00    -0.343 A  
ENDBRANCH   7  10
ENDBRANCH   5   6
ENDBRANCH   4   5
ENDBRANCH   3   4
ENDBRANCH   2   3
TORSDOF 5
ENDMDL
MODEL      129
REMARK 921   NORMALIZED FREE ENERGY PREDICTED BY IDOCK:   -3.44 KCAL/MOL
REMARK 922        TOTAL FREE ENERGY PREDICTED BY IDOCK:   -4.88 KCAL/MOL
REMARK 923 INTER-LIGAND FREE ENERGY PREDICTED BY IDOCK:   -4.31 KCAL/MOL
REMARK 924 INTRA-LIGAND FREE ENERGY PREDICTED BY IDOCK:   -0.58 KCAL/MOL
REMARK 927      BINDING AFFINITY PREDICTED BY RF-SCORE:    0.00 PKD
ROOT
HETATM    1  C   UNL     1     -13.704   7.156  71.316  1.00  0.00    -0.293 C  
HETATM    2  C   UNL     1     -12.283   7.342  71.820  1.00  0.00    -0.368 C  
ENDROOT
BRANCH   2   3
HETATM    3  C   UNL     1     -12.001   8.791  72.223  1.00  0.00    -0.415 C  
BRANCH   3   4
HETATM    4  C   UNL     1     -12.685   9.758  71.253  1.00  0.00    -0.464 C  
BRANCH   4   5
HETATM    5  C   UNL     1     -11.716  10.658  70.474  1.00  0.00    -0.451 C  
BRANCH   5   6
HETATM    6  C   UNL     1     -11.151  10.057  69.212  1.00  0.00    -0.248 C  
HETATM    7  C   UNL     1     -10.332   8.987  69.223  1.00  0.00    -0.227 C  
HETATM    8  C   UNL     1     -11.502  10.739  67.930  1.00  0.00    -0.227 C  
HETATM    9  O   UNL     1     -12.067  11.824  67.892  1.00  0.00    -0.592 OA 
BRANCH   7  10
HETATM   10  C   UNL     1      -9.723   8.406  68.027  1.00  0.00    -0.184 A  
HETATM   11  C   UNL     1     -10.297   7.281  67.423  1.00  0.00    -0.330 A  
HETATM   12  C   UNL     1      -9.642   6.646  66.368  1.00  0.00    -0.147 A  
HETATM   13  C   UNL     1      -8.419   7.133  65.912  1.00  0.00    -0.151 A  
HETATM   14  C   UNL     1      -7.855   8.267  66.496  1.00  0.00    -0.093 A  
HETATM   15  C   UNL     1      -8.508   8.907  67.550  1.00  0.00    -0.116 A  
ENDBRANCH   7  10
ENDBRANCH   5   6
ENDBRANCH   4   5
ENDBRANCH   3   4
ENDBRANCH   2   3
TORSDOF 5
ENDMDL
MODEL      130
REMARK 921   NORMALIZED FREE ENERGY PREDICTED BY IDOCK:   -3.44 KCAL/MOL
REMARK 922        TOTAL FREE ENERGY PREDICTED BY IDOCK:   -4.88 KCAL/MOL
REMARK 923 INTER-LIGAND FREE ENERGY PREDICTED BY IDOCK:   -4.34 KCAL/MOL
REMARK 924 INTRA-LIGAND FREE ENERGY PREDICTED BY IDOCK:   -0.53 KCAL/MOL
REMARK 927      BINDING AFFINITY PREDICTED BY RF-SCORE:    0.00 PKD
ROOT
HETATM    1  C   UNL     1      -6.878   7.600  66.535  1.00  0.00    -0.062 C  
HETATM    2  C   UNL     1      -8.173   7.767  67.313  1.00  0.00    -0.119 C  
ENDROOT
BRANCH   2   3
HETATM    3  C   UNL     1      -9.404   7.508  66.442  1.00  0.00    -0.211 C  
BRANCH   3   4
HETATM    4  C   UNL     1     -10.531   8.478  66.808  1.00  0.00    -0.308 C  
BRANCH   4   5
HETATM    5  C   UNL     1     -10.082   9.940  66.947  1.00  0.00    -0.285 C  
BRANCH   5   6
HETATM    6  C   UNL     1     -10.463  10.611  68.242  1.00  0.00    -0.214 C  
HETATM    7  C   UNL     1     -11.735  10.941  68.539  1.00  0.00    -0.307 C  
HETATM    8  C   UNL     1      -9.347  10.947  69.177  1.00  0.00    -0.078 C  
HETATM    9  O   UNL     1      -8.169  10.853  68.859  1.00  0.00    -0.140 OA 
BRANCH   7  10
HETATM   10  C   UNL     1     -12.139  11.639  69.759  1.00  0.00    -0.357 A  
HETATM   11  C   UNL     1     -12.657  10.917  70.841  1.00  0.00    -0.494 A  
HETATM   12  C   UNL     1     -13.169  11.592  71.949  1.00  0.00    -0.479 A  
HETATM   13  C   UNL     1     -13.162  12.985  71.981  1.00  0.00    -0.543 A  
HETATM   14  C   UNL     1     -12.626  13.707  70.915  1.00  0.00    -0.421 A  
HETATM   15  C   UNL     1     -12.111  13.036  69.807  1.00  0.00    -0.325 A  
ENDBRANCH   7  10
ENDBRANCH   5   6
ENDBRANCH   4   5
ENDBRANCH   3   4
ENDBRANCH   2   3
TORSDOF 5
ENDMDL
MODEL      131
REMARK 921   NORMALIZED FREE ENERGY PREDICTED BY IDOCK:   -3.44 KCAL/MOL
REMARK 922        TOTAL FREE ENERGY PREDICTED BY IDOCK:   -4.87 KCAL/MOL
REMARK 923 INTER-LIGAND FREE ENERGY PREDICTED BY IDOCK:   -5.03 KCAL/MOL
REMARK 924 INTRA-LIGAND FREE ENERGY PREDICTED BY IDOCK:    0.16 KCAL/MOL
REMARK 927      BINDING AFFINITY PREDICTED BY RF-SCORE:    0.00 PKD
ROOT
HETATM    1  C   UNL     1     -12.789  10.597  71.366  1.00  0.00    -0.556 C  
HETATM    2  C   UNL     1     -12.427  11.888  70.650  1.00  0.00    -0.347 C  
ENDROOT
BRANCH   2   3
HETATM    3  C   UNL     1     -13.076  13.109  71.305  1.00  0.00    -0.275 C  
BRANCH   3   4
HETATM    4  C   UNL     1     -12.013  14.152  71.661  1.00  0.00    -0.066 C  
BRANCH   4   5
HETATM    5  C   UNL     1     -11.963  15.351  70.704  1.00  0.00    -0.396 C  
BRANCH   5   6
HETATM    6  C   UNL     1     -11.474  15.044  69.311  1.00  0.00    -0.326 C  
HETATM    7  C   UNL     1     -12.261  14.477  68.376  1.00  0.00    -0.154 C  
HETATM    8  C   UNL     1     -10.041  15.351  69.020  1.00  0.00    -0.234 C  
HETATM    9  O   UNL     1      -9.245  15.670  69.893  1.00  0.00    -0.192 OA 
BRANCH   7  10
HETATM   10  C   UNL     1     -11.811  14.115  67.032  1.00  0.00    -0.458 A  
HETATM   11  C   UNL     1     -12.013  12.815  66.551  1.00  0.00    -0.428 A  
HETATM   12  C   UNL     1     -11.465  12.432  65.327  1.00  0.00    -0.389 A  
HETATM   13  C   UNL     1     -10.718  13.343  64.581  1.00  0.00    -0.425 A  
HETATM   14  C   UNL     1     -10.535  14.645  65.046  1.00  0.00    -0.447 A  
HETATM   15  C   UNL     1     -11.085  15.033  66.268  1.00  0.00    -0.334 A  
ENDBRANCH   7  10
ENDBRANCH   5   6
ENDBRANCH   4   5
ENDBRANCH   3   4
ENDBRANCH   2   3
TORSDOF 5
ENDMDL
MODEL      132
REMARK 921   NORMALIZED FREE ENERGY PREDICTED BY IDOCK:   -3.43 KCAL/MOL
REMARK 922        TOTAL FREE ENERGY PREDICTED BY IDOCK:   -4.86 KCAL/MOL
REMARK 923 INTER-LIGAND FREE ENERGY PREDICTED BY IDOCK:   -4.32 KCAL/MOL
REMARK 924 INTRA-LIGAND FREE ENERGY PREDICTED BY IDOCK:   -0.54 KCAL/MOL
REMARK 927      BINDING AFFINITY PREDICTED BY RF-SCORE:    0.00 PKD
ROOT
HETATM    1  C   UNL     1      -8.148   6.024  72.517  1.00  0.00    -0.105 C  
HETATM    2  C   UNL     1      -8.909   5.183  73.528  1.00  0.00    -0.116 C  
ENDROOT
BRANCH   2   3
HETATM    3  C   UNL     1     -10.373   5.615  73.649  1.00  0.00    -0.260 C  
BRANCH   3   4
HETATM    4  C   UNL     1     -10.490   7.138  73.545  1.00  0.00    -0.422 C  
BRANCH   4   5
HETATM    5  C   UNL     1     -11.635   7.620  72.642  1.00  0.00    -0.371 C  
BRANCH   5   6
HETATM    6  C   UNL     1     -11.208   8.237  71.334  1.00  0.00    -0.304 C  
HETATM    7  C   UNL     1     -11.070   9.568  71.172  1.00  0.00    -0.450 C  
HETATM    8  C   UNL     1     -10.990   7.301  70.191  1.00  0.00    -0.260 C  
HETATM    9  O   UNL     1     -11.301   6.118  70.237  1.00  0.00    -0.365 OA 
BRANCH   7  10
HETATM   10  C   UNL     1     -10.709  10.209  69.909  1.00  0.00    -0.340 A  
HETATM   11  C   UNL     1     -11.693  10.834  69.133  1.00  0.00    -0.368 A  
HETATM   12  C   UNL     1     -11.375  11.324  67.867  1.00  0.00    -0.367 A  
HETATM   13  C   UNL     1     -10.078  11.196  67.374  1.00  0.00    -0.213 A  
HETATM   14  C   UNL     1      -9.090  10.595  68.153  1.00  0.00    -0.148 A  
HETATM   15  C   UNL     1      -9.403  10.106  69.421  1.00  0.00    -0.235 A  
ENDBRANCH   7  10
ENDBRANCH   5   6
ENDBRANCH   4   5
ENDBRANCH   3   4
ENDBRANCH   2   3
TORSDOF 5
ENDMDL
MODEL      133
REMARK 921   NORMALIZED FREE ENERGY PREDICTED BY IDOCK:   -3.42 KCAL/MOL
REMARK 922        TOTAL FREE ENERGY PREDICTED BY IDOCK:   -4.86 KCAL/MOL
REMARK 923 INTER-LIGAND FREE ENERGY PREDICTED BY IDOCK:   -4.93 KCAL/MOL
REMARK 924 INTRA-LIGAND FREE ENERGY PREDICTED BY IDOCK:    0.07 KCAL/MOL
REMARK 927      BINDING AFFINITY PREDICTED BY RF-SCORE:    0.00 PKD
ROOT
HETATM    1  C   UNL     1      -6.513  13.161  67.558  1.00  0.00    -0.154 C  
HETATM    2  C   UNL     1      -7.900  13.781  67.575  1.00  0.00    -0.189 C  
ENDROOT
BRANCH   2   3
HETATM    3  C   UNL     1      -9.002  12.721  67.655  1.00  0.00    -0.191 C  
BRANCH   3   4
HETATM    4  C   UNL     1     -10.046  12.953  66.559  1.00  0.00    -0.263 C  
BRANCH   4   5
HETATM    5  C   UNL     1     -11.422  12.344  66.863  1.00  0.00    -0.423 C  
BRANCH   5   6
HETATM    6  C   UNL     1     -11.439  11.303  67.954  1.00  0.00    -0.360 C  
HETATM    7  C   UNL     1     -11.821  11.584  69.216  1.00  0.00    -0.414 C  
HETATM    8  C   UNL     1     -10.959   9.937  67.586  1.00  0.00    -0.200 C  
HETATM    9  O   UNL     1     -10.414   9.695  66.517  1.00  0.00    -0.216 OA 
BRANCH   7  10
HETATM   10  C   UNL     1     -11.802  10.618  70.314  1.00  0.00    -0.430 A  
HETATM   11  C   UNL     1     -10.598  10.011  70.694  1.00  0.00    -0.272 A  
HETATM   12  C   UNL     1     -10.602   8.992  71.646  1.00  0.00    -0.434 A  
HETATM   13  C   UNL     1     -11.803   8.579  72.222  1.00  0.00    -0.453 A  
HETATM   14  C   UNL     1     -13.000   9.197  71.862  1.00  0.00    -0.473 A  
HETATM   15  C   UNL     1     -13.001  10.218  70.912  1.00  0.00    -0.456 A  
ENDBRANCH   7  10
ENDBRANCH   5   6
ENDBRANCH   4   5
ENDBRANCH   3   4
ENDBRANCH   2   3
TORSDOF 5
ENDMDL
MODEL      134
REMARK 921   NORMALIZED FREE ENERGY PREDICTED BY IDOCK:   -3.42 KCAL/MOL
REMARK 922        TOTAL FREE ENERGY PREDICTED BY IDOCK:   -4.85 KCAL/MOL
REMARK 923 INTER-LIGAND FREE ENERGY PREDICTED BY IDOCK:   -4.37 KCAL/MOL
REMARK 924 INTRA-LIGAND FREE ENERGY PREDICTED BY IDOCK:   -0.48 KCAL/MOL
REMARK 927      BINDING AFFINITY PREDICTED BY RF-SCORE:    0.00 PKD
ROOT
HETATM    1  C   UNL     1      -9.067   6.151  66.032  1.00  0.00    -0.136 C  
HETATM    2  C   UNL     1      -9.434   7.477  66.679  1.00  0.00    -0.246 C  
ENDROOT
BRANCH   2   3
HETATM    3  C   UNL     1      -8.746   7.664  68.034  1.00  0.00    -0.125 C  
BRANCH   3   4
HETATM    4  C   UNL     1      -8.302   9.119  68.210  1.00  0.00    -0.120 C  
BRANCH   4   5
HETATM    5  C   UNL     1      -9.399  10.051  68.743  1.00  0.00    -0.162 C  
BRANCH   5   6
HETATM    6  C   UNL     1      -9.844  11.132  67.791  1.00  0.00    -0.186 C  
HETATM    7  C   UNL     1     -10.823  10.941  66.884  1.00  0.00    -0.307 C  
HETATM    8  C   UNL     1      -9.108  12.431  67.859  1.00  0.00    -0.191 C  
HETATM    9  O   UNL     1      -8.087  12.577  68.517  1.00  0.00    -0.147 OA 
BRANCH   7  10
HETATM   10  C   UNL     1     -11.248  11.944  65.909  1.00  0.00    -0.373 A  
HETATM   11  C   UNL     1     -12.077  13.001  66.307  1.00  0.00    -0.453 A  
HETATM   12  C   UNL     1     -12.593  13.879  65.353  1.00  0.00    -0.538 A  
HETATM   13  C   UNL     1     -12.282  13.706  64.005  1.00  0.00    -0.443 A  
HETATM   14  C   UNL     1     -11.438  12.669  63.609  1.00  0.00    -0.563 A  
HETATM   15  C   UNL     1     -10.918  11.791  64.560  1.00  0.00    -0.382 A  
ENDBRANCH   7  10
ENDBRANCH   5   6
ENDBRANCH   4   5
ENDBRANCH   3   4
ENDBRANCH   2   3
TORSDOF 5
ENDMDL
MODEL      135
REMARK 921   NORMALIZED FREE ENERGY PREDICTED BY IDOCK:   -3.42 KCAL/MOL
REMARK 922        TOTAL FREE ENERGY PREDICTED BY IDOCK:   -4.85 KCAL/MOL
REMARK 923 INTER-LIGAND FREE ENERGY PREDICTED BY IDOCK:   -4.35 KCAL/MOL
REMARK 924 INTRA-LIGAND FREE ENERGY PREDICTED BY IDOCK:   -0.50 KCAL/MOL
REMARK 927      BINDING AFFINITY PREDICTED BY RF-SCORE:    0.00 PKD
ROOT
HETATM    1  C   UNL     1      -5.950   4.402  68.178  1.00  0.00    -0.027 C  
HETATM    2  C   UNL     1      -7.276   4.291  68.911  1.00  0.00    -0.055 C  
ENDROOT
BRANCH   2   3
HETATM    3  C   UNL     1      -8.411   4.984  68.153  1.00  0.00    -0.099 C  
BRANCH   3   4
HETATM    4  C   UNL     1      -9.767   4.592  68.747  1.00  0.00    -0.213 C  
BRANCH   4   5
HETATM    5  C   UNL     1      -9.778   4.492  70.279  1.00  0.00    -0.287 C  
BRANCH   5   6
HETATM    6  C   UNL     1     -10.598   5.539  70.987  1.00  0.00    -0.300 C  
HETATM    7  C   UNL     1     -11.338   6.450  70.325  1.00  0.00    -0.468 C  
HETATM    8  C   UNL     1     -10.516   5.560  72.479  1.00  0.00    -0.216 C  
HETATM    9  O   UNL     1      -9.703   4.892  73.104  1.00  0.00    -0.139 OA 
BRANCH   7  10
HETATM   10  C   UNL     1     -12.106   7.513  70.972  1.00  0.00    -0.305 A  
HETATM   11  C   UNL     1     -13.433   7.286  71.357  1.00  0.00    -0.400 A  
HETATM   12  C   UNL     1     -14.206   8.338  71.847  1.00  0.00    -0.535 A  
HETATM   13  C   UNL     1     -13.658   9.615  71.958  1.00  0.00    -0.467 A  
HETATM   14  C   UNL     1     -12.330   9.840  71.596  1.00  0.00    -0.495 A  
HETATM   15  C   UNL     1     -11.552   8.790  71.108  1.00  0.00    -0.344 A  
ENDBRANCH   7  10
ENDBRANCH   5   6
ENDBRANCH   4   5
ENDBRANCH   3   4
ENDBRANCH   2   3
TORSDOF 5
ENDMDL
MODEL      136
REMARK 921   NORMALIZED FREE ENERGY PREDICTED BY IDOCK:   -3.42 KCAL/MOL
REMARK 922        TOTAL FREE ENERGY PREDICTED BY IDOCK:   -4.85 KCAL/MOL
REMARK 923 INTER-LIGAND FREE ENERGY PREDICTED BY IDOCK:   -4.37 KCAL/MOL
REMARK 924 INTRA-LIGAND FREE ENERGY PREDICTED BY IDOCK:   -0.48 KCAL/MOL
REMARK 927      BINDING AFFINITY PREDICTED BY RF-SCORE:    0.00 PKD
ROOT
HETATM    1  C   UNL     1      -5.912  11.443  67.411  1.00  0.00    -0.073 C  
HETATM    2  C   UNL     1      -6.179  12.938  67.469  1.00  0.00    -0.154 C  
ENDROOT
BRANCH   2   3
HETATM    3  C   UNL     1      -7.048  13.320  68.669  1.00  0.00    -0.103 C  
BRANCH   3   4
HETATM    4  C   UNL     1      -8.531  13.275  68.291  1.00  0.00    -0.160 C  
BRANCH   4   5
HETATM    5  C   UNL     1      -8.820  13.655  66.831  1.00  0.00    -0.201 C  
BRANCH   5   6
HETATM    6  C   UNL     1      -9.175  15.102  66.600  1.00  0.00    -0.298 C  
HETATM    7  C   UNL     1      -8.858  16.074  67.478  1.00  0.00    -0.198 C  
HETATM    8  C   UNL     1      -9.952  15.412  65.362  1.00  0.00    -0.321 C  
HETATM    9  O   UNL     1     -10.434  14.542  64.651  1.00  0.00    -0.388 OA 
BRANCH   7  10
HETATM   10  C   UNL     1      -9.230  17.479  67.317  1.00  0.00    -0.240 A  
HETATM   11  C   UNL     1     -10.453  17.943  67.817  1.00  0.00    -0.409 A  
HETATM   12  C   UNL     1     -10.868  19.247  67.545  1.00  0.00    -0.524 A  
HETATM   13  C   UNL     1     -10.064  20.089  66.779  1.00  0.00    -0.607 A  
HETATM   14  C   UNL     1      -8.835  19.638  66.299  1.00  0.00    -0.410 A  
HETATM   15  C   UNL     1      -8.415  18.336  66.572  1.00  0.00    -0.287 A  
ENDBRANCH   7  10
ENDBRANCH   5   6
ENDBRANCH   4   5
ENDBRANCH   3   4
ENDBRANCH   2   3
TORSDOF 5
ENDMDL
MODEL      137
REMARK 921   NORMALIZED FREE ENERGY PREDICTED BY IDOCK:   -3.41 KCAL/MOL
REMARK 922        TOTAL FREE ENERGY PREDICTED BY IDOCK:   -4.84 KCAL/MOL
REMARK 923 INTER-LIGAND FREE ENERGY PREDICTED BY IDOCK:   -4.45 KCAL/MOL
REMARK 924 INTRA-LIGAND FREE ENERGY PREDICTED BY IDOCK:   -0.40 KCAL/MOL
REMARK 927      BINDING AFFINITY PREDICTED BY RF-SCORE:    0.00 PKD
ROOT
HETATM    1  C   UNL     1     -11.091   8.542  71.439  1.00  0.00    -0.328 C  
HETATM    2  C   UNL     1     -10.082   7.424  71.235  1.00  0.00    -0.195 C  
ENDROOT
BRANCH   2   3
HETATM    3  C   UNL     1      -9.066   7.760  70.140  1.00  0.00    -0.153 C  
BRANCH   3   4
HETATM    4  C   UNL     1      -9.605   8.871  69.235  1.00  0.00    -0.162 C  
BRANCH   4   5
HETATM    5  C   UNL     1      -8.559   9.469  68.283  1.00  0.00    -0.120 C  
BRANCH   5   6
HETATM    6  C   UNL     1      -9.085  10.490  67.307  1.00  0.00    -0.152 C  
HETATM    7  C   UNL     1     -10.328  10.424  66.790  1.00  0.00    -0.294 C  
HETATM    8  C   UNL     1      -8.139  11.567  66.888  1.00  0.00    -0.164 C  
HETATM    9  O   UNL     1      -6.948  11.546  67.170  1.00  0.00    -0.117 OA 
BRANCH   7  10
HETATM   10  C   UNL     1     -10.859  11.363  65.802  1.00  0.00    -0.290 A  
HETATM   11  C   UNL     1     -11.723  12.390  66.203  1.00  0.00    -0.460 A  
HETATM   12  C   UNL     1     -12.335  13.199  65.247  1.00  0.00    -0.532 A  
HETATM   13  C   UNL     1     -12.085  12.989  63.891  1.00  0.00    -0.541 A  
HETATM   14  C   UNL     1     -11.207  11.982  63.490  1.00  0.00    -0.526 A  
HETATM   15  C   UNL     1     -10.590  11.173  64.444  1.00  0.00    -0.411 A  
ENDBRANCH   7  10
ENDBRANCH   5   6
ENDBRANCH   4   5
ENDBRANCH   3   4
ENDBRANCH   2   3
TORSDOF 5
ENDMDL
MODEL      138
REMARK 921   NORMALIZED FREE ENERGY PREDICTED BY IDOCK:   -3.41 KCAL/MOL
REMARK 922        TOTAL FREE ENERGY PREDICTED BY IDOCK:   -4.83 KCAL/MOL
REMARK 923 INTER-LIGAND FREE ENERGY PREDICTED BY IDOCK:   -4.27 KCAL/MOL
REMARK 924 INTRA-LIGAND FREE ENERGY PREDICTED BY IDOCK:   -0.57 KCAL/MOL
REMARK 927      BINDING AFFINITY PREDICTED BY RF-SCORE:    0.00 PKD
ROOT
HETATM    1  C   UNL     1      -6.852   4.374  73.303  1.00  0.00    -0.059 C  
HETATM    2  C   UNL     1      -8.223   4.730  73.853  1.00  0.00    -0.105 C  
ENDROOT
BRANCH   2   3
HETATM    3  C   UNL     1      -9.319   4.597  72.793  1.00  0.00    -0.148 C  
BRANCH   3   4
HETATM    4  C   UNL     1     -10.669   5.040  73.363  1.00  0.00    -0.330 C  
BRANCH   4   5
HETATM    5  C   UNL     1     -10.649   6.428  74.021  1.00  0.00    -0.192 C  
BRANCH   5   6
HETATM    6  C   UNL     1     -10.665   7.594  73.066  1.00  0.00    -0.449 C  
HETATM    7  C   UNL     1     -11.694   7.830  72.229  1.00  0.00    -0.390 C  
HETATM    8  C   UNL     1      -9.450   8.463  73.048  1.00  0.00    -0.167 C  
HETATM    9  O   UNL     1      -8.419   8.168  73.636  1.00  0.00    -0.226 OA 
BRANCH   7  10
HETATM   10  C   UNL     1     -11.727   8.918  71.252  1.00  0.00    -0.370 A  
HETATM   11  C   UNL     1     -11.034   8.794  70.041  1.00  0.00    -0.216 A  
HETATM   12  C   UNL     1     -10.951   9.880  69.171  1.00  0.00    -0.233 A  
HETATM   13  C   UNL     1     -11.561  11.089  69.504  1.00  0.00    -0.384 A  
HETATM   14  C   UNL     1     -12.271  11.209  70.698  1.00  0.00    -0.492 A  
HETATM   15  C   UNL     1     -12.359  10.123  71.570  1.00  0.00    -0.505 A  
ENDBRANCH   7  10
ENDBRANCH   5   6
ENDBRANCH   4   5
ENDBRANCH   3   4
ENDBRANCH   2   3
TORSDOF 5
ENDMDL
MODEL      139
REMARK 921   NORMALIZED FREE ENERGY PREDICTED BY IDOCK:   -3.39 KCAL/MOL
REMARK 922        TOTAL FREE ENERGY PREDICTED BY IDOCK:   -4.82 KCAL/MOL
REMARK 923 INTER-LIGAND FREE ENERGY PREDICTED BY IDOCK:   -4.42 KCAL/MOL
REMARK 924 INTRA-LIGAND FREE ENERGY PREDICTED BY IDOCK:   -0.39 KCAL/MOL
REMARK 927      BINDING AFFINITY PREDICTED BY RF-SCORE:    0.00 PKD
ROOT
HETATM    1  C   UNL     1     -10.730   5.994  68.367  1.00  0.00    -0.351 C  
HETATM    2  C   UNL     1     -10.632   7.175  67.416  1.00  0.00    -0.372 C  
ENDROOT
BRANCH   2   3
HETATM    3  C   UNL     1      -9.790   8.313  68.000  1.00  0.00    -0.201 C  
BRANCH   3   4
HETATM    4  C   UNL     1     -10.045   9.613  67.233  1.00  0.00    -0.267 C  
BRANCH   4   5
HETATM    5  C   UNL     1     -11.194  10.461  67.799  1.00  0.00    -0.309 C  
BRANCH   5   6
HETATM    6  C   UNL     1     -11.036  11.952  67.634  1.00  0.00    -0.286 C  
HETATM    7  C   UNL     1     -10.280  12.496  66.660  1.00  0.00    -0.243 C  
HETATM    8  C   UNL     1     -11.722  12.815  68.642  1.00  0.00    -0.324 C  
HETATM    9  O   UNL     1     -12.242  12.362  69.653  1.00  0.00    -0.219 OA 
BRANCH   7  10
HETATM   10  C   UNL     1     -10.059  13.933  66.498  1.00  0.00    -0.286 A  
HETATM   11  C   UNL     1     -10.878  14.676  65.639  1.00  0.00    -0.335 A  
HETATM   12  C   UNL     1     -10.584  16.014  65.379  1.00  0.00    -0.428 A  
HETATM   13  C   UNL     1      -9.475  16.613  65.976  1.00  0.00    -0.286 A  
HETATM   14  C   UNL     1      -8.670  15.882  66.849  1.00  0.00    -0.272 A  
HETATM   15  C   UNL     1      -8.964  14.545  67.114  1.00  0.00    -0.244 A  
ENDBRANCH   7  10
ENDBRANCH   5   6
ENDBRANCH   4   5
ENDBRANCH   3   4
ENDBRANCH   2   3
TORSDOF 5
ENDMDL
MODEL      140
REMARK 921   NORMALIZED FREE ENERGY PREDICTED BY IDOCK:   -3.38 KCAL/MOL
REMARK 922        TOTAL FREE ENERGY PREDICTED BY IDOCK:   -4.80 KCAL/MOL
REMARK 923 INTER-LIGAND FREE ENERGY PREDICTED BY IDOCK:   -4.63 KCAL/MOL
REMARK 924 INTRA-LIGAND FREE ENERGY PREDICTED BY IDOCK:   -0.17 KCAL/MOL
REMARK 927      BINDING AFFINITY PREDICTED BY RF-SCORE:    0.00 PKD
ROOT
HETATM    1  C   UNL     1     -12.108  12.948  63.102  1.00  0.00    -0.351 C  
HETATM    2  C   UNL     1     -12.460  13.156  64.565  1.00  0.00    -0.406 C  
ENDROOT
BRANCH   2   3
HETATM    3  C   UNL     1     -11.997  14.522  65.078  1.00  0.00    -0.399 C  
BRANCH   3   4
HETATM    4  C   UNL     1     -10.509  14.481  65.437  1.00  0.00    -0.399 C  
BRANCH   4   5
HETATM    5  C   UNL     1     -10.084  13.226  66.213  1.00  0.00    -0.294 C  
BRANCH   5   6
HETATM    6  C   UNL     1     -10.569  13.155  67.639  1.00  0.00    -0.235 C  
HETATM    7  C   UNL     1     -11.780  12.662  67.968  1.00  0.00    -0.402 C  
HETATM    8  C   UNL     1      -9.659  13.709  68.685  1.00  0.00    -0.099 C  
HETATM    9  O   UNL     1      -8.651  14.347  68.412  1.00  0.00    -0.163 OA 
BRANCH   7  10
HETATM   10  C   UNL     1     -12.309  12.624  69.331  1.00  0.00     0.046 A  
HETATM   11  C   UNL     1     -12.501  13.815  70.043  1.00  0.00    -0.301 A  
HETATM   12  C   UNL     1     -12.874  13.771  71.386  1.00  0.00    -0.449 A  
HETATM   13  C   UNL     1     -13.059  12.543  72.019  1.00  0.00    -0.472 A  
HETATM   14  C   UNL     1     -12.892  11.356  71.307  1.00  0.00    -0.481 A  
HETATM   15  C   UNL     1     -12.521  11.395  69.963  1.00  0.00    -0.224 A  
ENDBRANCH   7  10
ENDBRANCH   5   6
ENDBRANCH   4   5
ENDBRANCH   3   4
ENDBRANCH   2   3
TORSDOF 5
ENDMDL
MODEL      141
REMARK 921   NORMALIZED FREE ENERGY PREDICTED BY IDOCK:   -3.38 KCAL/MOL
REMARK 922        TOTAL FREE ENERGY PREDICTED BY IDOCK:   -4.79 KCAL/MOL
REMARK 923 INTER-LIGAND FREE ENERGY PREDICTED BY IDOCK:   -4.58 KCAL/MOL
REMARK 924 INTRA-LIGAND FREE ENERGY PREDICTED BY IDOCK:   -0.21 KCAL/MOL
REMARK 927      BINDING AFFINITY PREDICTED BY RF-SCORE:    0.00 PKD
ROOT
HETATM    1  C   UNL     1      -6.261  21.322  63.081  1.00  0.00    -0.334 C  
HETATM    2  C   UNL     1      -6.397  20.633  64.428  1.00  0.00    -0.347 C  
ENDROOT
BRANCH   2   3
HETATM    3  C   UNL     1      -5.851  19.203  64.400  1.00  0.00    -0.308 C  
BRANCH   3   4
HETATM    4  C   UNL     1      -6.336  18.422  65.625  1.00  0.00    -0.307 C  
BRANCH   4   5
HETATM    5  C   UNL     1      -7.707  18.867  66.151  1.00  0.00    -0.281 C  
BRANCH   5   6
HETATM    6  C   UNL     1      -8.434  17.851  66.995  1.00  0.00    -0.248 C  
HETATM    7  C   UNL     1      -9.440  17.095  66.511  1.00  0.00    -0.290 C  
HETATM    8  C   UNL     1      -8.022  17.749  68.427  1.00  0.00    -0.293 C  
HETATM    9  O   UNL     1      -7.263  18.552  68.954  1.00  0.00    -0.288 OA 
BRANCH   7  10
HETATM   10  C   UNL     1     -10.204  16.136  67.309  1.00  0.00    -0.277 A  
HETATM   11  C   UNL     1     -10.165  14.773  66.993  1.00  0.00    -0.253 A  
HETATM   12  C   UNL     1     -10.998  13.878  67.665  1.00  0.00    -0.278 A  
HETATM   13  C   UNL     1     -11.867  14.340  68.652  1.00  0.00    -0.379 A  
HETATM   14  C   UNL     1     -11.892  15.694  68.985  1.00  0.00    -0.379 A  
HETATM   15  C   UNL     1     -11.059  16.592  68.318  1.00  0.00    -0.321 A  
ENDBRANCH   7  10
ENDBRANCH   5   6
ENDBRANCH   4   5
ENDBRANCH   3   4
ENDBRANCH   2   3
TORSDOF 5
ENDMDL
MODEL      142
REMARK 921   NORMALIZED FREE ENERGY PREDICTED BY IDOCK:   -3.37 KCAL/MOL
REMARK 922        TOTAL FREE ENERGY PREDICTED BY IDOCK:   -4.79 KCAL/MOL
REMARK 923 INTER-LIGAND FREE ENERGY PREDICTED BY IDOCK:   -3.99 KCAL/MOL
REMARK 924 INTRA-LIGAND FREE ENERGY PREDICTED BY IDOCK:   -0.80 KCAL/MOL
REMARK 927      BINDING AFFINITY PREDICTED BY RF-SCORE:    0.00 PKD
ROOT
HETATM    1  C   UNL     1      -8.327   5.386  73.001  1.00  0.00    -0.112 C  
HETATM    2  C   UNL     1      -9.229   5.408  74.223  1.00  0.00    -0.122 C  
ENDROOT
BRANCH   2   3
HETATM    3  C   UNL     1     -10.157   6.626  74.229  1.00  0.00    -0.378 C  
BRANCH   3   4
HETATM    4  C   UNL     1      -9.526   7.782  73.449  1.00  0.00    -0.349 C  
BRANCH   4   5
HETATM    5  C   UNL     1     -10.473   8.455  72.446  1.00  0.00    -0.402 C  
BRANCH   5   6
HETATM    6  C   UNL     1     -10.801   7.639  71.222  1.00  0.00    -0.252 C  
HETATM    7  C   UNL     1      -9.891   7.371  70.265  1.00  0.00    -0.187 C  
HETATM    8  C   UNL     1     -12.214   7.173  71.085  1.00  0.00    -0.365 C  
HETATM    9  O   UNL     1     -13.112   7.565  71.819  1.00  0.00    -0.338 OA 
BRANCH   7  10
HETATM   10  C   UNL     1     -10.182   6.629  69.039  1.00  0.00    -0.196 A  
HETATM   11  C   UNL     1      -9.837   5.275  68.940  1.00  0.00    -0.230 A  
HETATM   12  C   UNL     1      -9.988   4.604  67.727  1.00  0.00    -0.150 A  
HETATM   13  C   UNL     1     -10.485   5.279  66.613  1.00  0.00    -0.345 A  
HETATM   14  C   UNL     1     -10.851   6.621  66.714  1.00  0.00    -0.322 A  
HETATM   15  C   UNL     1     -10.704   7.295  67.926  1.00  0.00    -0.239 A  
ENDBRANCH   7  10
ENDBRANCH   5   6
ENDBRANCH   4   5
ENDBRANCH   3   4
ENDBRANCH   2   3
TORSDOF 5
ENDMDL
MODEL      143
REMARK 921   NORMALIZED FREE ENERGY PREDICTED BY IDOCK:   -3.36 KCAL/MOL
REMARK 922        TOTAL FREE ENERGY PREDICTED BY IDOCK:   -4.78 KCAL/MOL
REMARK 923 INTER-LIGAND FREE ENERGY PREDICTED BY IDOCK:   -4.50 KCAL/MOL
REMARK 924 INTRA-LIGAND FREE ENERGY PREDICTED BY IDOCK:   -0.28 KCAL/MOL
REMARK 927      BINDING AFFINITY PREDICTED BY RF-SCORE:    0.00 PKD
ROOT
HETATM    1  C   UNL     1      -7.809  10.057  64.666  1.00  0.00    -0.145 C  
HETATM    2  C   UNL     1      -9.255  10.365  65.017  1.00  0.00    -0.256 C  
ENDROOT
BRANCH   2   3
HETATM    3  C   UNL     1      -9.865   9.298  65.930  1.00  0.00    -0.335 C  
BRANCH   3   4
HETATM    4  C   UNL     1     -10.533   9.952  67.143  1.00  0.00    -0.305 C  
BRANCH   4   5
HETATM    5  C   UNL     1     -11.050  11.375  66.885  1.00  0.00    -0.356 C  
BRANCH   5   6
HETATM    6  C   UNL     1     -11.016  12.298  68.077  1.00  0.00    -0.265 C  
HETATM    7  C   UNL     1     -12.136  12.739  68.683  1.00  0.00    -0.152 C  
HETATM    8  C   UNL     1      -9.669  12.754  68.534  1.00  0.00    -0.126 C  
HETATM    9  O   UNL     1      -8.649  12.546  67.891  1.00  0.00    -0.160 OA 
BRANCH   7  10
HETATM   10  C   UNL     1     -12.149  13.675  69.807  1.00  0.00    -0.396 A  
HETATM   11  C   UNL     1     -12.568  13.246  71.072  1.00  0.00    -0.408 A  
HETATM   12  C   UNL     1     -12.710  14.168  72.109  1.00  0.00    -0.379 A  
HETATM   13  C   UNL     1     -12.432  15.516  71.887  1.00  0.00    -0.475 A  
HETATM   14  C   UNL     1     -11.993  15.943  70.634  1.00  0.00    -0.379 A  
HETATM   15  C   UNL     1     -11.846  15.023  69.595  1.00  0.00    -0.358 A  
ENDBRANCH   7  10
ENDBRANCH   5   6
ENDBRANCH   4   5
ENDBRANCH   3   4
ENDBRANCH   2   3
TORSDOF 5
ENDMDL
MODEL      144
REMARK 921   NORMALIZED FREE ENERGY PREDICTED BY IDOCK:   -3.35 KCAL/MOL
REMARK 922        TOTAL FREE ENERGY PREDICTED BY IDOCK:   -4.76 KCAL/MOL
REMARK 923 INTER-LIGAND FREE ENERGY PREDICTED BY IDOCK:   -4.37 KCAL/MOL
REMARK 924 INTRA-LIGAND FREE ENERGY PREDICTED BY IDOCK:   -0.39 KCAL/MOL
REMARK 927      BINDING AFFINITY PREDICTED BY RF-SCORE:    0.00 PKD
ROOT
HETATM    1  C   UNL     1      -9.870   9.866  69.453  1.00  0.00    -0.231 C  
HETATM    2  C   UNL     1     -11.316  10.303  69.286  1.00  0.00    -0.253 C  
ENDROOT
BRANCH   2   3
HETATM    3  C   UNL     1     -11.465  11.404  68.234  1.00  0.00    -0.369 C  
BRANCH   3   4
HETATM    4  C   UNL     1     -10.989  10.905  66.867  1.00  0.00    -0.286 C  
BRANCH   4   5
HETATM    5  C   UNL     1     -10.484  12.015  65.934  1.00  0.00    -0.290 C  
BRANCH   5   6
HETATM    6  C   UNL     1     -10.194  13.335  66.601  1.00  0.00    -0.265 C  
HETATM    7  C   UNL     1     -11.065  14.363  66.583  1.00  0.00    -0.326 C  
HETATM    8  C   UNL     1      -8.856  13.479  67.250  1.00  0.00    -0.224 C  
HETATM    9  O   UNL     1      -7.963  12.653  67.111  1.00  0.00    -0.170 OA 
BRANCH   7  10
HETATM   10  C   UNL     1     -10.801  15.675  67.171  1.00  0.00    -0.297 A  
HETATM   11  C   UNL     1     -10.232  16.692  66.393  1.00  0.00    -0.322 A  
HETATM   12  C   UNL     1      -9.855  17.896  66.987  1.00  0.00    -0.314 A  
HETATM   13  C   UNL     1     -10.046  18.090  68.354  1.00  0.00    -0.392 A  
HETATM   14  C   UNL     1     -10.632  17.089  69.128  1.00  0.00    -0.303 A  
HETATM   15  C   UNL     1     -11.015  15.884  68.537  1.00  0.00    -0.324 A  
ENDBRANCH   7  10
ENDBRANCH   5   6
ENDBRANCH   4   5
ENDBRANCH   3   4
ENDBRANCH   2   3
TORSDOF 5
ENDMDL
MODEL      145
REMARK 921   NORMALIZED FREE ENERGY PREDICTED BY IDOCK:   -3.34 KCAL/MOL
REMARK 922        TOTAL FREE ENERGY PREDICTED BY IDOCK:   -4.75 KCAL/MOL
REMARK 923 INTER-LIGAND FREE ENERGY PREDICTED BY IDOCK:   -4.20 KCAL/MOL
REMARK 924 INTRA-LIGAND FREE ENERGY PREDICTED BY IDOCK:   -0.55 KCAL/MOL
REMARK 927      BINDING AFFINITY PREDICTED BY RF-SCORE:    0.00 PKD
ROOT
HETATM    1  C   UNL     1     -10.261   4.758  66.555  1.00  0.00    -0.294 C  
HETATM    2  C   UNL     1     -10.077   5.236  67.986  1.00  0.00    -0.208 C  
ENDROOT
BRANCH   2   3
HETATM    3  C   UNL     1     -11.072   6.340  68.354  1.00  0.00    -0.371 C  
BRANCH   3   4
HETATM    4  C   UNL     1     -10.345   7.512  69.021  1.00  0.00    -0.217 C  
BRANCH   4   5
HETATM    5  C   UNL     1      -9.089   7.980  68.273  1.00  0.00    -0.135 C  
BRANCH   5   6
HETATM    6  C   UNL     1      -9.252   9.245  67.470  1.00  0.00    -0.140 C  
HETATM    7  C   UNL     1     -10.235   9.405  66.562  1.00  0.00    -0.308 C  
HETATM    8  C   UNL     1      -8.231  10.315  67.688  1.00  0.00    -0.114 C  
HETATM    9  O   UNL     1      -7.214  10.132  68.344  1.00  0.00    -0.074 OA 
BRANCH   7  10
HETATM   10  C   UNL     1     -10.396  10.594  65.725  1.00  0.00    -0.287 A  
HETATM   11  C   UNL     1     -11.037  11.730  66.237  1.00  0.00    -0.364 A  
HETATM   12  C   UNL     1     -11.312  12.811  65.400  1.00  0.00    -0.339 A  
HETATM   13  C   UNL     1     -10.947  12.763  64.056  1.00  0.00    -0.454 A  
HETATM   14  C   UNL     1     -10.289  11.643  63.548  1.00  0.00    -0.488 A  
HETATM   15  C   UNL     1     -10.009  10.561  64.383  1.00  0.00    -0.410 A  
ENDBRANCH   7  10
ENDBRANCH   5   6
ENDBRANCH   4   5
ENDBRANCH   3   4
ENDBRANCH   2   3
TORSDOF 5
ENDMDL
MODEL      146
REMARK 921   NORMALIZED FREE ENERGY PREDICTED BY IDOCK:   -3.34 KCAL/MOL
REMARK 922        TOTAL FREE ENERGY PREDICTED BY IDOCK:   -4.74 KCAL/MOL
REMARK 923 INTER-LIGAND FREE ENERGY PREDICTED BY IDOCK:   -4.16 KCAL/MOL
REMARK 924 INTRA-LIGAND FREE ENERGY PREDICTED BY IDOCK:   -0.59 KCAL/MOL
REMARK 927      BINDING AFFINITY PREDICTED BY RF-SCORE:    0.00 PKD
ROOT
HETATM    1  C   UNL     1      -8.395   9.516  70.064  1.00  0.00    -0.192 C  
HETATM    2  C   UNL     1      -9.707   9.218  70.770  1.00  0.00    -0.348 C  
ENDROOT
BRANCH   2   3
HETATM    3  C   UNL     1     -10.873   9.089  69.786  1.00  0.00    -0.215 C  
BRANCH   3   4
HETATM    4  C   UNL     1     -10.562   9.844  68.490  1.00  0.00    -0.248 C  
BRANCH   4   5
HETATM    5  C   UNL     1     -11.619  10.888  68.102  1.00  0.00    -0.317 C  
BRANCH   5   6
HETATM    6  C   UNL     1     -11.306  12.305  68.514  1.00  0.00    -0.332 C  
HETATM    7  C   UNL     1     -10.562  13.132  67.753  1.00  0.00    -0.242 C  
HETATM    8  C   UNL     1     -11.819  12.745  69.846  1.00  0.00    -0.301 C  
HETATM    9  O   UNL     1     -12.316  11.969  70.651  1.00  0.00    -0.356 OA 
BRANCH   7  10
HETATM   10  C   UNL     1     -10.193  14.493  68.139  1.00  0.00    -0.230 A  
HETATM   11  C   UNL     1     -11.028  15.568  67.807  1.00  0.00    -0.317 A  
HETATM   12  C   UNL     1     -10.611  16.876  68.053  1.00  0.00    -0.367 A  
HETATM   13  C   UNL     1      -9.366  17.115  68.631  1.00  0.00    -0.269 A  
HETATM   14  C   UNL     1      -8.542  16.046  68.984  1.00  0.00    -0.244 A  
HETATM   15  C   UNL     1      -8.956  14.736  68.743  1.00  0.00    -0.179 A  
ENDBRANCH   7  10
ENDBRANCH   5   6
ENDBRANCH   4   5
ENDBRANCH   3   4
ENDBRANCH   2   3
TORSDOF 5
ENDMDL
MODEL      147
REMARK 921   NORMALIZED FREE ENERGY PREDICTED BY IDOCK:   -3.32 KCAL/MOL
REMARK 922        TOTAL FREE ENERGY PREDICTED BY IDOCK:   -4.73 KCAL/MOL
REMARK 923 INTER-LIGAND FREE ENERGY PREDICTED BY IDOCK:   -4.17 KCAL/MOL
REMARK 924 INTRA-LIGAND FREE ENERGY PREDICTED BY IDOCK:   -0.56 KCAL/MOL
REMARK 927      BINDING AFFINITY PREDICTED BY RF-SCORE:    0.00 PKD
ROOT
HETATM    1  C   UNL     1      -9.084   6.363  68.448  1.00  0.00    -0.118 C  
HETATM    2  C   UNL     1      -9.539   7.145  69.669  1.00  0.00    -0.154 C  
ENDROOT
BRANCH   2   3
HETATM    3  C   UNL     1     -10.708   8.081  69.349  1.00  0.00    -0.167 C  
BRANCH   3   4
HETATM    4  C   UNL     1     -10.324   9.534  69.639  1.00  0.00    -0.236 C  
BRANCH   4   5
HETATM    5  C   UNL     1      -9.260  10.104  68.690  1.00  0.00    -0.157 C  
BRANCH   5   6
HETATM    6  C   UNL     1      -9.794  10.906  67.530  1.00  0.00    -0.192 C  
HETATM    7  C   UNL     1     -10.191  12.187  67.658  1.00  0.00    -0.206 C  
HETATM    8  C   UNL     1      -9.914  10.194  66.222  1.00  0.00    -0.242 C  
HETATM    9  O   UNL     1      -9.761   8.985  66.113  1.00  0.00    -0.254 OA 
BRANCH   7  10
HETATM   10  C   UNL     1     -10.763  12.982  66.571  1.00  0.00    -0.290 A  
HETATM   11  C   UNL     1      -9.974  13.929  65.905  1.00  0.00    -0.317 A  
HETATM   12  C   UNL     1     -10.554  14.781  64.965  1.00  0.00    -0.452 A  
HETATM   13  C   UNL     1     -11.916  14.688  64.685  1.00  0.00    -0.472 A  
HETATM   14  C   UNL     1     -12.699  13.731  65.330  1.00  0.00    -0.481 A  
HETATM   15  C   UNL     1     -12.123  12.875  66.268  1.00  0.00    -0.433 A  
ENDBRANCH   7  10
ENDBRANCH   5   6
ENDBRANCH   4   5
ENDBRANCH   3   4
ENDBRANCH   2   3
TORSDOF 5
ENDMDL
MODEL      148
REMARK 921   NORMALIZED FREE ENERGY PREDICTED BY IDOCK:   -3.32 KCAL/MOL
REMARK 922        TOTAL FREE ENERGY PREDICTED BY IDOCK:   -4.72 KCAL/MOL
REMARK 923 INTER-LIGAND FREE ENERGY PREDICTED BY IDOCK:   -3.86 KCAL/MOL
REMARK 924 INTRA-LIGAND FREE ENERGY PREDICTED BY IDOCK:   -0.86 KCAL/MOL
REMARK 927      BINDING AFFINITY PREDICTED BY RF-SCORE:    0.00 PKD
ROOT
HETATM    1  C   UNL     1     -13.221   7.185  71.423  1.00  0.00    -0.391 C  
HETATM    2  C   UNL     1     -12.027   6.470  72.033  1.00  0.00    -0.372 C  
ENDROOT
BRANCH   2   3
HETATM    3  C   UNL     1     -11.067   7.441  72.724  1.00  0.00    -0.394 C  
BRANCH   3   4
HETATM    4  C   UNL     1     -11.115   8.813  72.045  1.00  0.00    -0.441 C  
BRANCH   4   5
HETATM    5  C   UNL     1      -9.847   9.168  71.256  1.00  0.00    -0.363 C  
BRANCH   5   6
HETATM    6  C   UNL     1      -9.567   8.296  70.058  1.00  0.00    -0.168 C  
HETATM    7  C   UNL     1     -10.339   8.315  68.953  1.00  0.00    -0.230 C  
HETATM    8  C   UNL     1      -8.411   7.357  70.167  1.00  0.00    -0.136 C  
HETATM    9  O   UNL     1      -7.817   7.162  71.219  1.00  0.00    -0.096 OA 
BRANCH   7  10
HETATM   10  C   UNL     1     -10.133   7.449  67.793  1.00  0.00    -0.232 A  
HETATM   11  C   UNL     1     -10.787   6.213  67.716  1.00  0.00    -0.413 A  
HETATM   12  C   UNL     1     -10.487   5.330  66.679  1.00  0.00    -0.345 A  
HETATM   13  C   UNL     1      -9.539   5.678  65.717  1.00  0.00     0.006 A  
HETATM   14  C   UNL     1      -8.904   6.917  65.778  1.00  0.00    -0.088 A  
HETATM   15  C   UNL     1      -9.203   7.805  66.812  1.00  0.00    -0.202 A  
ENDBRANCH   7  10
ENDBRANCH   5   6
ENDBRANCH   4   5
ENDBRANCH   3   4
ENDBRANCH   2   3
TORSDOF 5
ENDMDL
MODEL      149
REMARK 921   NORMALIZED FREE ENERGY PREDICTED BY IDOCK:   -3.31 KCAL/MOL
REMARK 922        TOTAL FREE ENERGY PREDICTED BY IDOCK:   -4.72 KCAL/MOL
REMARK 923 INTER-LIGAND FREE ENERGY PREDICTED BY IDOCK:   -4.42 KCAL/MOL
REMARK 924 INTRA-LIGAND FREE ENERGY PREDICTED BY IDOCK:   -0.29 KCAL/MOL
REMARK 927      BINDING AFFINITY PREDICTED BY RF-SCORE:    0.00 PKD
ROOT
HETATM    1  C   UNL     1     -13.136  11.039  71.768  1.00  0.00    -0.554 C  
HETATM    2  C   UNL     1     -12.096  11.145  70.665  1.00  0.00    -0.477 C  
ENDROOT
BRANCH   2   3
HETATM    3  C   UNL     1     -11.330   9.834  70.470  1.00  0.00    -0.382 C  
BRANCH   3   4
HETATM    4  C   UNL     1     -10.105  10.059  69.580  1.00  0.00    -0.263 C  
BRANCH   4   5
HETATM    5  C   UNL     1      -9.266   8.796  69.334  1.00  0.00    -0.146 C  
BRANCH   5   6
HETATM    6  C   UNL     1      -9.351   7.746  70.413  1.00  0.00    -0.160 C  
HETATM    7  C   UNL     1     -10.168   6.679  70.322  1.00  0.00    -0.215 C  
HETATM    8  C   UNL     1      -8.516   7.968  71.632  1.00  0.00    -0.125 C  
HETATM    9  O   UNL     1      -7.924   9.018  71.844  1.00  0.00    -0.348 OA 
BRANCH   7  10
HETATM   10  C   UNL     1     -10.318   5.667  71.368  1.00  0.00    -0.287 A  
HETATM   11  C   UNL     1      -9.571   4.484  71.311  1.00  0.00    -0.240 A  
HETATM   12  C   UNL     1      -9.812   3.463  72.230  1.00  0.00    -0.231 A  
HETATM   13  C   UNL     1     -10.795   3.620  73.206  1.00  0.00    -0.290 A  
HETATM   14  C   UNL     1     -11.526   4.806  73.279  1.00  0.00    -0.361 A  
HETATM   15  C   UNL     1     -11.285   5.831  72.364  1.00  0.00    -0.343 A  
ENDBRANCH   7  10
ENDBRANCH   5   6
ENDBRANCH   4   5
ENDBRANCH   3   4
ENDBRANCH   2   3
TORSDOF 5
ENDMDL
MODEL      150
REMARK 921   NORMALIZED FREE ENERGY PREDICTED BY IDOCK:   -3.31 KCAL/MOL
REMARK 922        TOTAL FREE ENERGY PREDICTED BY IDOCK:   -4.71 KCAL/MOL
REMARK 923 INTER-LIGAND FREE ENERGY PREDICTED BY IDOCK:   -4.23 KCAL/MOL
REMARK 924 INTRA-LIGAND FREE ENERGY PREDICTED BY IDOCK:   -0.48 KCAL/MOL
REMARK 927      BINDING AFFINITY PREDICTED BY RF-SCORE:    0.00 PKD
ROOT
HETATM    1  C   UNL     1      -8.814  15.058  67.542  1.00  0.00    -0.193 C  
HETATM    2  C   UNL     1     -10.244  14.719  67.155  1.00  0.00    -0.245 C  
ENDROOT
BRANCH   2   3
HETATM    3  C   UNL     1     -10.335  14.154  65.735  1.00  0.00    -0.338 C  
BRANCH   3   4
HETATM    4  C   UNL     1      -9.886  12.691  65.712  1.00  0.00    -0.236 C  
BRANCH   4   5
HETATM    5  C   UNL     1     -10.980  11.691  66.113  1.00  0.00    -0.339 C  
BRANCH   5   6
HETATM    6  C   UNL     1     -10.600  10.723  67.205  1.00  0.00    -0.306 C  
HETATM    7  C   UNL     1     -10.587  11.070  68.507  1.00  0.00    -0.218 C  
HETATM    8  C   UNL     1     -10.182   9.356  66.773  1.00  0.00    -0.250 C  
HETATM    9  O   UNL     1      -9.982   9.066  65.601  1.00  0.00    -0.176 OA 
BRANCH   7  10
HETATM   10  C   UNL     1     -10.176  10.178  69.591  1.00  0.00    -0.272 A  
HETATM   11  C   UNL     1     -11.106   9.770  70.555  1.00  0.00    -0.384 A  
HETATM   12  C   UNL     1     -10.684   9.033  71.662  1.00  0.00    -0.441 A  
HETATM   13  C   UNL     1      -9.338   8.700  71.807  1.00  0.00    -0.343 A  
HETATM   14  C   UNL     1      -8.414   9.085  70.837  1.00  0.00    -0.253 A  
HETATM   15  C   UNL     1      -8.831   9.819  69.727  1.00  0.00    -0.241 A  
ENDBRANCH   7  10
ENDBRANCH   5   6
ENDBRANCH   4   5
ENDBRANCH   3   4
ENDBRANCH   2   3
TORSDOF 5
ENDMDL
MODEL      151
REMARK 921   NORMALIZED FREE ENERGY PREDICTED BY IDOCK:   -3.28 KCAL/MOL
REMARK 922        TOTAL FREE ENERGY PREDICTED BY IDOCK:   -4.67 KCAL/MOL
REMARK 923 INTER-LIGAND FREE ENERGY PREDICTED BY IDOCK:   -4.06 KCAL/MOL
REMARK 924 INTRA-LIGAND FREE ENERGY PREDICTED BY IDOCK:   -0.62 KCAL/MOL
REMARK 927      BINDING AFFINITY PREDICTED BY RF-SCORE:    0.00 PKD
ROOT
HETATM    1  C   UNL     1      -7.983   9.700  66.874  1.00  0.00    -0.105 C  
HETATM    2  C   UNL     1      -7.718   8.285  66.389  1.00  0.00    -0.091 C  
ENDROOT
BRANCH   2   3
HETATM    3  C   UNL     1      -7.868   7.256  67.513  1.00  0.00    -0.112 C  
BRANCH   3   4
HETATM    4  C   UNL     1      -7.443   7.863  68.853  1.00  0.00    -0.094 C  
BRANCH   4   5
HETATM    5  C   UNL     1      -8.173   7.275  70.069  1.00  0.00    -0.132 C  
BRANCH   5   6
HETATM    6  C   UNL     1      -9.249   8.151  70.660  1.00  0.00    -0.162 C  
HETATM    7  C   UNL     1     -10.376   8.465  69.991  1.00  0.00    -0.211 C  
HETATM    8  C   UNL     1      -8.987   8.708  72.022  1.00  0.00    -0.216 C  
HETATM    9  O   UNL     1      -7.898   8.618  72.573  1.00  0.00    -0.331 OA 
BRANCH   7  10
HETATM   10  C   UNL     1     -11.418   9.352  70.508  1.00  0.00    -0.317 A  
HETATM   11  C   UNL     1     -11.389  10.719  70.204  1.00  0.00    -0.390 A  
HETATM   12  C   UNL     1     -12.301  11.586  70.805  1.00  0.00    -0.472 A  
HETATM   13  C   UNL     1     -13.243  11.092  71.706  1.00  0.00    -0.505 A  
HETATM   14  C   UNL     1     -13.289   9.728  71.994  1.00  0.00    -0.547 A  
HETATM   15  C   UNL     1     -12.381   8.857  71.392  1.00  0.00    -0.368 A  
ENDBRANCH   7  10
ENDBRANCH   5   6
ENDBRANCH   4   5
ENDBRANCH   3   4
ENDBRANCH   2   3
TORSDOF 5
ENDMDL
MODEL      152
REMARK 921   NORMALIZED FREE ENERGY PREDICTED BY IDOCK:   -3.28 KCAL/MOL
REMARK 922        TOTAL FREE ENERGY PREDICTED BY IDOCK:   -4.67 KCAL/MOL
REMARK 923 INTER-LIGAND FREE ENERGY PREDICTED BY IDOCK:   -3.95 KCAL/MOL
REMARK 924 INTRA-LIGAND FREE ENERGY PREDICTED BY IDOCK:   -0.72 KCAL/MOL
REMARK 927      BINDING AFFINITY PREDICTED BY RF-SCORE:    0.00 PKD
ROOT
HETATM    1  C   UNL     1      -9.049   7.205  72.465  1.00  0.00    -0.148 C  
HETATM    2  C   UNL     1     -10.328   7.562  73.204  1.00  0.00    -0.402 C  
ENDROOT
BRANCH   2   3
HETATM    3  C   UNL     1     -11.244   8.458  72.366  1.00  0.00    -0.438 C  
BRANCH   3   4
HETATM    4  C   UNL     1     -10.415   9.359  71.447  1.00  0.00    -0.358 C  
BRANCH   4   5
HETATM    5  C   UNL     1     -10.836   9.310  69.972  1.00  0.00    -0.264 C  
BRANCH   5   6
HETATM    6  C   UNL     1     -10.327   8.123  69.195  1.00  0.00    -0.228 C  
HETATM    7  C   UNL     1     -11.014   6.967  69.107  1.00  0.00    -0.240 C  
HETATM    8  C   UNL     1      -8.983   8.264  68.559  1.00  0.00    -0.137 C  
HETATM    9  O   UNL     1      -8.242   9.211  68.785  1.00  0.00    -0.107 OA 
BRANCH   7  10
HETATM   10  C   UNL     1     -10.532   5.775  68.409  1.00  0.00    -0.283 A  
HETATM   11  C   UNL     1      -9.858   4.772  69.117  1.00  0.00    -0.254 A  
HETATM   12  C   UNL     1      -9.280   3.704  68.431  1.00  0.00    -0.219 A  
HETATM   13  C   UNL     1      -9.376   3.632  67.042  1.00  0.00    -0.223 A  
HETATM   14  C   UNL     1     -10.067   4.617  66.337  1.00  0.00    -0.289 A  
HETATM   15  C   UNL     1     -10.649   5.686  67.019  1.00  0.00    -0.358 A  
ENDBRANCH   7  10
ENDBRANCH   5   6
ENDBRANCH   4   5
ENDBRANCH   3   4
ENDBRANCH   2   3
TORSDOF 5
ENDMDL
MODEL      153
REMARK 921   NORMALIZED FREE ENERGY PREDICTED BY IDOCK:   -3.27 KCAL/MOL
REMARK 922        TOTAL FREE ENERGY PREDICTED BY IDOCK:   -4.66 KCAL/MOL
REMARK 923 INTER-LIGAND FREE ENERGY PREDICTED BY IDOCK:   -4.25 KCAL/MOL
REMARK 924 INTRA-LIGAND FREE ENERGY PREDICTED BY IDOCK:   -0.41 KCAL/MOL
REMARK 927      BINDING AFFINITY PREDICTED BY RF-SCORE:    0.00 PKD
ROOT
HETATM    1  C   UNL     1      -9.127  12.545  66.809  1.00  0.00    -0.214 C  
HETATM    2  C   UNL     1     -10.515  12.193  66.300  1.00  0.00    -0.270 C  
ENDROOT
BRANCH   2   3
HETATM    3  C   UNL     1     -11.379  11.549  67.387  1.00  0.00    -0.367 C  
BRANCH   3   4
HETATM    4  C   UNL     1     -10.977  12.073  68.768  1.00  0.00    -0.282 C  
BRANCH   4   5
HETATM    5  C   UNL     1     -11.866  11.570  69.915  1.00  0.00    -0.430 C  
BRANCH   5   6
HETATM    6  C   UNL     1     -11.420  10.283  70.559  1.00  0.00    -0.427 C  
HETATM    7  C   UNL     1     -10.279   9.656  70.209  1.00  0.00    -0.333 C  
HETATM    8  C   UNL     1     -12.334   9.692  71.582  1.00  0.00    -0.404 C  
HETATM    9  O   UNL     1     -13.466  10.115  71.778  1.00  0.00    -0.365 OA 
BRANCH   7  10
HETATM   10  C   UNL     1      -9.837   8.380  70.771  1.00  0.00    -0.215 A  
HETATM   11  C   UNL     1      -8.756   8.343  71.661  1.00  0.00    -0.240 A  
HETATM   12  C   UNL     1      -8.248   7.116  72.089  1.00  0.00    -0.103 A  
HETATM   13  C   UNL     1      -8.818   5.928  71.635  1.00  0.00    -0.139 A  
HETATM   14  C   UNL     1      -9.909   5.962  70.767  1.00  0.00    -0.229 A  
HETATM   15  C   UNL     1     -10.422   7.186  70.339  1.00  0.00    -0.234 A  
ENDBRANCH   7  10
ENDBRANCH   5   6
ENDBRANCH   4   5
ENDBRANCH   3   4
ENDBRANCH   2   3
TORSDOF 5
ENDMDL
MODEL      154
REMARK 921   NORMALIZED FREE ENERGY PREDICTED BY IDOCK:   -3.27 KCAL/MOL
REMARK 922        TOTAL FREE ENERGY PREDICTED BY IDOCK:   -4.66 KCAL/MOL
REMARK 923 INTER-LIGAND FREE ENERGY PREDICTED BY IDOCK:   -4.26 KCAL/MOL
REMARK 924 INTRA-LIGAND FREE ENERGY PREDICTED BY IDOCK:   -0.40 KCAL/MOL
REMARK 927      BINDING AFFINITY PREDICTED BY RF-SCORE:    0.00 PKD
ROOT
HETATM    1  C   UNL     1      -6.710   7.701  66.540  1.00  0.00    -0.058 C  
HETATM    2  C   UNL     1      -7.870   7.842  67.512  1.00  0.00    -0.122 C  
ENDROOT
BRANCH   2   3
HETATM    3  C   UNL     1      -9.105   7.068  67.046  1.00  0.00    -0.150 C  
BRANCH   3   4
HETATM    4  C   UNL     1     -10.275   8.026  66.802  1.00  0.00    -0.367 C  
BRANCH   4   5
HETATM    5  C   UNL     1      -9.868   9.369  66.180  1.00  0.00    -0.356 C  
BRANCH   5   6
HETATM    6  C   UNL     1     -10.170  10.586  67.018  1.00  0.00    -0.275 C  
HETATM    7  C   UNL     1     -11.393  10.828  67.528  1.00  0.00    -0.283 C  
HETATM    8  C   UNL     1      -9.051  11.555  67.221  1.00  0.00    -0.164 C  
HETATM    9  O   UNL     1      -7.994  11.479  66.609  1.00  0.00    -0.158 OA 
BRANCH   7  10
HETATM   10  C   UNL     1     -11.741  12.020  68.300  1.00  0.00    -0.396 A  
HETATM   11  C   UNL     1     -11.826  13.266  67.667  1.00  0.00    -0.400 A  
HETATM   12  C   UNL     1     -12.022  14.421  68.424  1.00  0.00    -0.328 A  
HETATM   13  C   UNL     1     -12.136  14.335  69.811  1.00  0.00    -0.401 A  
HETATM   14  C   UNL     1     -12.074  13.094  70.443  1.00  0.00    -0.392 A  
HETATM   15  C   UNL     1     -11.881  11.936  69.689  1.00  0.00    -0.406 A  
ENDBRANCH   7  10
ENDBRANCH   5   6
ENDBRANCH   4   5
ENDBRANCH   3   4
ENDBRANCH   2   3
TORSDOF 5
ENDMDL
MODEL      155
REMARK 921   NORMALIZED FREE ENERGY PREDICTED BY IDOCK:   -3.26 KCAL/MOL
REMARK 922        TOTAL FREE ENERGY PREDICTED BY IDOCK:   -4.64 KCAL/MOL
REMARK 923 INTER-LIGAND FREE ENERGY PREDICTED BY IDOCK:   -3.96 KCAL/MOL
REMARK 924 INTRA-LIGAND FREE ENERGY PREDICTED BY IDOCK:   -0.68 KCAL/MOL
REMARK 927      BINDING AFFINITY PREDICTED BY RF-SCORE:    0.00 PKD
ROOT
HETATM    1  C   UNL     1      -9.159  10.663  66.803  1.00  0.00    -0.167 C  
HETATM    2  C   UNL     1     -10.678  10.700  66.762  1.00  0.00    -0.272 C  
ENDROOT
BRANCH   2   3
HETATM    3  C   UNL     1     -11.292  10.591  68.160  1.00  0.00    -0.324 C  
BRANCH   3   4
HETATM    4  C   UNL     1     -11.065  11.885  68.946  1.00  0.00    -0.299 C  
BRANCH   4   5
HETATM    5  C   UNL     1     -11.839  13.094  68.403  1.00  0.00    -0.386 C  
BRANCH   5   6
HETATM    6  C   UNL     1     -11.020  14.343  68.196  1.00  0.00    -0.265 C  
HETATM    7  C   UNL     1     -10.368  14.599  67.045  1.00  0.00    -0.263 C  
HETATM    8  C   UNL     1     -10.918  15.278  69.357  1.00  0.00    -0.271 C  
HETATM    9  O   UNL     1     -11.319  14.987  70.476  1.00  0.00    -0.267 OA 
BRANCH   7  10
HETATM   10  C   UNL     1      -9.523  15.772  66.822  1.00  0.00    -0.259 A  
HETATM   11  C   UNL     1     -10.080  16.953  66.319  1.00  0.00    -0.335 A  
HETATM   12  C   UNL     1      -9.254  18.024  65.978  1.00  0.00    -0.019 A  
HETATM   13  C   UNL     1      -7.874  17.920  66.142  1.00  0.00    -0.257 A  
HETATM   14  C   UNL     1      -7.317  16.753  66.664  1.00  0.00    -0.297 A  
HETATM   15  C   UNL     1      -8.140  15.681  67.009  1.00  0.00    -0.276 A  
ENDBRANCH   7  10
ENDBRANCH   5   6
ENDBRANCH   4   5
ENDBRANCH   3   4
ENDBRANCH   2   3
TORSDOF 5
ENDMDL
MODEL      156
REMARK 921   NORMALIZED FREE ENERGY PREDICTED BY IDOCK:   -3.26 KCAL/MOL
REMARK 922        TOTAL FREE ENERGY PREDICTED BY IDOCK:   -4.64 KCAL/MOL
REMARK 923 INTER-LIGAND FREE ENERGY PREDICTED BY IDOCK:   -4.12 KCAL/MOL
REMARK 924 INTRA-LIGAND FREE ENERGY PREDICTED BY IDOCK:   -0.52 KCAL/MOL
REMARK 927      BINDING AFFINITY PREDICTED BY RF-SCORE:    0.00 PKD
ROOT
HETATM    1  C   UNL     1     -10.518  15.390  65.172  1.00  0.00    -0.439 C  
HETATM    2  C   UNL     1     -10.611  14.225  66.143  1.00  0.00    -0.293 C  
ENDROOT
BRANCH   2   3
HETATM    3  C   UNL     1     -10.325  14.654  67.584  1.00  0.00    -0.233 C  
BRANCH   3   4
HETATM    4  C   UNL     1     -11.205  13.868  68.560  1.00  0.00    -0.298 C  
BRANCH   4   5
HETATM    5  C   UNL     1     -11.897  12.646  67.938  1.00  0.00    -0.388 C  
BRANCH   5   6
HETATM    6  C   UNL     1     -11.264  11.315  68.258  1.00  0.00    -0.331 C  
HETATM    7  C   UNL     1     -10.509  10.640  67.369  1.00  0.00    -0.280 C  
HETATM    8  C   UNL     1     -11.554  10.741  69.606  1.00  0.00    -0.316 C  
HETATM    9  O   UNL     1     -12.393  11.218  70.360  1.00  0.00    -0.320 OA 
BRANCH   7  10
HETATM   10  C   UNL     1      -9.922   9.325  67.620  1.00  0.00    -0.245 A  
HETATM   11  C   UNL     1      -8.704   9.220  68.305  1.00  0.00    -0.129 A  
HETATM   12  C   UNL     1      -8.077   7.980  68.425  1.00  0.00    -0.122 A  
HETATM   13  C   UNL     1      -8.662   6.845  67.867  1.00  0.00    -0.121 A  
HETATM   14  C   UNL     1      -9.885   6.942  67.204  1.00  0.00    -0.214 A  
HETATM   15  C   UNL     1     -10.518   8.179  67.084  1.00  0.00    -0.396 A  
ENDBRANCH   7  10
ENDBRANCH   5   6
ENDBRANCH   4   5
ENDBRANCH   3   4
ENDBRANCH   2   3
TORSDOF 5
ENDMDL
MODEL      157
REMARK 921   NORMALIZED FREE ENERGY PREDICTED BY IDOCK:   -3.23 KCAL/MOL
REMARK 922        TOTAL FREE ENERGY PREDICTED BY IDOCK:   -4.61 KCAL/MOL
REMARK 923 INTER-LIGAND FREE ENERGY PREDICTED BY IDOCK:   -4.04 KCAL/MOL
REMARK 924 INTRA-LIGAND FREE ENERGY PREDICTED BY IDOCK:   -0.57 KCAL/MOL
REMARK 927      BINDING AFFINITY PREDICTED BY RF-SCORE:    0.00 PKD
ROOT
HETATM    1  C   UNL     1      -5.880  14.131  70.630  1.00  0.00    -0.191 C  
HETATM    2  C   UNL     1      -5.698  15.166  69.532  1.00  0.00    -0.102 C  
ENDROOT
BRANCH   2   3
HETATM    3  C   UNL     1      -6.698  16.318  69.657  1.00  0.00    -0.154 C  
BRANCH   3   4
HETATM    4  C   UNL     1      -7.834  16.151  68.643  1.00  0.00    -0.188 C  
BRANCH   4   5
HETATM    5  C   UNL     1      -7.481  15.257  67.446  1.00  0.00    -0.239 C  
BRANCH   5   6
HETATM    6  C   UNL     1      -8.611  14.409  66.920  1.00  0.00    -0.191 C  
HETATM    7  C   UNL     1      -9.509  14.872  66.028  1.00  0.00    -0.316 C  
HETATM    8  C   UNL     1      -8.727  13.027  67.476  1.00  0.00    -0.197 C  
HETATM    9  O   UNL     1      -8.065  12.642  68.430  1.00  0.00    -0.155 OA 
BRANCH   7  10
HETATM   10  C   UNL     1     -10.649  14.100  65.533  1.00  0.00    -0.335 A  
HETATM   11  C   UNL     1     -10.508  13.292  64.398  1.00  0.00    -0.424 A  
HETATM   12  C   UNL     1     -11.626  12.665  63.847  1.00  0.00    -0.521 A  
HETATM   13  C   UNL     1     -12.881  12.839  64.427  1.00  0.00    -0.288 A  
HETATM   14  C   UNL     1     -13.020  13.624  65.571  1.00  0.00    -0.325 A  
HETATM   15  C   UNL     1     -11.905  14.251  66.128  1.00  0.00    -0.413 A  
ENDBRANCH   7  10
ENDBRANCH   5   6
ENDBRANCH   4   5
ENDBRANCH   3   4
ENDBRANCH   2   3
TORSDOF 5
ENDMDL
MODEL      158
REMARK 921   NORMALIZED FREE ENERGY PREDICTED BY IDOCK:   -3.23 KCAL/MOL
REMARK 922        TOTAL FREE ENERGY PREDICTED BY IDOCK:   -4.60 KCAL/MOL
REMARK 923 INTER-LIGAND FREE ENERGY PREDICTED BY IDOCK:   -4.37 KCAL/MOL
REMARK 924 INTRA-LIGAND FREE ENERGY PREDICTED BY IDOCK:   -0.23 KCAL/MOL
REMARK 927      BINDING AFFINITY PREDICTED BY RF-SCORE:    0.00 PKD
ROOT
HETATM    1  C   UNL     1      -7.195  18.053  66.053  1.00  0.00    -0.316 C  
HETATM    2  C   UNL     1      -7.468  16.966  67.080  1.00  0.00    -0.231 C  
ENDROOT
BRANCH   2   3
HETATM    3  C   UNL     1      -8.221  15.779  66.473  1.00  0.00    -0.278 C  
BRANCH   3   4
HETATM    4  C   UNL     1      -9.681  16.154  66.203  1.00  0.00    -0.352 C  
BRANCH   4   5
HETATM    5  C   UNL     1     -10.673  15.598  67.234  1.00  0.00    -0.305 C  
BRANCH   5   6
HETATM    6  C   UNL     1     -10.813  14.097  67.249  1.00  0.00    -0.288 C  
HETATM    7  C   UNL     1      -9.964  13.298  67.924  1.00  0.00    -0.233 C  
HETATM    8  C   UNL     1     -11.920  13.518  66.429  1.00  0.00    -0.414 C  
HETATM    9  O   UNL     1     -12.579  14.187  65.644  1.00  0.00    -0.487 OA 
BRANCH   7  10
HETATM   10  C   UNL     1     -10.034  11.837  67.922  1.00  0.00    -0.187 A  
HETATM   11  C   UNL     1      -9.695  11.120  66.767  1.00  0.00    -0.220 A  
HETATM   12  C   UNL     1      -9.892   9.740  66.721  1.00  0.00    -0.265 A  
HETATM   13  C   UNL     1     -10.421   9.073  67.824  1.00  0.00    -0.305 A  
HETATM   14  C   UNL     1     -10.738   9.780  68.984  1.00  0.00    -0.238 A  
HETATM   15  C   UNL     1     -10.540  11.160  69.035  1.00  0.00    -0.251 A  
ENDBRANCH   7  10
ENDBRANCH   5   6
ENDBRANCH   4   5
ENDBRANCH   3   4
ENDBRANCH   2   3
TORSDOF 5
ENDMDL
MODEL      159
REMARK 921   NORMALIZED FREE ENERGY PREDICTED BY IDOCK:   -3.23 KCAL/MOL
REMARK 922        TOTAL FREE ENERGY PREDICTED BY IDOCK:   -4.60 KCAL/MOL
REMARK 923 INTER-LIGAND FREE ENERGY PREDICTED BY IDOCK:   -4.33 KCAL/MOL
REMARK 924 INTRA-LIGAND FREE ENERGY PREDICTED BY IDOCK:   -0.27 KCAL/MOL
REMARK 927      BINDING AFFINITY PREDICTED BY RF-SCORE:    0.00 PKD
ROOT
HETATM    1  C   UNL     1     -13.178  12.658  71.617  1.00  0.00    -0.394 C  
HETATM    2  C   UNL     1     -13.065  11.158  71.833  1.00  0.00    -0.513 C  
ENDROOT
BRANCH   2   3
HETATM    3  C   UNL     1     -11.929  10.544  71.013  1.00  0.00    -0.466 C  
BRANCH   3   4
HETATM    4  C   UNL     1     -11.506  11.495  69.890  1.00  0.00    -0.340 C  
BRANCH   4   5
HETATM    5  C   UNL     1     -12.208  11.237  68.549  1.00  0.00     0.032 C  
BRANCH   5   6
HETATM    6  C   UNL     1     -11.329  11.350  67.329  1.00  0.00    -0.347 C  
HETATM    7  C   UNL     1     -10.513  10.354  66.931  1.00  0.00    -0.300 C  
HETATM    8  C   UNL     1     -11.361  12.651  66.597  1.00  0.00    -0.326 C  
HETATM    9  O   UNL     1     -11.925  13.643  67.040  1.00  0.00    -0.388 OA 
BRANCH   7  10
HETATM   10  C   UNL     1      -9.607  10.443  65.786  1.00  0.00    -0.269 A  
HETATM   11  C   UNL     1     -10.114  10.363  64.483  1.00  0.00    -0.365 A  
HETATM   12  C   UNL     1      -9.240  10.310  63.397  1.00  0.00    -0.321 A  
HETATM   13  C   UNL     1      -7.862  10.339  63.608  1.00  0.00    -0.125 A  
HETATM   14  C   UNL     1      -7.355  10.441  64.903  1.00  0.00    -0.059 A  
HETATM   15  C   UNL     1      -8.225  10.498  65.991  1.00  0.00    -0.150 A  
ENDBRANCH   7  10
ENDBRANCH   5   6
ENDBRANCH   4   5
ENDBRANCH   3   4
ENDBRANCH   2   3
TORSDOF 5
ENDMDL
MODEL      160
REMARK 921   NORMALIZED FREE ENERGY PREDICTED BY IDOCK:   -3.20 KCAL/MOL
REMARK 922        TOTAL FREE ENERGY PREDICTED BY IDOCK:   -4.57 KCAL/MOL
REMARK 923 INTER-LIGAND FREE ENERGY PREDICTED BY IDOCK:   -4.84 KCAL/MOL
REMARK 924 INTRA-LIGAND FREE ENERGY PREDICTED BY IDOCK:    0.27 KCAL/MOL
REMARK 927      BINDING AFFINITY PREDICTED BY RF-SCORE:    0.00 PKD
ROOT
HETATM    1  C   UNL     1      -7.551  20.524  67.038  1.00  0.00    -0.350 C  
HETATM    2  C   UNL     1      -8.407  19.550  67.831  1.00  0.00    -0.350 C  
ENDROOT
BRANCH   2   3
HETATM    3  C   UNL     1      -9.890  19.928  67.794  1.00  0.00    -0.530 C  
BRANCH   3   4
HETATM    4  C   UNL     1     -10.746  18.702  67.466  1.00  0.00    -0.447 C  
BRANCH   4   5
HETATM    5  C   UNL     1     -10.060  17.687  66.540  1.00  0.00    -0.350 C  
BRANCH   5   6
HETATM    6  C   UNL     1     -10.119  16.253  67.001  1.00  0.00    -0.270 C  
HETATM    7  C   UNL     1     -10.500  15.246  66.190  1.00  0.00    -0.318 C  
HETATM    8  C   UNL     1      -9.781  15.994  68.433  1.00  0.00    -0.213 C  
HETATM    9  O   UNL     1      -9.633  16.894  69.249  1.00  0.00    -0.200 OA 
BRANCH   7  10
HETATM   10  C   UNL     1     -10.620  13.851  66.612  1.00  0.00    -0.274 A  
HETATM   11  C   UNL     1     -11.720  13.442  67.377  1.00  0.00    -0.415 A  
HETATM   12  C   UNL     1     -11.766  12.147  67.893  1.00  0.00    -0.403 A  
HETATM   13  C   UNL     1     -10.721  11.259  67.646  1.00  0.00    -0.270 A  
HETATM   14  C   UNL     1      -9.635  11.656  66.866  1.00  0.00    -0.199 A  
HETATM   15  C   UNL     1      -9.586  12.949  66.344  1.00  0.00    -0.252 A  
ENDBRANCH   7  10
ENDBRANCH   5   6
ENDBRANCH   4   5
ENDBRANCH   3   4
ENDBRANCH   2   3
TORSDOF 5
ENDMDL
MODEL      161
REMARK 921   NORMALIZED FREE ENERGY PREDICTED BY IDOCK:   -3.20 KCAL/MOL
REMARK 922        TOTAL FREE ENERGY PREDICTED BY IDOCK:   -4.56 KCAL/MOL
REMARK 923 INTER-LIGAND FREE ENERGY PREDICTED BY IDOCK:   -3.88 KCAL/MOL
REMARK 924 INTRA-LIGAND FREE ENERGY PREDICTED BY IDOCK:   -0.69 KCAL/MOL
REMARK 927      BINDING AFFINITY PREDICTED BY RF-SCORE:    0.00 PKD
ROOT
HETATM    1  C   UNL     1      -8.715  12.994  67.981  1.00  0.00    -0.187 C  
HETATM    2  C   UNL     1      -9.783  13.975  68.434  1.00  0.00    -0.223 C  
ENDROOT
BRANCH   2   3
HETATM    3  C   UNL     1     -11.195  13.420  68.230  1.00  0.00    -0.310 C  
BRANCH   3   4
HETATM    4  C   UNL     1     -11.729  12.825  69.536  1.00  0.00    -0.383 C  
BRANCH   4   5
HETATM    5  C   UNL     1     -12.229  11.379  69.410  1.00  0.00    -0.288 C  
BRANCH   5   6
HETATM    6  C   UNL     1     -11.229  10.397  68.853  1.00  0.00    -0.290 C  
HETATM    7  C   UNL     1     -11.120  10.144  67.534  1.00  0.00    -0.251 C  
HETATM    8  C   UNL     1     -10.383   9.666  69.845  1.00  0.00    -0.249 C  
HETATM    9  O   UNL     1     -10.590   9.713  71.050  1.00  0.00    -0.311 OA 
BRANCH   7  10
HETATM   10  C   UNL     1     -10.201   9.163  66.959  1.00  0.00    -0.333 A  
HETATM   11  C   UNL     1     -10.512   7.798  67.005  1.00  0.00    -0.419 A  
HETATM   12  C   UNL     1      -9.576   6.855  66.581  1.00  0.00    -0.218 A  
HETATM   13  C   UNL     1      -8.332   7.270  66.107  1.00  0.00    -0.133 A  
HETATM   14  C   UNL     1      -8.028   8.629  66.038  1.00  0.00    -0.107 A  
HETATM   15  C   UNL     1      -8.962   9.576  66.459  1.00  0.00    -0.173 A  
ENDBRANCH   7  10
ENDBRANCH   5   6
ENDBRANCH   4   5
ENDBRANCH   3   4
ENDBRANCH   2   3
TORSDOF 5
ENDMDL
MODEL      162
REMARK 921   NORMALIZED FREE ENERGY PREDICTED BY IDOCK:   -3.18 KCAL/MOL
REMARK 922        TOTAL FREE ENERGY PREDICTED BY IDOCK:   -4.54 KCAL/MOL
REMARK 923 INTER-LIGAND FREE ENERGY PREDICTED BY IDOCK:   -4.21 KCAL/MOL
REMARK 924 INTRA-LIGAND FREE ENERGY PREDICTED BY IDOCK:   -0.33 KCAL/MOL
REMARK 927      BINDING AFFINITY PREDICTED BY RF-SCORE:    0.00 PKD
ROOT
HETATM    1  C   UNL     1      -9.178   6.157  68.484  1.00  0.00    -0.115 C  
HETATM    2  C   UNL     1      -9.960   6.513  67.230  1.00  0.00    -0.189 C  
ENDROOT
BRANCH   2   3
HETATM    3  C   UNL     1      -9.265   7.604  66.412  1.00  0.00    -0.223 C  
BRANCH   3   4
HETATM    4  C   UNL     1     -10.096   8.891  66.424  1.00  0.00    -0.333 C  
BRANCH   4   5
HETATM    5  C   UNL     1      -9.792   9.846  65.261  1.00  0.00    -0.373 C  
BRANCH   5   6
HETATM    6  C   UNL     1     -10.106  11.298  65.520  1.00  0.00    -0.306 C  
HETATM    7  C   UNL     1      -9.797  11.909  66.680  1.00  0.00    -0.219 C  
HETATM    8  C   UNL     1     -10.833  12.030  64.440  1.00  0.00    -0.329 C  
HETATM    9  O   UNL     1     -11.311  11.464  63.466  1.00  0.00    -0.376 OA 
BRANCH   7  10
HETATM   10  C   UNL     1     -10.131  13.299  66.992  1.00  0.00    -0.242 A  
HETATM   11  C   UNL     1     -11.337  13.603  67.635  1.00  0.00    -0.328 A  
HETATM   12  C   UNL     1     -11.718  14.934  67.808  1.00  0.00    -0.340 A  
HETATM   13  C   UNL     1     -10.897  15.961  67.345  1.00  0.00    -0.291 A  
HETATM   14  C   UNL     1      -9.684  15.661  66.725  1.00  0.00    -0.255 A  
HETATM   15  C   UNL     1      -9.298  14.332  66.552  1.00  0.00    -0.292 A  
ENDBRANCH   7  10
ENDBRANCH   5   6
ENDBRANCH   4   5
ENDBRANCH   3   4
ENDBRANCH   2   3
TORSDOF 5
ENDMDL
MODEL      163
REMARK 921   NORMALIZED FREE ENERGY PREDICTED BY IDOCK:   -3.18 KCAL/MOL
REMARK 922        TOTAL FREE ENERGY PREDICTED BY IDOCK:   -4.54 KCAL/MOL
REMARK 923 INTER-LIGAND FREE ENERGY PREDICTED BY IDOCK:   -4.12 KCAL/MOL
REMARK 924 INTRA-LIGAND FREE ENERGY PREDICTED BY IDOCK:   -0.42 KCAL/MOL
REMARK 927      BINDING AFFINITY PREDICTED BY RF-SCORE:    0.00 PKD
ROOT
HETATM    1  C   UNL     1     -12.202  14.676  64.485  1.00  0.00    -0.473 C  
HETATM    2  C   UNL     1     -11.058  13.675  64.490  1.00  0.00    -0.396 C  
ENDROOT
BRANCH   2   3
HETATM    3  C   UNL     1     -10.159  13.837  65.718  1.00  0.00    -0.322 C  
BRANCH   3   4
HETATM    4  C   UNL     1      -9.831  12.469  66.323  1.00  0.00    -0.260 C  
BRANCH   4   5
HETATM    5  C   UNL     1     -10.289  11.278  65.469  1.00  0.00    -0.321 C  
BRANCH   5   6
HETATM    6  C   UNL     1      -9.954   9.918  66.028  1.00  0.00    -0.338 C  
HETATM    7  C   UNL     1     -10.705   9.318  66.972  1.00  0.00    -0.199 C  
HETATM    8  C   UNL     1      -8.705   9.274  65.520  1.00  0.00    -0.175 C  
HETATM    9  O   UNL     1      -7.892   9.867  64.824  1.00  0.00    -0.129 OA 
BRANCH   7  10
HETATM   10  C   UNL     1     -10.387   8.025  67.577  1.00  0.00    -0.330 A  
HETATM   11  C   UNL     1      -9.525   7.960  68.679  1.00  0.00    -0.149 A  
HETATM   12  C   UNL     1      -9.114   6.720  69.170  1.00  0.00    -0.138 A  
HETATM   13  C   UNL     1      -9.562   5.547  68.565  1.00  0.00    -0.162 A  
HETATM   14  C   UNL     1     -10.438   5.608  67.482  1.00  0.00    -0.294 A  
HETATM   15  C   UNL     1     -10.854   6.845  66.990  1.00  0.00    -0.436 A  
ENDBRANCH   7  10
ENDBRANCH   5   6
ENDBRANCH   4   5
ENDBRANCH   3   4
ENDBRANCH   2   3
TORSDOF 5
ENDMDL
MODEL      164
REMARK 921   NORMALIZED FREE ENERGY PREDICTED BY IDOCK:   -3.18 KCAL/MOL
REMARK 922        TOTAL FREE ENERGY PREDICTED BY IDOCK:   -4.54 KCAL/MOL
REMARK 923 INTER-LIGAND FREE ENERGY PREDICTED BY IDOCK:   -3.97 KCAL/MOL
REMARK 924 INTRA-LIGAND FREE ENERGY PREDICTED BY IDOCK:   -0.56 KCAL/MOL
REMARK 927      BINDING AFFINITY PREDICTED BY RF-SCORE:    0.00 PKD
ROOT
HETATM    1  C   UNL     1     -10.407   4.692  65.936  1.00  0.00    -0.315 C  
HETATM    2  C   UNL     1     -10.554   5.747  67.020  1.00  0.00    -0.373 C  
ENDROOT
BRANCH   2   3
HETATM    3  C   UNL     1      -9.715   5.418  68.258  1.00  0.00    -0.175 C  
BRANCH   3   4
HETATM    4  C   UNL     1      -9.487   6.678  69.098  1.00  0.00    -0.136 C  
BRANCH   4   5
HETATM    5  C   UNL     1     -10.768   7.464  69.414  1.00  0.00    -0.220 C  
BRANCH   5   6
HETATM    6  C   UNL     1     -10.692   8.948  69.160  1.00  0.00    -0.162 C  
HETATM    7  C   UNL     1     -10.636   9.468  67.919  1.00  0.00    -0.299 C  
HETATM    8  C   UNL     1     -10.629   9.831  70.364  1.00  0.00    -0.304 C  
HETATM    9  O   UNL     1     -10.470   9.394  71.495  1.00  0.00    -0.337 OA 
BRANCH   7  10
HETATM   10  C   UNL     1     -10.509  10.897  67.631  1.00  0.00    -0.244 A  
HETATM   11  C   UNL     1     -11.654  11.700  67.551  1.00  0.00    -0.345 A  
HETATM   12  C   UNL     1     -11.545  13.029  67.143  1.00  0.00    -0.411 A  
HETATM   13  C   UNL     1     -10.297  13.560  66.818  1.00  0.00    -0.264 A  
HETATM   14  C   UNL     1      -9.153  12.769  66.919  1.00  0.00    -0.221 A  
HETATM   15  C   UNL     1      -9.257  11.440  67.329  1.00  0.00    -0.167 A  
ENDBRANCH   7  10
ENDBRANCH   5   6
ENDBRANCH   4   5
ENDBRANCH   3   4
ENDBRANCH   2   3
TORSDOF 5
ENDMDL
MODEL      165
REMARK 921   NORMALIZED FREE ENERGY PREDICTED BY IDOCK:   -3.17 KCAL/MOL
REMARK 922        TOTAL FREE ENERGY PREDICTED BY IDOCK:   -4.53 KCAL/MOL
REMARK 923 INTER-LIGAND FREE ENERGY PREDICTED BY IDOCK:   -4.14 KCAL/MOL
REMARK 924 INTRA-LIGAND FREE ENERGY PREDICTED BY IDOCK:   -0.39 KCAL/MOL
REMARK 927      BINDING AFFINITY PREDICTED BY RF-SCORE:    0.00 PKD
ROOT
HETATM    1  C   UNL     1     -10.128   5.826  68.234  1.00  0.00    -0.208 C  
HETATM    2  C   UNL     1     -10.708   7.089  67.621  1.00  0.00    -0.331 C  
ENDROOT
BRANCH   2   3
HETATM    3  C   UNL     1      -9.656   7.886  66.845  1.00  0.00    -0.263 C  
BRANCH   3   4
HETATM    4  C   UNL     1      -9.553   9.311  67.396  1.00  0.00    -0.190 C  
BRANCH   4   5
HETATM    5  C   UNL     1     -10.906  10.014  67.580  1.00  0.00    -0.326 C  
BRANCH   5   6
HETATM    6  C   UNL     1     -10.863  11.520  67.528  1.00  0.00    -0.285 C  
HETATM    7  C   UNL     1     -10.718  12.278  68.632  1.00  0.00    -0.261 C  
HETATM    8  C   UNL     1     -11.042  12.150  66.185  1.00  0.00    -0.312 C  
HETATM    9  O   UNL     1     -11.380  11.512  65.197  1.00  0.00    -0.208 OA 
BRANCH   7  10
HETATM   10  C   UNL     1     -10.723  13.741  68.631  1.00  0.00    -0.270 A  
HETATM   11  C   UNL     1      -9.539  14.446  68.382  1.00  0.00    -0.219 A  
HETATM   12  C   UNL     1      -9.514  15.834  68.515  1.00  0.00    -0.201 A  
HETATM   13  C   UNL     1     -10.667  16.520  68.894  1.00  0.00    -0.337 A  
HETATM   14  C   UNL     1     -11.853  15.823  69.121  1.00  0.00    -0.367 A  
HETATM   15  C   UNL     1     -11.884  14.435  68.985  1.00  0.00    -0.358 A  
ENDBRANCH   7  10
ENDBRANCH   5   6
ENDBRANCH   4   5
ENDBRANCH   3   4
ENDBRANCH   2   3
TORSDOF 5
ENDMDL
MODEL      166
REMARK 921   NORMALIZED FREE ENERGY PREDICTED BY IDOCK:   -3.15 KCAL/MOL
REMARK 922        TOTAL FREE ENERGY PREDICTED BY IDOCK:   -4.51 KCAL/MOL
REMARK 923 INTER-LIGAND FREE ENERGY PREDICTED BY IDOCK:   -4.06 KCAL/MOL
REMARK 924 INTRA-LIGAND FREE ENERGY PREDICTED BY IDOCK:   -0.45 KCAL/MOL
REMARK 927      BINDING AFFINITY PREDICTED BY RF-SCORE:    0.00 PKD
ROOT
HETATM    1  C   UNL     1      -9.161  10.796  66.795  1.00  0.00    -0.167 C  
HETATM    2  C   UNL     1     -10.544  11.418  66.702  1.00  0.00    -0.302 C  
ENDROOT
BRANCH   2   3
HETATM    3  C   UNL     1     -11.063  11.870  68.069  1.00  0.00    -0.293 C  
BRANCH   3   4
HETATM    4  C   UNL     1     -10.338  13.140  68.523  1.00  0.00    -0.245 C  
BRANCH   4   5
HETATM    5  C   UNL     1     -10.923  14.437  67.947  1.00  0.00    -0.272 C  
BRANCH   5   6
HETATM    6  C   UNL     1      -9.920  15.527  67.666  1.00  0.00    -0.233 C  
HETATM    7  C   UNL     1      -9.456  16.350  68.627  1.00  0.00    -0.239 C  
HETATM    8  C   UNL     1      -9.491  15.693  66.244  1.00  0.00    -0.319 C  
HETATM    9  O   UNL     1     -10.038  15.110  65.318  1.00  0.00    -0.348 OA 
BRANCH   7  10
HETATM   10  C   UNL     1      -8.523  17.451  68.387  1.00  0.00    -0.263 A  
HETATM   11  C   UNL     1      -7.144  17.210  68.368  1.00  0.00    -0.206 A  
HETATM   12  C   UNL     1      -6.251  18.278  68.276  1.00  0.00    -0.185 A  
HETATM   13  C   UNL     1      -6.732  19.584  68.199  1.00  0.00    -0.301 A  
HETATM   14  C   UNL     1      -8.105  19.826  68.195  1.00  0.00    -0.329 A  
HETATM   15  C   UNL     1      -9.001  18.760  68.284  1.00  0.00    -0.355 A  
ENDBRANCH   7  10
ENDBRANCH   5   6
ENDBRANCH   4   5
ENDBRANCH   3   4
ENDBRANCH   2   3
TORSDOF 5
ENDMDL
MODEL      167
REMARK 921   NORMALIZED FREE ENERGY PREDICTED BY IDOCK:   -3.15 KCAL/MOL
REMARK 922        TOTAL FREE ENERGY PREDICTED BY IDOCK:   -4.50 KCAL/MOL
REMARK 923 INTER-LIGAND FREE ENERGY PREDICTED BY IDOCK:   -4.03 KCAL/MOL
REMARK 924 INTRA-LIGAND FREE ENERGY PREDICTED BY IDOCK:   -0.47 KCAL/MOL
REMARK 927      BINDING AFFINITY PREDICTED BY RF-SCORE:    0.00 PKD
ROOT
HETATM    1  C   UNL     1     -10.226   5.808  67.070  1.00  0.00    -0.258 C  
HETATM    2  C   UNL     1     -10.333   4.685  68.088  1.00  0.00     0.092 C  
ENDROOT
BRANCH   2   3
HETATM    3  C   UNL     1      -9.314   4.838  69.221  1.00  0.00    -0.196 C  
BRANCH   3   4
HETATM    4  C   UNL     1      -9.992   4.632  70.578  1.00  0.00    -0.295 C  
BRANCH   4   5
HETATM    5  C   UNL     1     -10.016   5.886  71.465  1.00  0.00    -0.221 C  
BRANCH   5   6
HETATM    6  C   UNL     1     -10.615   7.114  70.828  1.00  0.00    -0.240 C  
HETATM    7  C   UNL     1      -9.867   8.037  70.191  1.00  0.00    -0.184 C  
HETATM    8  C   UNL     1     -12.090   7.297  70.979  1.00  0.00    -0.324 C  
HETATM    9  O   UNL     1     -12.769   6.598  71.719  1.00  0.00    -0.350 OA 
BRANCH   7  10
HETATM   10  C   UNL     1     -10.401   9.266  69.606  1.00  0.00    -0.227 A  
HETATM   11  C   UNL     1     -11.065  10.197  70.415  1.00  0.00    -0.393 A  
HETATM   12  C   UNL     1     -11.692  11.301  69.837  1.00  0.00    -0.430 A  
HETATM   13  C   UNL     1     -11.655  11.479  68.455  1.00  0.00    -0.375 A  
HETATM   14  C   UNL     1     -10.976  10.567  67.649  1.00  0.00    -0.375 A  
HETATM   15  C   UNL     1     -10.344   9.463  68.223  1.00  0.00    -0.251 A  
ENDBRANCH   7  10
ENDBRANCH   5   6
ENDBRANCH   4   5
ENDBRANCH   3   4
ENDBRANCH   2   3
TORSDOF 5
ENDMDL
MODEL      168
REMARK 921   NORMALIZED FREE ENERGY PREDICTED BY IDOCK:   -3.14 KCAL/MOL
REMARK 922        TOTAL FREE ENERGY PREDICTED BY IDOCK:   -4.49 KCAL/MOL
REMARK 923 INTER-LIGAND FREE ENERGY PREDICTED BY IDOCK:   -4.16 KCAL/MOL
REMARK 924 INTRA-LIGAND FREE ENERGY PREDICTED BY IDOCK:   -0.33 KCAL/MOL
REMARK 927      BINDING AFFINITY PREDICTED BY RF-SCORE:    0.00 PKD
ROOT
HETATM    1  C   UNL     1      -8.820   9.661  62.858  1.00  0.00    -0.252 C  
HETATM    2  C   UNL     1      -8.412  10.142  64.240  1.00  0.00    -0.179 C  
ENDROOT
BRANCH   2   3
HETATM    3  C   UNL     1      -8.925   9.215  65.345  1.00  0.00    -0.255 C  
BRANCH   3   4
HETATM    4  C   UNL     1      -9.202  10.010  66.624  1.00  0.00    -0.178 C  
BRANCH   4   5
HETATM    5  C   UNL     1     -10.643   9.891  67.139  1.00  0.00    -0.295 C  
BRANCH   5   6
HETATM    6  C   UNL     1     -10.779   9.498  68.588  1.00  0.00    -0.218 C  
HETATM    7  C   UNL     1     -10.353   8.310  69.060  1.00  0.00    -0.233 C  
HETATM    8  C   UNL     1     -11.464  10.476  69.486  1.00  0.00    -0.272 C  
HETATM    9  O   UNL     1     -12.045  11.467  69.062  1.00  0.00    -0.363 OA 
BRANCH   7  10
HETATM   10  C   UNL     1     -10.513   7.870  70.445  1.00  0.00    -0.218 A  
HETATM   11  C   UNL     1     -11.591   7.050  70.801  1.00  0.00    -0.381 A  
HETATM   12  C   UNL     1     -11.821   6.744  72.142  1.00  0.00    -0.326 A  
HETATM   13  C   UNL     1     -10.977   7.250  73.128  1.00  0.00    -0.384 A  
HETATM   14  C   UNL     1      -9.889   8.049  72.776  1.00  0.00    -0.351 A  
HETATM   15  C   UNL     1      -9.653   8.355  71.435  1.00  0.00    -0.254 A  
ENDBRANCH   7  10
ENDBRANCH   5   6
ENDBRANCH   4   5
ENDBRANCH   3   4
ENDBRANCH   2   3
TORSDOF 5
ENDMDL
MODEL      169
REMARK 921   NORMALIZED FREE ENERGY PREDICTED BY IDOCK:   -3.11 KCAL/MOL
REMARK 922        TOTAL FREE ENERGY PREDICTED BY IDOCK:   -4.45 KCAL/MOL
REMARK 923 INTER-LIGAND FREE ENERGY PREDICTED BY IDOCK:   -3.75 KCAL/MOL
REMARK 924 INTRA-LIGAND FREE ENERGY PREDICTED BY IDOCK:   -0.70 KCAL/MOL
REMARK 927      BINDING AFFINITY PREDICTED BY RF-SCORE:    0.00 PKD
ROOT
HETATM    1  C   UNL     1      -9.040   8.482  67.236  1.00  0.00    -0.152 C  
HETATM    2  C   UNL     1      -8.300   7.316  66.603  1.00  0.00    -0.121 C  
ENDROOT
BRANCH   2   3
HETATM    3  C   UNL     1      -8.146   6.141  67.572  1.00  0.00    -0.109 C  
BRANCH   3   4
HETATM    4  C   UNL     1      -7.868   6.650  68.989  1.00  0.00    -0.111 C  
BRANCH   4   5
HETATM    5  C   UNL     1      -8.451   5.765  70.100  1.00  0.00    -0.121 C  
BRANCH   5   6
HETATM    6  C   UNL     1      -9.585   6.376  70.883  1.00  0.00    -0.189 C  
HETATM    7  C   UNL     1     -10.631   6.982  70.287  1.00  0.00    -0.247 C  
HETATM    8  C   UNL     1      -9.476   6.326  72.372  1.00  0.00    -0.144 C  
HETATM    9  O   UNL     1      -8.455   5.974  72.947  1.00  0.00    -0.118 OA 
BRANCH   7  10
HETATM   10  C   UNL     1     -11.724   7.632  71.009  1.00  0.00    -0.306 A  
HETATM   11  C   UNL     1     -12.892   6.918  71.306  1.00  0.00    -0.336 A  
HETATM   12  C   UNL     1     -13.986   7.573  71.871  1.00  0.00    -0.391 A  
HETATM   13  C   UNL     1     -13.916   8.938  72.144  1.00  0.00    -0.520 A  
HETATM   14  C   UNL     1     -12.747   9.648  71.871  1.00  0.00    -0.499 A  
HETATM   15  C   UNL     1     -11.650   8.996  71.309  1.00  0.00    -0.387 A  
ENDBRANCH   7  10
ENDBRANCH   5   6
ENDBRANCH   4   5
ENDBRANCH   3   4
ENDBRANCH   2   3
TORSDOF 5
ENDMDL
MODEL      170
REMARK 921   NORMALIZED FREE ENERGY PREDICTED BY IDOCK:   -3.11 KCAL/MOL
REMARK 922        TOTAL FREE ENERGY PREDICTED BY IDOCK:   -4.45 KCAL/MOL
REMARK 923 INTER-LIGAND FREE ENERGY PREDICTED BY IDOCK:   -4.06 KCAL/MOL
REMARK 924 INTRA-LIGAND FREE ENERGY PREDICTED BY IDOCK:   -0.38 KCAL/MOL
REMARK 927      BINDING AFFINITY PREDICTED BY RF-SCORE:    0.00 PKD
ROOT
HETATM    1  C   UNL     1      -5.956   4.262  72.456  1.00  0.00    -0.016 C  
HETATM    2  C   UNL     1      -6.572   2.881  72.308  1.00  0.00    -0.015 C  
ENDROOT
BRANCH   2   3
HETATM    3  C   UNL     1      -8.081   2.948  72.063  1.00  0.00    -0.058 C  
BRANCH   3   4
HETATM    4  C   UNL     1      -8.432   4.183  71.229  1.00  0.00    -0.102 C  
BRANCH   4   5
HETATM    5  C   UNL     1      -9.820   4.125  70.574  1.00  0.00    -0.252 C  
BRANCH   5   6
HETATM    6  C   UNL     1     -10.600   5.415  70.604  1.00  0.00    -0.302 C  
HETATM    7  C   UNL     1     -11.143   5.907  71.736  1.00  0.00    -0.324 C  
HETATM    8  C   UNL     1     -10.795   6.111  69.297  1.00  0.00    -0.351 C  
HETATM    9  O   UNL     1     -10.501   5.598  68.226  1.00  0.00    -0.198 OA 
BRANCH   7  10
HETATM   10  C   UNL     1     -11.950   7.125  71.798  1.00  0.00    -0.348 A  
HETATM   11  C   UNL     1     -13.326   7.069  71.544  1.00  0.00    -0.370 A  
HETATM   12  C   UNL     1     -14.069   8.246  71.469  1.00  0.00    -0.446 A  
HETATM   13  C   UNL     1     -13.444   9.479  71.650  1.00  0.00    -0.463 A  
HETATM   14  C   UNL     1     -12.079   9.538  71.925  1.00  0.00    -0.409 A  
HETATM   15  C   UNL     1     -11.332   8.362  72.004  1.00  0.00    -0.411 A  
ENDBRANCH   7  10
ENDBRANCH   5   6
ENDBRANCH   4   5
ENDBRANCH   3   4
ENDBRANCH   2   3
TORSDOF 5
ENDMDL
MODEL      171
REMARK 921   NORMALIZED FREE ENERGY PREDICTED BY IDOCK:   -3.10 KCAL/MOL
REMARK 922        TOTAL FREE ENERGY PREDICTED BY IDOCK:   -4.43 KCAL/MOL
REMARK 923 INTER-LIGAND FREE ENERGY PREDICTED BY IDOCK:   -4.04 KCAL/MOL
REMARK 924 INTRA-LIGAND FREE ENERGY PREDICTED BY IDOCK:   -0.39 KCAL/MOL
REMARK 927      BINDING AFFINITY PREDICTED BY RF-SCORE:    0.00 PKD
ROOT
HETATM    1  C   UNL     1      -8.869   8.583  66.057  1.00  0.00    -0.208 C  
HETATM    2  C   UNL     1      -9.870   7.702  66.785  1.00  0.00    -0.307 C  
ENDROOT
BRANCH   2   3
HETATM    3  C   UNL     1     -10.756   8.507  67.738  1.00  0.00    -0.170 C  
BRANCH   3   4
HETATM    4  C   UNL     1     -10.381   9.991  67.692  1.00  0.00    -0.272 C  
BRANCH   4   5
HETATM    5  C   UNL     1      -9.880  10.555  69.029  1.00  0.00    -0.224 C  
BRANCH   5   6
HETATM    6  C   UNL     1     -10.152   9.692  70.235  1.00  0.00    -0.331 C  
HETATM    7  C   UNL     1      -9.324   8.701  70.617  1.00  0.00    -0.218 C  
HETATM    8  C   UNL     1     -11.426   9.951  70.971  1.00  0.00    -0.388 C  
HETATM    9  O   UNL     1     -12.297  10.695  70.541  1.00  0.00    -0.306 OA 
BRANCH   7  10
HETATM   10  C   UNL     1      -9.577   7.808  71.748  1.00  0.00    -0.204 A  
HETATM   11  C   UNL     1     -10.513   6.773  71.629  1.00  0.00    -0.231 A  
HETATM   12  C   UNL     1     -10.854   6.010  72.745  1.00  0.00    -0.284 A  
HETATM   13  C   UNL     1     -10.261   6.274  73.979  1.00  0.00    -0.327 A  
HETATM   14  C   UNL     1      -9.312   7.289  74.096  1.00  0.00    -0.262 A  
HETATM   15  C   UNL     1      -8.966   8.053  72.981  1.00  0.00    -0.313 A  
ENDBRANCH   7  10
ENDBRANCH   5   6
ENDBRANCH   4   5
ENDBRANCH   3   4
ENDBRANCH   2   3
TORSDOF 5
ENDMDL
MODEL      172
REMARK 921   NORMALIZED FREE ENERGY PREDICTED BY IDOCK:   -3.09 KCAL/MOL
REMARK 922        TOTAL FREE ENERGY PREDICTED BY IDOCK:   -4.43 KCAL/MOL
REMARK 923 INTER-LIGAND FREE ENERGY PREDICTED BY IDOCK:   -4.09 KCAL/MOL
REMARK 924 INTRA-LIGAND FREE ENERGY PREDICTED BY IDOCK:   -0.34 KCAL/MOL
REMARK 927      BINDING AFFINITY PREDICTED BY RF-SCORE:    0.00 PKD
ROOT
HETATM    1  C   UNL     1     -10.264   5.693  68.164  1.00  0.00    -0.236 C  
HETATM    2  C   UNL     1     -10.948   6.801  67.380  1.00  0.00    -0.407 C  
ENDROOT
BRANCH   2   3
HETATM    3  C   UNL     1      -9.996   7.961  67.077  1.00  0.00    -0.322 C  
BRANCH   3   4
HETATM    4  C   UNL     1     -10.610   9.288  67.532  1.00  0.00    -0.329 C  
BRANCH   4   5
HETATM    5  C   UNL     1      -9.602  10.266  68.153  1.00  0.00    -0.151 C  
BRANCH   5   6
HETATM    6  C   UNL     1      -9.573  11.640  67.534  1.00  0.00    -0.176 C  
HETATM    7  C   UNL     1     -10.648  12.453  67.523  1.00  0.00    -0.240 C  
HETATM    8  C   UNL     1      -8.297  12.053  66.875  1.00  0.00    -0.159 C  
HETATM    9  O   UNL     1      -7.373  11.274  66.682  1.00  0.00    -0.142 OA 
BRANCH   7  10
HETATM   10  C   UNL     1     -10.677  13.770  66.888  1.00  0.00    -0.280 A  
HETATM   11  C   UNL     1     -10.929  13.881  65.515  1.00  0.00    -0.302 A  
HETATM   12  C   UNL     1     -10.822  15.120  64.885  1.00  0.00    -0.437 A  
HETATM   13  C   UNL     1     -10.468  16.249  65.621  1.00  0.00    -0.386 A  
HETATM   14  C   UNL     1     -10.239  16.146  66.993  1.00  0.00    -0.285 A  
HETATM   15  C   UNL     1     -10.348  14.909  67.628  1.00  0.00    -0.242 A  
ENDBRANCH   7  10
ENDBRANCH   5   6
ENDBRANCH   4   5
ENDBRANCH   3   4
ENDBRANCH   2   3
TORSDOF 5
ENDMDL
MODEL      173
REMARK 921   NORMALIZED FREE ENERGY PREDICTED BY IDOCK:   -3.09 KCAL/MOL
REMARK 922        TOTAL FREE ENERGY PREDICTED BY IDOCK:   -4.42 KCAL/MOL
REMARK 923 INTER-LIGAND FREE ENERGY PREDICTED BY IDOCK:   -4.07 KCAL/MOL
REMARK 924 INTRA-LIGAND FREE ENERGY PREDICTED BY IDOCK:   -0.36 KCAL/MOL
REMARK 927      BINDING AFFINITY PREDICTED BY RF-SCORE:    0.00 PKD
ROOT
HETATM    1  C   UNL     1     -10.726  13.586  64.673  1.00  0.00    -0.429 C  
HETATM    2  C   UNL     1     -10.188  12.208  65.021  1.00  0.00    -0.312 C  
ENDROOT
BRANCH   2   3
HETATM    3  C   UNL     1      -9.679  12.138  66.463  1.00  0.00    -0.234 C  
BRANCH   3   4
HETATM    4  C   UNL     1     -10.000  10.772  67.076  1.00  0.00    -0.236 C  
BRANCH   4   5
HETATM    5  C   UNL     1      -8.808  10.100  67.772  1.00  0.00    -0.125 C  
BRANCH   5   6
HETATM    6  C   UNL     1      -9.163   9.181  68.914  1.00  0.00    -0.139 C  
HETATM    7  C   UNL     1      -9.468   9.639  70.144  1.00  0.00    -0.298 C  
HETATM    8  C   UNL     1      -9.112   7.714  68.635  1.00  0.00    -0.135 C  
HETATM    9  O   UNL     1      -8.644   7.255  67.602  1.00  0.00    -0.125 OA 
BRANCH   7  10
HETATM   10  C   UNL     1      -9.767   8.781  71.290  1.00  0.00    -0.335 A  
HETATM   11  C   UNL     1     -11.094   8.454  71.595  1.00  0.00    -0.344 A  
HETATM   12  C   UNL     1     -11.388   7.751  72.763  1.00  0.00    -0.446 A  
HETATM   13  C   UNL     1     -10.362   7.372  73.626  1.00  0.00    -0.367 A  
HETATM   14  C   UNL     1      -9.037   7.676  73.314  1.00  0.00    -0.270 A  
HETATM   15  C   UNL     1      -8.738   8.376  72.145  1.00  0.00    -0.272 A  
ENDBRANCH   7  10
ENDBRANCH   5   6
ENDBRANCH   4   5
ENDBRANCH   3   4
ENDBRANCH   2   3
TORSDOF 5
ENDMDL
MODEL      174
REMARK 921   NORMALIZED FREE ENERGY PREDICTED BY IDOCK:   -3.09 KCAL/MOL
REMARK 922        TOTAL FREE ENERGY PREDICTED BY IDOCK:   -4.42 KCAL/MOL
REMARK 923 INTER-LIGAND FREE ENERGY PREDICTED BY IDOCK:   -3.97 KCAL/MOL
REMARK 924 INTRA-LIGAND FREE ENERGY PREDICTED BY IDOCK:   -0.45 KCAL/MOL
REMARK 927      BINDING AFFINITY PREDICTED BY RF-SCORE:    0.00 PKD
ROOT
HETATM    1  C   UNL     1     -10.175  17.478  68.648  1.00  0.00    -0.373 C  
HETATM    2  C   UNL     1      -9.458  16.827  67.477  1.00  0.00    -0.237 C  
ENDROOT
BRANCH   2   3
HETATM    3  C   UNL     1     -10.368  15.864  66.710  1.00  0.00    -0.298 C  
BRANCH   3   4
HETATM    4  C   UNL     1     -11.435  15.282  67.642  1.00  0.00    -0.287 C  
BRANCH   4   5
HETATM    5  C   UNL     1     -12.050  13.964  67.148  1.00  0.00    -0.422 C  
BRANCH   5   6
HETATM    6  C   UNL     1     -11.186  12.742  67.331  1.00  0.00    -0.337 C  
HETATM    7  C   UNL     1     -10.560  12.137  66.302  1.00  0.00    -0.285 C  
HETATM    8  C   UNL     1     -11.092  12.189  68.715  1.00  0.00    -0.250 C  
HETATM    9  O   UNL     1     -11.802  12.580  69.632  1.00  0.00    -0.309 OA 
BRANCH   7  10
HETATM   10  C   UNL     1      -9.758  10.921  66.429  1.00  0.00    -0.240 A  
HETATM   11  C   UNL     1      -8.363  11.008  66.520  1.00  0.00    -0.163 A  
HETATM   12  C   UNL     1      -7.590   9.847  66.503  1.00  0.00    -0.103 A  
HETATM   13  C   UNL     1      -8.205   8.601  66.398  1.00  0.00    -0.111 A  
HETATM   14  C   UNL     1      -9.594   8.510  66.330  1.00  0.00    -0.306 A  
HETATM   15  C   UNL     1     -10.372   9.668  66.350  1.00  0.00    -0.246 A  
ENDBRANCH   7  10
ENDBRANCH   5   6
ENDBRANCH   4   5
ENDBRANCH   3   4
ENDBRANCH   2   3
TORSDOF 5
ENDMDL
MODEL      175
REMARK 921   NORMALIZED FREE ENERGY PREDICTED BY IDOCK:   -3.08 KCAL/MOL
REMARK 922        TOTAL FREE ENERGY PREDICTED BY IDOCK:   -4.42 KCAL/MOL
REMARK 923 INTER-LIGAND FREE ENERGY PREDICTED BY IDOCK:   -3.66 KCAL/MOL
REMARK 924 INTRA-LIGAND FREE ENERGY PREDICTED BY IDOCK:   -0.76 KCAL/MOL
REMARK 927      BINDING AFFINITY PREDICTED BY RF-SCORE:    0.00 PKD
ROOT
HETATM    1  C   UNL     1     -12.336   6.935  71.525  1.00  0.00    -0.420 C  
HETATM    2  C   UNL     1     -11.635   5.902  72.392  1.00  0.00    -0.341 C  
ENDROOT
BRANCH   2   3
HETATM    3  C   UNL     1     -10.708   6.552  73.422  1.00  0.00    -0.295 C  
BRANCH   3   4
HETATM    4  C   UNL     1     -10.475   8.026  73.077  1.00  0.00    -0.341 C  
BRANCH   4   5
HETATM    5  C   UNL     1      -9.076   8.329  72.523  1.00  0.00    -0.323 C  
BRANCH   5   6
HETATM    6  C   UNL     1      -9.008   8.559  71.035  1.00  0.00    -0.219 C  
HETATM    7  C   UNL     1      -9.504   9.667  70.450  1.00  0.00    -0.280 C  
HETATM    8  C   UNL     1      -8.404   7.466  70.214  1.00  0.00    -0.134 C  
HETATM    9  O   UNL     1      -8.133   6.366  70.677  1.00  0.00    -0.110 OA 
BRANCH   7  10
HETATM   10  C   UNL     1      -9.505   9.904  69.007  1.00  0.00    -0.185 A  
HETATM   11  C   UNL     1     -10.583   9.470  68.225  1.00  0.00    -0.260 A  
HETATM   12  C   UNL     1     -10.523   9.574  66.836  1.00  0.00    -0.279 A  
HETATM   13  C   UNL     1      -9.392  10.112  66.224  1.00  0.00    -0.214 A  
HETATM   14  C   UNL     1      -8.327  10.566  67.001  1.00  0.00    -0.128 A  
HETATM   15  C   UNL     1      -8.384  10.468  68.391  1.00  0.00    -0.126 A  
ENDBRANCH   7  10
ENDBRANCH   5   6
ENDBRANCH   4   5
ENDBRANCH   3   4
ENDBRANCH   2   3
TORSDOF 5
ENDMDL
MODEL      176
REMARK 921   NORMALIZED FREE ENERGY PREDICTED BY IDOCK:   -3.08 KCAL/MOL
REMARK 922        TOTAL FREE ENERGY PREDICTED BY IDOCK:   -4.41 KCAL/MOL
REMARK 923 INTER-LIGAND FREE ENERGY PREDICTED BY IDOCK:   -3.68 KCAL/MOL
REMARK 924 INTRA-LIGAND FREE ENERGY PREDICTED BY IDOCK:   -0.73 KCAL/MOL
REMARK 927      BINDING AFFINITY PREDICTED BY RF-SCORE:    0.00 PKD
ROOT
HETATM    1  C   UNL     1      -7.620  12.884  67.988  1.00  0.00    -0.137 C  
HETATM    2  C   UNL     1      -8.580  14.026  67.697  1.00  0.00    -0.188 C  
ENDROOT
BRANCH   2   3
HETATM    3  C   UNL     1      -9.459  13.740  66.477  1.00  0.00    -0.282 C  
BRANCH   3   4
HETATM    4  C   UNL     1     -10.928  14.026  66.799  1.00  0.00    -0.298 C  
BRANCH   4   5
HETATM    5  C   UNL     1     -11.800  12.768  66.924  1.00  0.00    -0.440 C  
BRANCH   5   6
HETATM    6  C   UNL     1     -11.114  11.565  67.518  1.00  0.00    -0.329 C  
HETATM    7  C   UNL     1     -10.561  10.598  66.758  1.00  0.00    -0.297 C  
HETATM    8  C   UNL     1     -11.115  11.459  69.008  1.00  0.00    -0.243 C  
HETATM    9  O   UNL     1     -11.778  12.199  69.722  1.00  0.00    -0.310 OA 
BRANCH   7  10
HETATM   10  C   UNL     1      -9.933   9.391  67.293  1.00  0.00    -0.252 A  
HETATM   11  C   UNL     1      -8.599   9.423  67.717  1.00  0.00    -0.116 A  
HETATM   12  C   UNL     1      -7.959   8.244  68.097  1.00  0.00    -0.123 A  
HETATM   13  C   UNL     1      -8.649   7.033  68.059  1.00  0.00    -0.124 A  
HETATM   14  C   UNL     1      -9.984   7.000  67.660  1.00  0.00    -0.194 A  
HETATM   15  C   UNL     1     -10.629   8.178  67.281  1.00  0.00    -0.344 A  
ENDBRANCH   7  10
ENDBRANCH   5   6
ENDBRANCH   4   5
ENDBRANCH   3   4
ENDBRANCH   2   3
TORSDOF 5
ENDMDL
MODEL      177
REMARK 921   NORMALIZED FREE ENERGY PREDICTED BY IDOCK:   -3.07 KCAL/MOL
REMARK 922        TOTAL FREE ENERGY PREDICTED BY IDOCK:   -4.40 KCAL/MOL
REMARK 923 INTER-LIGAND FREE ENERGY PREDICTED BY IDOCK:   -4.34 KCAL/MOL
REMARK 924 INTRA-LIGAND FREE ENERGY PREDICTED BY IDOCK:   -0.06 KCAL/MOL
REMARK 927      BINDING AFFINITY PREDICTED BY RF-SCORE:    0.00 PKD
ROOT
HETATM    1  C   UNL     1      -7.516   3.489  71.541  1.00  0.00    -0.047 C  
HETATM    2  C   UNL     1      -8.053   2.901  72.836  1.00  0.00    -0.067 C  
ENDROOT
BRANCH   2   3
HETATM    3  C   UNL     1      -9.197   3.737  73.414  1.00  0.00    -0.112 C  
BRANCH   3   4
HETATM    4  C   UNL     1      -9.437   4.982  72.555  1.00  0.00    -0.164 C  
BRANCH   4   5
HETATM    5  C   UNL     1     -10.900   5.184  72.136  1.00  0.00    -0.218 C  
BRANCH   5   6
HETATM    6  C   UNL     1     -11.219   6.531  71.539  1.00  0.00    -0.322 C  
HETATM    7  C   UNL     1     -11.513   7.607  72.295  1.00  0.00    -0.366 C  
HETATM    8  C   UNL     1     -11.246   6.614  70.047  1.00  0.00    -0.369 C  
HETATM    9  O   UNL     1     -11.189   5.623  69.331  1.00  0.00    -0.228 OA 
BRANCH   7  10
HETATM   10  C   UNL     1     -11.878   8.916  71.754  1.00  0.00    -0.429 A  
HETATM   11  C   UNL     1     -11.008   9.583  70.883  1.00  0.00    -0.407 A  
HETATM   12  C   UNL     1     -11.292  10.887  70.477  1.00  0.00    -0.212 A  
HETATM   13  C   UNL     1     -12.443  11.525  70.935  1.00  0.00    -0.464 A  
HETATM   14  C   UNL     1     -13.324  10.856  71.784  1.00  0.00    -0.413 A  
HETATM   15  C   UNL     1     -13.045   9.551  72.190  1.00  0.00    -0.522 A  
ENDBRANCH   7  10
ENDBRANCH   5   6
ENDBRANCH   4   5
ENDBRANCH   3   4
ENDBRANCH   2   3
TORSDOF 5
ENDMDL
MODEL      178
REMARK 921   NORMALIZED FREE ENERGY PREDICTED BY IDOCK:   -3.04 KCAL/MOL
REMARK 922        TOTAL FREE ENERGY PREDICTED BY IDOCK:   -4.36 KCAL/MOL
REMARK 923 INTER-LIGAND FREE ENERGY PREDICTED BY IDOCK:   -3.95 KCAL/MOL
REMARK 924 INTRA-LIGAND FREE ENERGY PREDICTED BY IDOCK:   -0.42 KCAL/MOL
REMARK 927      BINDING AFFINITY PREDICTED BY RF-SCORE:    0.00 PKD
ROOT
HETATM    1  C   UNL     1      -6.172  10.392  65.283  1.00  0.00    -0.122 C  
HETATM    2  C   UNL     1      -6.063  11.168  66.584  1.00  0.00    -0.133 C  
ENDROOT
BRANCH   2   3
HETATM    3  C   UNL     1      -6.873  10.520  67.710  1.00  0.00    -0.073 C  
BRANCH   3   4
HETATM    4  C   UNL     1      -7.686   9.340  67.171  1.00  0.00    -0.095 C  
BRANCH   4   5
HETATM    5  C   UNL     1      -8.162   8.359  68.251  1.00  0.00    -0.124 C  
BRANCH   5   6
HETATM    6  C   UNL     1      -9.476   8.704  68.903  1.00  0.00    -0.146 C  
HETATM    7  C   UNL     1      -9.552   9.285  70.117  1.00  0.00    -0.254 C  
HETATM    8  C   UNL     1     -10.715   8.325  68.159  1.00  0.00    -0.033 C  
HETATM    9  O   UNL     1     -10.693   7.617  67.160  1.00  0.00    -0.332 OA 
BRANCH   7  10
HETATM   10  C   UNL     1     -10.806   9.589  70.806  1.00  0.00    -0.386 A  
HETATM   11  C   UNL     1     -11.419   8.618  71.608  1.00  0.00    -0.375 A  
HETATM   12  C   UNL     1     -12.679   8.859  72.153  1.00  0.00    -0.470 A  
HETATM   13  C   UNL     1     -13.328  10.067  71.904  1.00  0.00    -0.516 A  
HETATM   14  C   UNL     1     -12.711  11.045  71.125  1.00  0.00    -0.521 A  
HETATM   15  C   UNL     1     -11.449  10.810  70.580  1.00  0.00    -0.367 A  
ENDBRANCH   7  10
ENDBRANCH   5   6
ENDBRANCH   4   5
ENDBRANCH   3   4
ENDBRANCH   2   3
TORSDOF 5
ENDMDL
MODEL      179
REMARK 921   NORMALIZED FREE ENERGY PREDICTED BY IDOCK:   -3.03 KCAL/MOL
REMARK 922        TOTAL FREE ENERGY PREDICTED BY IDOCK:   -4.35 KCAL/MOL
REMARK 923 INTER-LIGAND FREE ENERGY PREDICTED BY IDOCK:   -3.93 KCAL/MOL
REMARK 924 INTRA-LIGAND FREE ENERGY PREDICTED BY IDOCK:   -0.42 KCAL/MOL
REMARK 927      BINDING AFFINITY PREDICTED BY RF-SCORE:    0.00 PKD
ROOT
HETATM    1  C   UNL     1      -6.534   7.649  66.283  1.00  0.00    -0.049 C  
HETATM    2  C   UNL     1      -6.574   8.142  67.720  1.00  0.00    -0.057 C  
ENDROOT
BRANCH   2   3
HETATM    3  C   UNL     1      -7.946   7.925  68.364  1.00  0.00    -0.122 C  
BRANCH   3   4
HETATM    4  C   UNL     1      -8.700   9.253  68.474  1.00  0.00    -0.128 C  
BRANCH   4   5
HETATM    5  C   UNL     1     -10.181   9.170  68.077  1.00  0.00    -0.258 C  
BRANCH   5   6
HETATM    6  C   UNL     1     -10.733  10.392  67.389  1.00  0.00    -0.338 C  
HETATM    7  C   UNL     1     -10.308  10.794  66.175  1.00  0.00    -0.300 C  
HETATM    8  C   UNL     1     -11.752  11.184  68.143  1.00  0.00    -0.232 C  
HETATM    9  O   UNL     1     -12.011  10.973  69.321  1.00  0.00    -0.321 OA 
BRANCH   7  10
HETATM   10  C   UNL     1     -10.779  12.001  65.497  1.00  0.00    -0.318 A  
HETATM   11  C   UNL     1     -10.067  13.201  65.625  1.00  0.00    -0.279 A  
HETATM   12  C   UNL     1     -10.588  14.380  65.093  1.00  0.00    -0.429 A  
HETATM   13  C   UNL     1     -11.815  14.366  64.432  1.00  0.00    -0.433 A  
HETATM   14  C   UNL     1     -12.516  13.169  64.284  1.00  0.00    -0.358 A  
HETATM   15  C   UNL     1     -11.997  11.986  64.811  1.00  0.00    -0.310 A  
ENDBRANCH   7  10
ENDBRANCH   5   6
ENDBRANCH   4   5
ENDBRANCH   3   4
ENDBRANCH   2   3
TORSDOF 5
ENDMDL
MODEL      180
REMARK 921   NORMALIZED FREE ENERGY PREDICTED BY IDOCK:   -3.02 KCAL/MOL
REMARK 922        TOTAL FREE ENERGY PREDICTED BY IDOCK:   -4.34 KCAL/MOL
REMARK 923 INTER-LIGAND FREE ENERGY PREDICTED BY IDOCK:   -4.06 KCAL/MOL
REMARK 924 INTRA-LIGAND FREE ENERGY PREDICTED BY IDOCK:   -0.28 KCAL/MOL
REMARK 927      BINDING AFFINITY PREDICTED BY RF-SCORE:    0.00 PKD
ROOT
HETATM    1  C   UNL     1     -12.583  12.673  64.620  1.00  0.00    -0.517 C  
HETATM    2  C   UNL     1     -11.289  12.736  63.826  1.00  0.00    -0.520 C  
ENDROOT
BRANCH   2   3
HETATM    3  C   UNL     1     -10.560  11.390  63.808  1.00  0.00    -0.464 C  
BRANCH   3   4
HETATM    4  C   UNL     1     -10.601  10.742  65.195  1.00  0.00    -0.239 C  
BRANCH   4   5
HETATM    5  C   UNL     1      -9.344   9.934  65.548  1.00  0.00    -0.280 C  
BRANCH   5   6
HETATM    6  C   UNL     1      -9.405   9.188  66.858  1.00  0.00    -0.199 C  
HETATM    7  C   UNL     1      -9.690   7.873  66.929  1.00  0.00    -0.285 C  
HETATM    8  C   UNL     1      -9.182   9.991  68.098  1.00  0.00    -0.128 C  
HETATM    9  O   UNL     1      -9.126  11.214  68.091  1.00  0.00    -0.147 OA 
BRANCH   7  10
HETATM   10  C   UNL     1      -9.810   7.125  68.180  1.00  0.00    -0.157 A  
HETATM   11  C   UNL     1      -8.715   6.404  68.673  1.00  0.00    -0.122 A  
HETATM   12  C   UNL     1      -8.868   5.582  69.790  1.00  0.00    -0.129 A  
HETATM   13  C   UNL     1     -10.109   5.481  70.418  1.00  0.00    -0.297 A  
HETATM   14  C   UNL     1     -11.195   6.216  69.943  1.00  0.00    -0.484 A  
HETATM   15  C   UNL     1     -11.046   7.042  68.828  1.00  0.00    -0.092 A  
ENDBRANCH   7  10
ENDBRANCH   5   6
ENDBRANCH   4   5
ENDBRANCH   3   4
ENDBRANCH   2   3
TORSDOF 5
ENDMDL
MODEL      181
REMARK 921   NORMALIZED FREE ENERGY PREDICTED BY IDOCK:   -3.02 KCAL/MOL
REMARK 922        TOTAL FREE ENERGY PREDICTED BY IDOCK:   -4.33 KCAL/MOL
REMARK 923 INTER-LIGAND FREE ENERGY PREDICTED BY IDOCK:   -3.71 KCAL/MOL
REMARK 924 INTRA-LIGAND FREE ENERGY PREDICTED BY IDOCK:   -0.62 KCAL/MOL
REMARK 927      BINDING AFFINITY PREDICTED BY RF-SCORE:    0.00 PKD
ROOT
HETATM    1  C   UNL     1     -12.569  13.619  65.424  1.00  0.00    -0.533 C  
HETATM    2  C   UNL     1     -11.593  14.472  66.218  1.00  0.00    -0.364 C  
ENDROOT
BRANCH   2   3
HETATM    3  C   UNL     1     -11.814  14.343  67.727  1.00  0.00    -0.402 C  
BRANCH   3   4
HETATM    4  C   UNL     1     -10.554  13.797  68.406  1.00  0.00    -0.261 C  
BRANCH   4   5
HETATM    5  C   UNL     1      -9.537  13.176  67.437  1.00  0.00    -0.219 C  
BRANCH   5   6
HETATM    6  C   UNL     1      -9.334  11.690  67.583  1.00  0.00    -0.178 C  
HETATM    7  C   UNL     1     -10.328  10.855  67.946  1.00  0.00    -0.216 C  
HETATM    8  C   UNL     1      -7.950  11.176  67.354  1.00  0.00    -0.125 C  
HETATM    9  O   UNL     1      -6.984  11.917  67.227  1.00  0.00    -0.122 OA 
BRANCH   7  10
HETATM   10  C   UNL     1     -10.160   9.416  68.149  1.00  0.00    -0.215 A  
HETATM   11  C   UNL     1      -9.808   8.922  69.411  1.00  0.00    -0.183 A  
HETATM   12  C   UNL     1      -9.515   7.568  69.573  1.00  0.00    -0.156 A  
HETATM   13  C   UNL     1      -9.576   6.706  68.479  1.00  0.00    -0.125 A  
HETATM   14  C   UNL     1      -9.948   7.190  67.226  1.00  0.00    -0.243 A  
HETATM   15  C   UNL     1     -10.245   8.543  67.060  1.00  0.00    -0.371 A  
ENDBRANCH   7  10
ENDBRANCH   5   6
ENDBRANCH   4   5
ENDBRANCH   3   4
ENDBRANCH   2   3
TORSDOF 5
ENDMDL
MODEL      182
REMARK 921   NORMALIZED FREE ENERGY PREDICTED BY IDOCK:   -3.01 KCAL/MOL
REMARK 922        TOTAL FREE ENERGY PREDICTED BY IDOCK:   -4.32 KCAL/MOL
REMARK 923 INTER-LIGAND FREE ENERGY PREDICTED BY IDOCK:   -3.79 KCAL/MOL
REMARK 924 INTRA-LIGAND FREE ENERGY PREDICTED BY IDOCK:   -0.54 KCAL/MOL
REMARK 927      BINDING AFFINITY PREDICTED BY RF-SCORE:    0.00 PKD
ROOT
HETATM    1  C   UNL     1      -7.566   9.043  67.742  1.00  0.00    -0.093 C  
HETATM    2  C   UNL     1      -8.359  10.117  68.467  1.00  0.00    -0.116 C  
ENDROOT
BRANCH   2   3
HETATM    3  C   UNL     1      -9.825  10.145  68.025  1.00  0.00    -0.169 C  
BRANCH   3   4
HETATM    4  C   UNL     1     -10.706   9.429  69.053  1.00  0.00    -0.209 C  
BRANCH   4   5
HETATM    5  C   UNL     1     -10.151   9.455  70.484  1.00  0.00    -0.335 C  
BRANCH   5   6
HETATM    6  C   UNL     1     -10.015   8.108  71.147  1.00  0.00    -0.218 C  
HETATM    7  C   UNL     1     -10.819   7.069  70.847  1.00  0.00    -0.268 C  
HETATM    8  C   UNL     1      -8.966   7.983  72.204  1.00  0.00    -0.164 C  
HETATM    9  O   UNL     1      -8.359   8.949  72.648  1.00  0.00    -0.392 OA 
BRANCH   7  10
HETATM   10  C   UNL     1     -10.754   5.764  71.503  1.00  0.00    -0.319 A  
HETATM   11  C   UNL     1     -11.388   5.566  72.736  1.00  0.00    -0.359 A  
HETATM   12  C   UNL     1     -11.212   4.366  73.426  1.00  0.00    -0.386 A  
HETATM   13  C   UNL     1     -10.409   3.363  72.887  1.00  0.00    -0.248 A  
HETATM   14  C   UNL     1      -9.795   3.547  71.648  1.00  0.00    -0.227 A  
HETATM   15  C   UNL     1      -9.970   4.745  70.954  1.00  0.00    -0.283 A  
ENDBRANCH   7  10
ENDBRANCH   5   6
ENDBRANCH   4   5
ENDBRANCH   3   4
ENDBRANCH   2   3
TORSDOF 5
ENDMDL
MODEL      183
REMARK 921   NORMALIZED FREE ENERGY PREDICTED BY IDOCK:   -3.00 KCAL/MOL
REMARK 922        TOTAL FREE ENERGY PREDICTED BY IDOCK:   -4.30 KCAL/MOL
REMARK 923 INTER-LIGAND FREE ENERGY PREDICTED BY IDOCK:   -3.68 KCAL/MOL
REMARK 924 INTRA-LIGAND FREE ENERGY PREDICTED BY IDOCK:   -0.63 KCAL/MOL
REMARK 927      BINDING AFFINITY PREDICTED BY RF-SCORE:    0.00 PKD
ROOT
HETATM    1  C   UNL     1      -9.154  14.651  66.987  1.00  0.00    -0.254 C  
HETATM    2  C   UNL     1     -10.515  15.271  67.258  1.00  0.00    -0.275 C  
ENDROOT
BRANCH   2   3
HETATM    3  C   UNL     1     -11.651  14.457  66.634  1.00  0.00    -0.396 C  
BRANCH   3   4
HETATM    4  C   UNL     1     -11.553  12.990  67.060  1.00  0.00    -0.413 C  
BRANCH   4   5
HETATM    5  C   UNL     1     -11.835  11.987  65.933  1.00  0.00    -0.232 C  
BRANCH   5   6
HETATM    6  C   UNL     1     -10.624  11.276  65.385  1.00  0.00    -0.312 C  
HETATM    7  C   UNL     1      -9.797  10.551  66.163  1.00  0.00    -0.271 C  
HETATM    8  C   UNL     1     -10.344  11.452  63.928  1.00  0.00    -0.379 C  
HETATM    9  O   UNL     1     -10.946  12.261  63.234  1.00  0.00    -0.432 OA 
BRANCH   7  10
HETATM   10  C   UNL     1      -8.584   9.890  65.682  1.00  0.00    -0.157 A  
HETATM   11  C   UNL     1      -7.383  10.605  65.593  1.00  0.00    -0.087 A  
HETATM   12  C   UNL     1      -6.263  10.016  65.007  1.00  0.00    -0.115 A  
HETATM   13  C   UNL     1      -6.337   8.714  64.513  1.00  0.00    -0.066 A  
HETATM   14  C   UNL     1      -7.525   7.991  64.621  1.00  0.00    -0.097 A  
HETATM   15  C   UNL     1      -8.646   8.576  65.209  1.00  0.00    -0.192 A  
ENDBRANCH   7  10
ENDBRANCH   5   6
ENDBRANCH   4   5
ENDBRANCH   3   4
ENDBRANCH   2   3
TORSDOF 5
ENDMDL
MODEL      184
REMARK 921   NORMALIZED FREE ENERGY PREDICTED BY IDOCK:   -2.99 KCAL/MOL
REMARK 922        TOTAL FREE ENERGY PREDICTED BY IDOCK:   -4.30 KCAL/MOL
REMARK 923 INTER-LIGAND FREE ENERGY PREDICTED BY IDOCK:   -3.90 KCAL/MOL
REMARK 924 INTRA-LIGAND FREE ENERGY PREDICTED BY IDOCK:   -0.40 KCAL/MOL
REMARK 927      BINDING AFFINITY PREDICTED BY RF-SCORE:    0.00 PKD
ROOT
HETATM    1  C   UNL     1      -9.810  17.360  66.203  1.00  0.00    -0.260 C  
HETATM    2  C   UNL     1      -9.383  15.921  65.964  1.00  0.00    -0.385 C  
ENDROOT
BRANCH   2   3
HETATM    3  C   UNL     1     -10.499  15.089  65.328  1.00  0.00    -0.428 C  
BRANCH   3   4
HETATM    4  C   UNL     1     -10.164  13.597  65.405  1.00  0.00    -0.330 C  
BRANCH   4   5
HETATM    5  C   UNL     1      -9.317  13.206  66.625  1.00  0.00    -0.242 C  
BRANCH   5   6
HETATM    6  C   UNL     1      -9.104  11.725  66.813  1.00  0.00    -0.194 C  
HETATM    7  C   UNL     1      -9.809  10.800  66.132  1.00  0.00    -0.269 C  
HETATM    8  C   UNL     1      -8.098  11.318  67.840  1.00  0.00    -0.121 C  
HETATM    9  O   UNL     1      -7.591  12.114  68.619  1.00  0.00    -0.117 OA 
BRANCH   7  10
HETATM   10  C   UNL     1      -9.670   9.357  66.323  1.00  0.00    -0.330 A  
HETATM   11  C   UNL     1      -8.641   8.660  65.676  1.00  0.00    -0.191 A  
HETATM   12  C   UNL     1      -8.591   7.268  65.748  1.00  0.00    -0.143 A  
HETATM   13  C   UNL     1      -9.561   6.570  66.465  1.00  0.00    -0.184 A  
HETATM   14  C   UNL     1     -10.573   7.263  67.129  1.00  0.00    -0.416 A  
HETATM   15  C   UNL     1     -10.626   8.655  67.063  1.00  0.00    -0.293 A  
ENDBRANCH   7  10
ENDBRANCH   5   6
ENDBRANCH   4   5
ENDBRANCH   3   4
ENDBRANCH   2   3
TORSDOF 5
ENDMDL
MODEL      185
REMARK 921   NORMALIZED FREE ENERGY PREDICTED BY IDOCK:   -2.99 KCAL/MOL
REMARK 922        TOTAL FREE ENERGY PREDICTED BY IDOCK:   -4.30 KCAL/MOL
REMARK 923 INTER-LIGAND FREE ENERGY PREDICTED BY IDOCK:   -3.54 KCAL/MOL
REMARK 924 INTRA-LIGAND FREE ENERGY PREDICTED BY IDOCK:   -0.76 KCAL/MOL
REMARK 927      BINDING AFFINITY PREDICTED BY RF-SCORE:    0.00 PKD
ROOT
HETATM    1  C   UNL     1      -6.892   9.903  69.011  1.00  0.00    -0.054 C  
HETATM    2  C   UNL     1      -6.693   8.779  68.008  1.00  0.00    -0.069 C  
ENDROOT
BRANCH   2   3
HETATM    3  C   UNL     1      -8.003   8.050  67.697  1.00  0.00    -0.123 C  
BRANCH   3   4
HETATM    4  C   UNL     1      -8.519   8.448  66.312  1.00  0.00    -0.132 C  
BRANCH   4   5
HETATM    5  C   UNL     1      -9.980   8.920  66.297  1.00  0.00    -0.337 C  
BRANCH   5   6
HETATM    6  C   UNL     1     -10.180  10.401  66.491  1.00  0.00    -0.289 C  
HETATM    7  C   UNL     1     -10.238  10.971  67.711  1.00  0.00    -0.210 C  
HETATM    8  C   UNL     1     -10.367  11.220  65.256  1.00  0.00    -0.280 C  
HETATM    9  O   UNL     1     -10.528  10.720  64.150  1.00  0.00    -0.364 OA 
BRANCH   7  10
HETATM   10  C   UNL     1     -10.483  12.394  67.944  1.00  0.00    -0.227 A  
HETATM   11  C   UNL     1      -9.408  13.290  68.000  1.00  0.00    -0.218 A  
HETATM   12  C   UNL     1      -9.629  14.620  68.357  1.00  0.00    -0.217 A  
HETATM   13  C   UNL     1     -10.918  15.059  68.653  1.00  0.00    -0.261 A  
HETATM   14  C   UNL     1     -11.993  14.174  68.576  1.00  0.00    -0.367 A  
HETATM   15  C   UNL     1     -11.778  12.844  68.216  1.00  0.00    -0.390 A  
ENDBRANCH   7  10
ENDBRANCH   5   6
ENDBRANCH   4   5
ENDBRANCH   3   4
ENDBRANCH   2   3
TORSDOF 5
ENDMDL
MODEL      186
REMARK 921   NORMALIZED FREE ENERGY PREDICTED BY IDOCK:   -2.99 KCAL/MOL
REMARK 922        TOTAL FREE ENERGY PREDICTED BY IDOCK:   -4.30 KCAL/MOL
REMARK 923 INTER-LIGAND FREE ENERGY PREDICTED BY IDOCK:   -3.92 KCAL/MOL
REMARK 924 INTRA-LIGAND FREE ENERGY PREDICTED BY IDOCK:   -0.38 KCAL/MOL
REMARK 927      BINDING AFFINITY PREDICTED BY RF-SCORE:    0.00 PKD
ROOT
HETATM    1  C   UNL     1      -5.386  16.809  69.280  1.00  0.00    -0.138 C  
HETATM    2  C   UNL     1      -5.612  17.981  68.340  1.00  0.00    -0.165 C  
ENDROOT
BRANCH   2   3
HETATM    3  C   UNL     1      -7.099  18.300  68.167  1.00  0.00    -0.240 C  
BRANCH   3   4
HETATM    4  C   UNL     1      -7.957  17.129  68.653  1.00  0.00    -0.265 C  
BRANCH   4   5
HETATM    5  C   UNL     1      -9.365  17.085  68.044  1.00  0.00    -0.245 C  
BRANCH   5   6
HETATM    6  C   UNL     1      -9.883  15.707  67.717  1.00  0.00    -0.220 C  
HETATM    7  C   UNL     1      -9.668  14.645  68.517  1.00  0.00    -0.225 C  
HETATM    8  C   UNL     1     -10.612  15.554  66.422  1.00  0.00    -0.311 C  
HETATM    9  O   UNL     1     -10.648  16.439  65.577  1.00  0.00    -0.398 OA 
BRANCH   7  10
HETATM   10  C   UNL     1     -10.108  13.283  68.212  1.00  0.00    -0.250 A  
HETATM   11  C   UNL     1      -9.385  12.500  67.304  1.00  0.00    -0.190 A  
HETATM   12  C   UNL     1      -9.878  11.257  66.909  1.00  0.00    -0.220 A  
HETATM   13  C   UNL     1     -11.088  10.791  67.421  1.00  0.00    -0.363 A  
HETATM   14  C   UNL     1     -11.799  11.558  68.343  1.00  0.00    -0.353 A  
HETATM   15  C   UNL     1     -11.308  12.801  68.743  1.00  0.00    -0.332 A  
ENDBRANCH   7  10
ENDBRANCH   5   6
ENDBRANCH   4   5
ENDBRANCH   3   4
ENDBRANCH   2   3
TORSDOF 5
ENDMDL
MODEL      187
REMARK 921   NORMALIZED FREE ENERGY PREDICTED BY IDOCK:   -2.99 KCAL/MOL
REMARK 922        TOTAL FREE ENERGY PREDICTED BY IDOCK:   -4.30 KCAL/MOL
REMARK 923 INTER-LIGAND FREE ENERGY PREDICTED BY IDOCK:   -3.90 KCAL/MOL
REMARK 924 INTRA-LIGAND FREE ENERGY PREDICTED BY IDOCK:   -0.39 KCAL/MOL
REMARK 927      BINDING AFFINITY PREDICTED BY RF-SCORE:    0.00 PKD
ROOT
HETATM    1  C   UNL     1      -8.870  19.390  68.854  1.00  0.00    -0.331 C  
HETATM    2  C   UNL     1      -9.095  19.445  67.352  1.00  0.00    -0.359 C  
ENDROOT
BRANCH   2   3
HETATM    3  C   UNL     1      -8.032  18.658  66.582  1.00  0.00    -0.280 C  
BRANCH   3   4
HETATM    4  C   UNL     1      -8.516  17.229  66.315  1.00  0.00    -0.278 C  
BRANCH   4   5
HETATM    5  C   UNL     1      -7.733  16.149  67.074  1.00  0.00    -0.256 C  
BRANCH   5   6
HETATM    6  C   UNL     1      -8.577  15.115  67.776  1.00  0.00    -0.157 C  
HETATM    7  C   UNL     1      -9.615  14.499  67.176  1.00  0.00    -0.233 C  
HETATM    8  C   UNL     1      -8.243  14.834  69.205  1.00  0.00    -0.106 C  
HETATM    9  O   UNL     1      -7.450  15.513  69.843  1.00  0.00    -0.142 OA 
BRANCH   7  10
HETATM   10  C   UNL     1     -10.490  13.531  67.837  1.00  0.00    -0.253 A  
HETATM   11  C   UNL     1     -11.415  13.962  68.796  1.00  0.00    -0.327 A  
HETATM   12  C   UNL     1     -12.151  13.027  69.523  1.00  0.00    -0.289 A  
HETATM   13  C   UNL     1     -11.970  11.665  69.293  1.00  0.00    -0.382 A  
HETATM   14  C   UNL     1     -11.066  11.233  68.323  1.00  0.00    -0.297 A  
HETATM   15  C   UNL     1     -10.330  12.164  67.591  1.00  0.00    -0.215 A  
ENDBRANCH   7  10
ENDBRANCH   5   6
ENDBRANCH   4   5
ENDBRANCH   3   4
ENDBRANCH   2   3
TORSDOF 5
ENDMDL
MODEL      188
REMARK 921   NORMALIZED FREE ENERGY PREDICTED BY IDOCK:   -2.99 KCAL/MOL
REMARK 922        TOTAL FREE ENERGY PREDICTED BY IDOCK:   -4.29 KCAL/MOL
REMARK 923 INTER-LIGAND FREE ENERGY PREDICTED BY IDOCK:   -3.87 KCAL/MOL
REMARK 924 INTRA-LIGAND FREE ENERGY PREDICTED BY IDOCK:   -0.42 KCAL/MOL
REMARK 927      BINDING AFFINITY PREDICTED BY RF-SCORE:    0.00 PKD
ROOT
HETATM    1  C   UNL     1      -6.479   9.715  64.902  1.00  0.00    -0.092 C  
HETATM    2  C   UNL     1      -7.747   8.879  64.832  1.00  0.00    -0.112 C  
ENDROOT
BRANCH   2   3
HETATM    3  C   UNL     1      -8.802   9.352  65.834  1.00  0.00    -0.193 C  
BRANCH   3   4
HETATM    4  C   UNL     1      -8.617   8.642  67.179  1.00  0.00    -0.123 C  
BRANCH   4   5
HETATM    5  C   UNL     1      -8.327   9.587  68.353  1.00  0.00    -0.118 C  
BRANCH   5   6
HETATM    6  C   UNL     1      -9.258   9.454  69.532  1.00  0.00    -0.182 C  
HETATM    7  C   UNL     1     -10.598   9.422  69.396  1.00  0.00    -0.235 C  
HETATM    8  C   UNL     1      -8.625   9.411  70.885  1.00  0.00    -0.073 C  
HETATM    9  O   UNL     1      -7.437   9.643  71.065  1.00  0.00    -0.327 OA 
BRANCH   7  10
HETATM   10  C   UNL     1     -11.536   9.347  70.515  1.00  0.00    -0.291 A  
HETATM   11  C   UNL     1     -11.861   8.106  71.076  1.00  0.00    -0.279 A  
HETATM   12  C   UNL     1     -12.857   8.020  72.050  1.00  0.00    -0.313 A  
HETATM   13  C   UNL     1     -13.526   9.170  72.467  1.00  0.00    -0.490 A  
HETATM   14  C   UNL     1     -13.188  10.411  71.927  1.00  0.00    -0.535 A  
HETATM   15  C   UNL     1     -12.192  10.501  70.955  1.00  0.00    -0.505 A  
ENDBRANCH   7  10
ENDBRANCH   5   6
ENDBRANCH   4   5
ENDBRANCH   3   4
ENDBRANCH   2   3
TORSDOF 5
ENDMDL
MODEL      189
REMARK 921   NORMALIZED FREE ENERGY PREDICTED BY IDOCK:   -2.97 KCAL/MOL
REMARK 922        TOTAL FREE ENERGY PREDICTED BY IDOCK:   -4.27 KCAL/MOL
REMARK 923 INTER-LIGAND FREE ENERGY PREDICTED BY IDOCK:   -3.58 KCAL/MOL
REMARK 924 INTRA-LIGAND FREE ENERGY PREDICTED BY IDOCK:   -0.70 KCAL/MOL
REMARK 927      BINDING AFFINITY PREDICTED BY RF-SCORE:    0.00 PKD
ROOT
HETATM    1  C   UNL     1      -8.421   5.961  72.523  1.00  0.00    -0.116 C  
HETATM    2  C   UNL     1      -9.265   4.917  73.235  1.00  0.00    -0.122 C  
ENDROOT
BRANCH   2   3
HETATM    3  C   UNL     1     -10.752   5.055  72.901  1.00  0.00    -0.299 C  
BRANCH   3   4
HETATM    4  C   UNL     1     -11.153   6.532  72.852  1.00  0.00    -0.257 C  
BRANCH   4   5
HETATM    5  C   UNL     1     -12.001   6.913  71.630  1.00  0.00    -0.379 C  
BRANCH   5   6
HETATM    6  C   UNL     1     -11.279   7.698  70.565  1.00  0.00    -0.275 C  
HETATM    7  C   UNL     1     -10.604   7.106  69.561  1.00  0.00    -0.247 C  
HETATM    8  C   UNL     1     -11.301   9.186  70.698  1.00  0.00    -0.273 C  
HETATM    9  O   UNL     1     -11.722   9.753  71.697  1.00  0.00    -0.385 OA 
BRANCH   7  10
HETATM   10  C   UNL     1      -9.848   7.829  68.538  1.00  0.00    -0.181 A  
HETATM   11  C   UNL     1      -8.492   8.114  68.739  1.00  0.00    -0.126 A  
HETATM   12  C   UNL     1      -7.807   8.920  67.830  1.00  0.00    -0.102 A  
HETATM   13  C   UNL     1      -8.471   9.439  66.720  1.00  0.00    -0.129 A  
HETATM   14  C   UNL     1      -9.815   9.139  66.505  1.00  0.00    -0.333 A  
HETATM   15  C   UNL     1     -10.503   8.330  67.410  1.00  0.00    -0.353 A  
ENDBRANCH   7  10
ENDBRANCH   5   6
ENDBRANCH   4   5
ENDBRANCH   3   4
ENDBRANCH   2   3
TORSDOF 5
ENDMDL
MODEL      190
REMARK 921   NORMALIZED FREE ENERGY PREDICTED BY IDOCK:   -2.97 KCAL/MOL
REMARK 922        TOTAL FREE ENERGY PREDICTED BY IDOCK:   -4.27 KCAL/MOL
REMARK 923 INTER-LIGAND FREE ENERGY PREDICTED BY IDOCK:   -3.90 KCAL/MOL
REMARK 924 INTRA-LIGAND FREE ENERGY PREDICTED BY IDOCK:   -0.37 KCAL/MOL
REMARK 927      BINDING AFFINITY PREDICTED BY RF-SCORE:    0.00 PKD
ROOT
HETATM    1  C   UNL     1     -10.528  11.747  65.251  1.00  0.00    -0.320 C  
HETATM    2  C   UNL     1      -9.556  11.612  66.411  1.00  0.00    -0.236 C  
ENDROOT
BRANCH   2   3
HETATM    3  C   UNL     1     -10.006  12.416  67.633  1.00  0.00    -0.200 C  
BRANCH   3   4
HETATM    4  C   UNL     1      -8.931  13.432  68.030  1.00  0.00    -0.190 C  
BRANCH   4   5
HETATM    5  C   UNL     1      -9.434  14.553  68.951  1.00  0.00    -0.144 C  
BRANCH   5   6
HETATM    6  C   UNL     1      -9.256  15.952  68.419  1.00  0.00    -0.197 C  
HETATM    7  C   UNL     1      -8.042  16.479  68.161  1.00  0.00    -0.172 C  
HETATM    8  C   UNL     1     -10.497  16.763  68.234  1.00  0.00    -0.341 C  
HETATM    9  O   UNL     1     -11.590  16.400  68.647  1.00  0.00    -0.311 OA 
BRANCH   7  10
HETATM   10  C   UNL     1      -7.823  17.848  67.695  1.00  0.00    -0.219 A  
HETATM   11  C   UNL     1      -7.640  18.104  66.331  1.00  0.00    -0.291 A  
HETATM   12  C   UNL     1      -7.296  19.385  65.902  1.00  0.00    -0.306 A  
HETATM   13  C   UNL     1      -7.137  20.413  66.830  1.00  0.00    -0.319 A  
HETATM   14  C   UNL     1      -7.341  20.167  68.187  1.00  0.00    -0.279 A  
HETATM   15  C   UNL     1      -7.688  18.888  68.621  1.00  0.00    -0.375 A  
ENDBRANCH   7  10
ENDBRANCH   5   6
ENDBRANCH   4   5
ENDBRANCH   3   4
ENDBRANCH   2   3
TORSDOF 5
ENDMDL
MODEL      191
REMARK 921   NORMALIZED FREE ENERGY PREDICTED BY IDOCK:   -2.96 KCAL/MOL
REMARK 922        TOTAL FREE ENERGY PREDICTED BY IDOCK:   -4.26 KCAL/MOL
REMARK 923 INTER-LIGAND FREE ENERGY PREDICTED BY IDOCK:   -3.87 KCAL/MOL
REMARK 924 INTRA-LIGAND FREE ENERGY PREDICTED BY IDOCK:   -0.39 KCAL/MOL
REMARK 927      BINDING AFFINITY PREDICTED BY RF-SCORE:    0.00 PKD
ROOT
HETATM    1  C   UNL     1     -10.431  13.061  65.166  1.00  0.00    -0.335 C  
HETATM    2  C   UNL     1     -10.365  11.546  65.066  1.00  0.00    -0.333 C  
ENDROOT
BRANCH   2   3
HETATM    3  C   UNL     1     -10.088  10.893  66.423  1.00  0.00    -0.280 C  
BRANCH   3   4
HETATM    4  C   UNL     1     -10.911   9.611  66.576  1.00  0.00     0.074 C  
BRANCH   4   5
HETATM    5  C   UNL     1     -10.068   8.347  66.798  1.00  0.00    -0.373 C  
BRANCH   5   6
HETATM    6  C   UNL     1     -10.482   7.495  67.971  1.00  0.00    -0.253 C  
HETATM    7  C   UNL     1     -10.471   7.953  69.238  1.00  0.00    -0.221 C  
HETATM    8  C   UNL     1     -10.862   6.081  67.673  1.00  0.00    -0.295 C  
HETATM    9  O   UNL     1     -10.689   5.569  66.575  1.00  0.00    -0.296 OA 
BRANCH   7  10
HETATM   10  C   UNL     1     -10.814   7.145  70.408  1.00  0.00    -0.269 A  
HETATM   11  C   UNL     1     -12.128   7.134  70.893  1.00  0.00    -0.368 A  
HETATM   12  C   UNL     1     -12.426   6.474  72.085  1.00  0.00    -0.205 A  
HETATM   13  C   UNL     1     -11.417   5.822  72.792  1.00  0.00    -0.304 A  
HETATM   14  C   UNL     1     -10.112   5.811  72.301  1.00  0.00    -0.216 A  
HETATM   15  C   UNL     1      -9.811   6.467  71.107  1.00  0.00    -0.198 A  
ENDBRANCH   7  10
ENDBRANCH   5   6
ENDBRANCH   4   5
ENDBRANCH   3   4
ENDBRANCH   2   3
TORSDOF 5
ENDMDL
MODEL      192
REMARK 921   NORMALIZED FREE ENERGY PREDICTED BY IDOCK:   -2.96 KCAL/MOL
REMARK 922        TOTAL FREE ENERGY PREDICTED BY IDOCK:   -4.26 KCAL/MOL
REMARK 923 INTER-LIGAND FREE ENERGY PREDICTED BY IDOCK:   -3.86 KCAL/MOL
REMARK 924 INTRA-LIGAND FREE ENERGY PREDICTED BY IDOCK:   -0.39 KCAL/MOL
REMARK 927      BINDING AFFINITY PREDICTED BY RF-SCORE:    0.00 PKD
ROOT
HETATM    1  C   UNL     1     -13.287  13.385  71.501  1.00  0.00    -0.345 C  
HETATM    2  C   UNL     1     -12.559  13.755  70.220  1.00  0.00    -0.288 C  
ENDROOT
BRANCH   2   3
HETATM    3  C   UNL     1     -11.229  13.009  70.079  1.00  0.00     0.202 C  
BRANCH   3   4
HETATM    4  C   UNL     1     -11.335  11.926  69.003  1.00  0.00    -0.337 C  
BRANCH   4   5
HETATM    5  C   UNL     1     -12.160  10.701  69.423  1.00  0.00    -0.250 C  
BRANCH   5   6
HETATM    6  C   UNL     1     -11.378   9.594  70.084  1.00  0.00    -0.275 C  
HETATM    7  C   UNL     1     -11.348   9.428  71.421  1.00  0.00    -0.451 C  
HETATM    8  C   UNL     1     -10.582   8.705  69.185  1.00  0.00    -0.178 C  
HETATM    9  O   UNL     1     -10.418   8.946  67.996  1.00  0.00    -0.220 OA 
BRANCH   7  10
HETATM   10  C   UNL     1     -10.562   8.401  72.104  1.00  0.00    -0.400 A  
HETATM   11  C   UNL     1     -11.201   7.298  72.684  1.00  0.00    -0.355 A  
HETATM   12  C   UNL     1     -10.469   6.392  73.451  1.00  0.00    -0.283 A  
HETATM   13  C   UNL     1      -9.101   6.582  73.639  1.00  0.00    -0.146 A  
HETATM   14  C   UNL     1      -8.457   7.667  73.044  1.00  0.00    -0.191 A  
HETATM   15  C   UNL     1      -9.185   8.574  72.273  1.00  0.00    -0.343 A  
ENDBRANCH   7  10
ENDBRANCH   5   6
ENDBRANCH   4   5
ENDBRANCH   3   4
ENDBRANCH   2   3
TORSDOF 5
ENDMDL
MODEL      193
REMARK 921   NORMALIZED FREE ENERGY PREDICTED BY IDOCK:   -2.95 KCAL/MOL
REMARK 922        TOTAL FREE ENERGY PREDICTED BY IDOCK:   -4.25 KCAL/MOL
REMARK 923 INTER-LIGAND FREE ENERGY PREDICTED BY IDOCK:   -3.61 KCAL/MOL
REMARK 924 INTRA-LIGAND FREE ENERGY PREDICTED BY IDOCK:   -0.64 KCAL/MOL
REMARK 927      BINDING AFFINITY PREDICTED BY RF-SCORE:    0.00 PKD
ROOT
HETATM    1  C   UNL     1      -8.211  13.870  68.415  1.00  0.00    -0.153 C  
HETATM    2  C   UNL     1      -9.264  14.948  68.610  1.00  0.00    -0.193 C  
ENDROOT
BRANCH   2   3
HETATM    3  C   UNL     1     -10.596  14.574  67.955  1.00  0.00    -0.237 C  
BRANCH   3   4
HETATM    4  C   UNL     1     -11.385  13.621  68.858  1.00  0.00    -0.332 C  
BRANCH   4   5
HETATM    5  C   UNL     1     -11.874  12.348  68.154  1.00  0.00    -0.372 C  
BRANCH   5   6
HETATM    6  C   UNL     1     -11.112  11.092  68.492  1.00  0.00    -0.297 C  
HETATM    7  C   UNL     1     -11.183  10.506  69.703  1.00  0.00    -0.342 C  
HETATM    8  C   UNL     1     -10.219  10.542  67.428  1.00  0.00    -0.211 C  
HETATM    9  O   UNL     1      -9.968  11.152  66.397  1.00  0.00    -0.204 OA 
BRANCH   7  10
HETATM   10  C   UNL     1     -10.421   9.318  70.088  1.00  0.00    -0.265 A  
HETATM   11  C   UNL     1      -9.081   9.440  70.477  1.00  0.00    -0.308 A  
HETATM   12  C   UNL     1      -8.316   8.298  70.711  1.00  0.00    -0.127 A  
HETATM   13  C   UNL     1      -8.886   7.034  70.562  1.00  0.00    -0.154 A  
HETATM   14  C   UNL     1     -10.226   6.909  70.198  1.00  0.00    -0.208 A  
HETATM   15  C   UNL     1     -10.995   8.050  69.965  1.00  0.00    -0.202 A  
ENDBRANCH   7  10
ENDBRANCH   5   6
ENDBRANCH   4   5
ENDBRANCH   3   4
ENDBRANCH   2   3
TORSDOF 5
ENDMDL
MODEL      194
REMARK 921   NORMALIZED FREE ENERGY PREDICTED BY IDOCK:   -2.93 KCAL/MOL
REMARK 922        TOTAL FREE ENERGY PREDICTED BY IDOCK:   -4.22 KCAL/MOL
REMARK 923 INTER-LIGAND FREE ENERGY PREDICTED BY IDOCK:   -3.73 KCAL/MOL
REMARK 924 INTRA-LIGAND FREE ENERGY PREDICTED BY IDOCK:   -0.49 KCAL/MOL
REMARK 927      BINDING AFFINITY PREDICTED BY RF-SCORE:    0.00 PKD
ROOT
HETATM    1  C   UNL     1     -10.082  11.412  64.702  1.00  0.00    -0.330 C  
HETATM    2  C   UNL     1      -9.365  10.667  65.815  1.00  0.00    -0.223 C  
ENDROOT
BRANCH   2   3
HETATM    3  C   UNL     1     -10.250   9.589  66.447  1.00  0.00    -0.302 C  
BRANCH   3   4
HETATM    4  C   UNL     1      -9.609   8.208  66.285  1.00  0.00    -0.248 C  
BRANCH   4   5
HETATM    5  C   UNL     1      -8.568   7.869  67.361  1.00  0.00    -0.125 C  
BRANCH   5   6
HETATM    6  C   UNL     1      -9.132   7.493  68.707  1.00  0.00    -0.135 C  
HETATM    7  C   UNL     1      -9.933   6.424  68.885  1.00  0.00    -0.168 C  
HETATM    8  C   UNL     1      -8.802   8.399  69.849  1.00  0.00    -0.137 C  
HETATM    9  O   UNL     1      -8.255   9.483  69.694  1.00  0.00    -0.112 OA 
BRANCH   7  10
HETATM   10  C   UNL     1     -10.542   6.056  70.162  1.00  0.00    -0.341 A  
HETATM   11  C   UNL     1     -11.732   6.670  70.574  1.00  0.00    -0.453 A  
HETATM   12  C   UNL     1     -12.239   6.421  71.849  1.00  0.00    -0.332 A  
HETATM   13  C   UNL     1     -11.564   5.559  72.713  1.00  0.00    -0.298 A  
HETATM   14  C   UNL     1     -10.391   4.929  72.297  1.00  0.00    -0.267 A  
HETATM   15  C   UNL     1      -9.883   5.173  71.022  1.00  0.00    -0.261 A  
ENDBRANCH   7  10
ENDBRANCH   5   6
ENDBRANCH   4   5
ENDBRANCH   3   4
ENDBRANCH   2   3
TORSDOF 5
ENDMDL
MODEL      195
REMARK 921   NORMALIZED FREE ENERGY PREDICTED BY IDOCK:   -2.93 KCAL/MOL
REMARK 922        TOTAL FREE ENERGY PREDICTED BY IDOCK:   -4.21 KCAL/MOL
REMARK 923 INTER-LIGAND FREE ENERGY PREDICTED BY IDOCK:   -3.84 KCAL/MOL
REMARK 924 INTRA-LIGAND FREE ENERGY PREDICTED BY IDOCK:   -0.37 KCAL/MOL
REMARK 927      BINDING AFFINITY PREDICTED BY RF-SCORE:    0.00 PKD
ROOT
HETATM    1  C   UNL     1     -11.556  14.983  67.895  1.00  0.00    -0.350 C  
HETATM    2  C   UNL     1     -10.705  13.727  67.978  1.00  0.00    -0.260 C  
ENDROOT
BRANCH   2   3
HETATM    3  C   UNL     1     -11.421  12.597  68.723  1.00  0.00    -0.349 C  
BRANCH   3   4
HETATM    4  C   UNL     1     -10.467  11.421  68.952  1.00  0.00    -0.219 C  
BRANCH   4   5
HETATM    5  C   UNL     1     -11.133  10.184  69.572  1.00  0.00    -0.295 C  
BRANCH   5   6
HETATM    6  C   UNL     1     -10.634   8.858  69.056  1.00  0.00    -0.203 C  
HETATM    7  C   UNL     1     -10.487   8.601  67.741  1.00  0.00    -0.287 C  
HETATM    8  C   UNL     1     -10.354   7.803  70.076  1.00  0.00    -0.221 C  
HETATM    9  O   UNL     1     -10.669   7.924  71.253  1.00  0.00    -0.225 OA 
BRANCH   7  10
HETATM   10  C   UNL     1     -10.057   7.313  67.198  1.00  0.00    -0.306 A  
HETATM   11  C   UNL     1      -8.716   7.112  66.850  1.00  0.00    -0.126 A  
HETATM   12  C   UNL     1      -8.332   5.935  66.206  1.00  0.00    -0.117 A  
HETATM   13  C   UNL     1      -9.282   4.959  65.912  1.00  0.00    -0.155 A  
HETATM   14  C   UNL     1     -10.615   5.147  66.278  1.00  0.00    -0.325 A  
HETATM   15  C   UNL     1     -11.002   6.320  66.924  1.00  0.00    -0.404 A  
ENDBRANCH   7  10
ENDBRANCH   5   6
ENDBRANCH   4   5
ENDBRANCH   3   4
ENDBRANCH   2   3
TORSDOF 5
ENDMDL
MODEL      196
REMARK 921   NORMALIZED FREE ENERGY PREDICTED BY IDOCK:   -2.92 KCAL/MOL
REMARK 922        TOTAL FREE ENERGY PREDICTED BY IDOCK:   -4.20 KCAL/MOL
REMARK 923 INTER-LIGAND FREE ENERGY PREDICTED BY IDOCK:   -3.83 KCAL/MOL
REMARK 924 INTRA-LIGAND FREE ENERGY PREDICTED BY IDOCK:   -0.37 KCAL/MOL
REMARK 927      BINDING AFFINITY PREDICTED BY RF-SCORE:    0.00 PKD
ROOT
HETATM    1  C   UNL     1      -9.781   4.406  65.339  1.00  0.00    -0.203 C  
HETATM    2  C   UNL     1     -10.548   5.133  66.431  1.00  0.00    -0.336 C  
ENDROOT
BRANCH   2   3
HETATM    3  C   UNL     1     -10.373   6.651  66.342  1.00  0.00    -0.002 C  
BRANCH   3   4
HETATM    4  C   UNL     1     -10.683   7.304  67.692  1.00  0.00    -0.294 C  
BRANCH   4   5
HETATM    5  C   UNL     1      -9.616   8.300  68.169  1.00  0.00    -0.163 C  
BRANCH   5   6
HETATM    6  C   UNL     1     -10.005   9.753  68.082  1.00  0.00    -0.179 C  
HETATM    7  C   UNL     1     -10.101  10.409  66.908  1.00  0.00    -0.269 C  
HETATM    8  C   UNL     1     -10.235  10.464  69.376  1.00  0.00    -0.234 C  
HETATM    9  O   UNL     1      -9.959   9.967  70.460  1.00  0.00    -0.186 OA 
BRANCH   7  10
HETATM   10  C   UNL     1     -10.425  11.829  66.784  1.00  0.00    -0.260 A  
HETATM   11  C   UNL     1      -9.399  12.783  66.763  1.00  0.00    -0.241 A  
HETATM   12  C   UNL     1      -9.711  14.142  66.783  1.00  0.00    -0.283 A  
HETATM   13  C   UNL     1     -11.043  14.552  66.820  1.00  0.00    -0.325 A  
HETATM   14  C   UNL     1     -12.067  13.606  66.818  1.00  0.00    -0.445 A  
HETATM   15  C   UNL     1     -11.760  12.245  66.795  1.00  0.00    -0.411 A  
ENDBRANCH   7  10
ENDBRANCH   5   6
ENDBRANCH   4   5
ENDBRANCH   3   4
ENDBRANCH   2   3
TORSDOF 5
ENDMDL
MODEL      197
REMARK 921   NORMALIZED FREE ENERGY PREDICTED BY IDOCK:   -2.91 KCAL/MOL
REMARK 922        TOTAL FREE ENERGY PREDICTED BY IDOCK:   -4.20 KCAL/MOL
REMARK 923 INTER-LIGAND FREE ENERGY PREDICTED BY IDOCK:   -3.70 KCAL/MOL
REMARK 924 INTRA-LIGAND FREE ENERGY PREDICTED BY IDOCK:   -0.50 KCAL/MOL
REMARK 927      BINDING AFFINITY PREDICTED BY RF-SCORE:    0.00 PKD
ROOT
HETATM    1  C   UNL     1      -7.881   6.842  72.860  1.00  0.00    -0.098 C  
HETATM    2  C   UNL     1      -7.097   6.227  71.712  1.00  0.00    -0.085 C  
ENDROOT
BRANCH   2   3
HETATM    3  C   UNL     1      -7.600   6.712  70.349  1.00  0.00    -0.096 C  
BRANCH   3   4
HETATM    4  C   UNL     1      -7.940   5.520  69.451  1.00  0.00    -0.094 C  
BRANCH   4   5
HETATM    5  C   UNL     1      -9.339   5.586  68.822  1.00  0.00    -0.152 C  
BRANCH   5   6
HETATM    6  C   UNL     1     -10.268   6.610  69.423  1.00  0.00    -0.207 C  
HETATM    7  C   UNL     1     -11.022   6.353  70.510  1.00  0.00    -0.364 C  
HETATM    8  C   UNL     1     -10.359   7.926  68.722  1.00  0.00    -0.203 C  
HETATM    9  O   UNL     1      -9.855   8.126  67.626  1.00  0.00    -0.152 OA 
BRANCH   7  10
HETATM   10  C   UNL     1     -11.973   7.299  71.093  1.00  0.00    -0.363 A  
HETATM   11  C   UNL     1     -11.509   8.442  71.756  1.00  0.00    -0.365 A  
HETATM   12  C   UNL     1     -12.407   9.270  72.428  1.00  0.00    -0.260 A  
HETATM   13  C   UNL     1     -13.767   8.964  72.438  1.00  0.00    -0.512 A  
HETATM   14  C   UNL     1     -14.235   7.839  71.759  1.00  0.00    -0.558 A  
HETATM   15  C   UNL     1     -13.341   7.010  71.082  1.00  0.00    -0.188 A  
ENDBRANCH   7  10
ENDBRANCH   5   6
ENDBRANCH   4   5
ENDBRANCH   3   4
ENDBRANCH   2   3
TORSDOF 5
ENDMDL
MODEL      198
REMARK 921   NORMALIZED FREE ENERGY PREDICTED BY IDOCK:   -2.90 KCAL/MOL
REMARK 922        TOTAL FREE ENERGY PREDICTED BY IDOCK:   -4.18 KCAL/MOL
REMARK 923 INTER-LIGAND FREE ENERGY PREDICTED BY IDOCK:   -3.70 KCAL/MOL
REMARK 924 INTRA-LIGAND FREE ENERGY PREDICTED BY IDOCK:   -0.48 KCAL/MOL
REMARK 927      BINDING AFFINITY PREDICTED BY RF-SCORE:    0.00 PKD
ROOT
HETATM    1  C   UNL     1      -7.467   4.064  65.805  1.00  0.00    -0.081 C  
HETATM    2  C   UNL     1      -8.651   4.523  66.640  1.00  0.00    -0.111 C  
ENDROOT
BRANCH   2   3
HETATM    3  C   UNL     1      -9.922   4.671  65.800  1.00  0.00    -0.246 C  
BRANCH   3   4
HETATM    4  C   UNL     1     -10.890   5.655  66.464  1.00  0.00    -0.239 C  
BRANCH   4   5
HETATM    5  C   UNL     1     -10.236   6.966  66.923  1.00  0.00    -0.310 C  
BRANCH   5   6
HETATM    6  C   UNL     1     -10.181   7.171  68.415  1.00  0.00    -0.194 C  
HETATM    7  C   UNL     1     -11.007   6.529  69.265  1.00  0.00    -0.389 C  
HETATM    8  C   UNL     1      -9.192   8.171  68.919  1.00  0.00    -0.147 C  
HETATM    9  O   UNL     1      -8.574   8.920  68.175  1.00  0.00    -0.128 OA 
BRANCH   7  10
HETATM   10  C   UNL     1     -11.021   6.738  70.712  1.00  0.00    -0.306 A  
HETATM   11  C   UNL     1     -11.773   7.784  71.262  1.00  0.00    -0.311 A  
HETATM   12  C   UNL     1     -11.679   8.068  72.625  1.00  0.00    -0.418 A  
HETATM   13  C   UNL     1     -10.840   7.309  73.440  1.00  0.00    -0.370 A  
HETATM   14  C   UNL     1     -10.108   6.252  72.899  1.00  0.00    -0.196 A  
HETATM   15  C   UNL     1     -10.201   5.963  71.538  1.00  0.00    -0.254 A  
ENDBRANCH   7  10
ENDBRANCH   5   6
ENDBRANCH   4   5
ENDBRANCH   3   4
ENDBRANCH   2   3
TORSDOF 5
ENDMDL
MODEL      199
REMARK 921   NORMALIZED FREE ENERGY PREDICTED BY IDOCK:   -2.89 KCAL/MOL
REMARK 922        TOTAL FREE ENERGY PREDICTED BY IDOCK:   -4.16 KCAL/MOL
REMARK 923 INTER-LIGAND FREE ENERGY PREDICTED BY IDOCK:   -3.99 KCAL/MOL
REMARK 924 INTRA-LIGAND FREE ENERGY PREDICTED BY IDOCK:   -0.17 KCAL/MOL
REMARK 927      BINDING AFFINITY PREDICTED BY RF-SCORE:    0.00 PKD
ROOT
HETATM    1  C   UNL     1      -5.179   6.586  64.616  1.00  0.00    -0.022 C  
HETATM    2  C   UNL     1      -6.328   6.115  65.492  1.00  0.00    -0.038 C  
ENDROOT
BRANCH   2   3
HETATM    3  C   UNL     1      -7.677   6.224  64.777  1.00  0.00    -0.101 C  
BRANCH   3   4
HETATM    4  C   UNL     1      -8.012   7.690  64.490  1.00  0.00    -0.130 C  
BRANCH   4   5
HETATM    5  C   UNL     1      -8.241   8.540  65.748  1.00  0.00    -0.125 C  
BRANCH   5   6
HETATM    6  C   UNL     1      -9.424   9.473  65.689  1.00  0.00    -0.326 C  
HETATM    7  C   UNL     1      -9.451  10.557  64.889  1.00  0.00    -0.304 C  
HETATM    8  C   UNL     1     -10.563   9.172  66.607  1.00  0.00    -0.087 C  
HETATM    9  O   UNL     1     -10.494   8.327  67.489  1.00  0.00    -0.246 OA 
BRANCH   7  10
HETATM   10  C   UNL     1     -10.555  11.515  64.840  1.00  0.00    -0.360 A  
HETATM   11  C   UNL     1     -10.887  12.262  65.978  1.00  0.00    -0.310 A  
HETATM   12  C   UNL     1     -12.022  13.073  65.973  1.00  0.00    -0.498 A  
HETATM   13  C   UNL     1     -12.824  13.143  64.835  1.00  0.00    -0.349 A  
HETATM   14  C   UNL     1     -12.484  12.419  63.693  1.00  0.00    -0.610 A  
HETATM   15  C   UNL     1     -11.348  11.609  63.692  1.00  0.00    -0.485 A  
ENDBRANCH   7  10
ENDBRANCH   5   6
ENDBRANCH   4   5
ENDBRANCH   3   4
ENDBRANCH   2   3
TORSDOF 5
ENDMDL
MODEL      200
REMARK 921   NORMALIZED FREE ENERGY PREDICTED BY IDOCK:   -2.86 KCAL/MOL
REMARK 922        TOTAL FREE ENERGY PREDICTED BY IDOCK:   -4.13 KCAL/MOL
REMARK 923 INTER-LIGAND FREE ENERGY PREDICTED BY IDOCK:   -3.84 KCAL/MOL
REMARK 924 INTRA-LIGAND FREE ENERGY PREDICTED BY IDOCK:   -0.29 KCAL/MOL
REMARK 927      BINDING AFFINITY PREDICTED BY RF-SCORE:    0.00 PKD
ROOT
HETATM    1  C   UNL     1      -5.492  10.894  66.647  1.00  0.00    -0.082 C  
HETATM    2  C   UNL     1      -6.785  10.855  65.851  1.00  0.00    -0.038 C  
ENDROOT
BRANCH   2   3
HETATM    3  C   UNL     1      -7.735   9.764  66.351  1.00  0.00    -0.102 C  
BRANCH   3   4
HETATM    4  C   UNL     1      -9.192  10.181  66.130  1.00  0.00    -0.196 C  
BRANCH   4   5
HETATM    5  C   UNL     1     -10.217   9.088  66.464  1.00  0.00    -0.318 C  
BRANCH   5   6
HETATM    6  C   UNL     1     -10.592   8.979  67.920  1.00  0.00    -0.256 C  
HETATM    7  C   UNL     1     -10.267   7.910  68.673  1.00  0.00    -0.223 C  
HETATM    8  C   UNL     1     -11.397  10.101  68.491  1.00  0.00    -0.108 C  
HETATM    9  O   UNL     1     -11.886  10.982  67.796  1.00  0.00    -0.605 OA 
BRANCH   7  10
HETATM   10  C   UNL     1     -10.656   7.742  70.073  1.00  0.00    -0.238 A  
HETATM   11  C   UNL     1      -9.912   8.359  71.087  1.00  0.00    -0.245 A  
HETATM   12  C   UNL     1     -10.200   8.089  72.424  1.00  0.00    -0.347 A  
HETATM   13  C   UNL     1     -11.228   7.208  72.753  1.00  0.00    -0.314 A  
HETATM   14  C   UNL     1     -11.985   6.609  71.747  1.00  0.00    -0.391 A  
HETATM   15  C   UNL     1     -11.704   6.879  70.407  1.00  0.00    -0.377 A  
ENDBRANCH   7  10
ENDBRANCH   5   6
ENDBRANCH   4   5
ENDBRANCH   3   4
ENDBRANCH   2   3
TORSDOF 5
ENDMDL
MODEL      201
REMARK 921   NORMALIZED FREE ENERGY PREDICTED BY IDOCK:   -2.85 KCAL/MOL
REMARK 922        TOTAL FREE ENERGY PREDICTED BY IDOCK:   -4.12 KCAL/MOL
REMARK 923 INTER-LIGAND FREE ENERGY PREDICTED BY IDOCK:   -3.61 KCAL/MOL
REMARK 924 INTRA-LIGAND FREE ENERGY PREDICTED BY IDOCK:   -0.51 KCAL/MOL
REMARK 927      BINDING AFFINITY PREDICTED BY RF-SCORE:    0.00 PKD
ROOT
HETATM    1  C   UNL     1     -12.713  14.427  71.874  1.00  0.00    -0.426 C  
HETATM    2  C   UNL     1     -12.728  15.264  70.606  1.00  0.00    -0.470 C  
ENDROOT
BRANCH   2   3
HETATM    3  C   UNL     1     -11.507  16.183  70.510  1.00  0.00    -0.363 C  
BRANCH   3   4
HETATM    4  C   UNL     1     -10.355  15.468  69.799  1.00  0.00    -0.316 C  
BRANCH   4   5
HETATM    5  C   UNL     1     -10.287  15.735  68.288  1.00  0.00    -0.239 C  
BRANCH   5   6
HETATM    6  C   UNL     1      -9.565  16.997  67.889  1.00  0.00    -0.249 C  
HETATM    7  C   UNL     1      -8.232  17.142  68.022  1.00  0.00    -0.216 C  
HETATM    8  C   UNL     1     -10.410  18.119  67.379  1.00  0.00    -0.389 C  
HETATM    9  O   UNL     1     -11.632  18.104  67.437  1.00  0.00     0.660 OA 
BRANCH   7  10
HETATM   10  C   UNL     1      -7.502  18.367  67.696  1.00  0.00    -0.228 A  
HETATM   11  C   UNL     1      -6.930  18.526  66.428  1.00  0.00    -0.257 A  
HETATM   12  C   UNL     1      -6.120  19.630  66.162  1.00  0.00    -0.185 A  
HETATM   13  C   UNL     1      -5.882  20.576  67.157  1.00  0.00    -0.226 A  
HETATM   14  C   UNL     1      -6.469  20.433  68.414  1.00  0.00    -0.340 A  
HETATM   15  C   UNL     1      -7.282  19.332  68.683  1.00  0.00    -0.367 A  
ENDBRANCH   7  10
ENDBRANCH   5   6
ENDBRANCH   4   5
ENDBRANCH   3   4
ENDBRANCH   2   3
TORSDOF 5
ENDMDL
MODEL      202
REMARK 921   NORMALIZED FREE ENERGY PREDICTED BY IDOCK:   -2.84 KCAL/MOL
REMARK 922        TOTAL FREE ENERGY PREDICTED BY IDOCK:   -4.11 KCAL/MOL
REMARK 923 INTER-LIGAND FREE ENERGY PREDICTED BY IDOCK:   -3.73 KCAL/MOL
REMARK 924 INTRA-LIGAND FREE ENERGY PREDICTED BY IDOCK:   -0.38 KCAL/MOL
REMARK 927      BINDING AFFINITY PREDICTED BY RF-SCORE:    0.00 PKD
ROOT
HETATM    1  C   UNL     1     -13.357  12.373  71.873  1.00  0.00    -0.450 C  
HETATM    2  C   UNL     1     -13.250  10.858  71.933  1.00  0.00    -0.508 C  
ENDROOT
BRANCH   2   3
HETATM    3  C   UNL     1     -12.246  10.313  70.914  1.00  0.00    -0.465 C  
BRANCH   3   4
HETATM    4  C   UNL     1     -11.395   9.206  71.543  1.00  0.00    -0.439 C  
BRANCH   4   5
HETATM    5  C   UNL     1      -9.926   9.213  71.097  1.00  0.00    -0.377 C  
BRANCH   5   6
HETATM    6  C   UNL     1      -9.526   8.088  70.177  1.00  0.00    -0.160 C  
HETATM    7  C   UNL     1     -10.177   7.828  69.026  1.00  0.00    -0.213 C  
HETATM    8  C   UNL     1      -8.392   7.225  70.625  1.00  0.00    -0.128 C  
HETATM    9  O   UNL     1      -7.912   7.297  71.748  1.00  0.00    -0.094 OA 
BRANCH   7  10
HETATM   10  C   UNL     1      -9.855   6.716  68.132  1.00  0.00    -0.135 A  
HETATM   11  C   UNL     1      -9.159   6.953  66.940  1.00  0.00    -0.152 A  
HETATM   12  C   UNL     1      -8.972   5.917  66.025  1.00  0.00    -0.159 A  
HETATM   13  C   UNL     1      -9.475   4.646  66.297  1.00  0.00    -0.167 A  
HETATM   14  C   UNL     1     -10.149   4.401  67.493  1.00  0.00    -0.061 A  
HETATM   15  C   UNL     1     -10.335   5.433  68.413  1.00  0.00    -0.216 A  
ENDBRANCH   7  10
ENDBRANCH   5   6
ENDBRANCH   4   5
ENDBRANCH   3   4
ENDBRANCH   2   3
TORSDOF 5
ENDMDL
MODEL      203
REMARK 921   NORMALIZED FREE ENERGY PREDICTED BY IDOCK:   -2.84 KCAL/MOL
REMARK 922        TOTAL FREE ENERGY PREDICTED BY IDOCK:   -4.11 KCAL/MOL
REMARK 923 INTER-LIGAND FREE ENERGY PREDICTED BY IDOCK:   -3.69 KCAL/MOL
REMARK 924 INTRA-LIGAND FREE ENERGY PREDICTED BY IDOCK:   -0.41 KCAL/MOL
REMARK 927      BINDING AFFINITY PREDICTED BY RF-SCORE:    0.00 PKD
ROOT
HETATM    1  C   UNL     1     -14.023   8.953  72.367  1.00  0.00    -0.516 C  
HETATM    2  C   UNL     1     -12.984   9.679  71.528  1.00  0.00    -0.486 C  
ENDROOT
BRANCH   2   3
HETATM    3  C   UNL     1     -11.565   9.183  71.817  1.00  0.00    -0.457 C  
BRANCH   3   4
HETATM    4  C   UNL     1     -11.065   8.298  70.672  1.00  0.00    -0.269 C  
BRANCH   4   5
HETATM    5  C   UNL     1     -11.105   6.794  70.976  1.00  0.00    -0.317 C  
BRANCH   5   6
HETATM    6  C   UNL     1     -10.300   5.926  70.043  1.00  0.00    -0.309 C  
HETATM    7  C   UNL     1     -10.108   6.240  68.747  1.00  0.00    -0.191 C  
HETATM    8  C   UNL     1      -9.757   4.655  70.610  1.00  0.00    -0.207 C  
HETATM    9  O   UNL     1     -10.079   4.234  71.714  1.00  0.00    -0.184 OA 
BRANCH   7  10
HETATM   10  C   UNL     1      -9.379   5.401  67.797  1.00  0.00    -0.124 A  
HETATM   11  C   UNL     1      -7.994   5.546  67.652  1.00  0.00    -0.101 A  
HETATM   12  C   UNL     1      -7.320   4.845  66.652  1.00  0.00    -0.082 A  
HETATM   13  C   UNL     1      -8.025   3.997  65.799  1.00  0.00    -0.097 A  
HETATM   14  C   UNL     1      -9.401   3.832  65.955  1.00  0.00    -0.173 A  
HETATM   15  C   UNL     1     -10.078   4.529  66.956  1.00  0.00    -0.180 A  
ENDBRANCH   7  10
ENDBRANCH   5   6
ENDBRANCH   4   5
ENDBRANCH   3   4
ENDBRANCH   2   3
TORSDOF 5
ENDMDL
MODEL      204
REMARK 921   NORMALIZED FREE ENERGY PREDICTED BY IDOCK:   -2.81 KCAL/MOL
REMARK 922        TOTAL FREE ENERGY PREDICTED BY IDOCK:   -4.07 KCAL/MOL
REMARK 923 INTER-LIGAND FREE ENERGY PREDICTED BY IDOCK:   -3.83 KCAL/MOL
REMARK 924 INTRA-LIGAND FREE ENERGY PREDICTED BY IDOCK:   -0.24 KCAL/MOL
REMARK 927      BINDING AFFINITY PREDICTED BY RF-SCORE:    0.00 PKD
ROOT
HETATM    1  C   UNL     1      -9.045  13.052  67.530  1.00  0.00    -0.191 C  
HETATM    2  C   UNL     1     -10.505  12.820  67.882  1.00  0.00    -0.226 C  
ENDROOT
BRANCH   2   3
HETATM    3  C   UNL     1     -11.077  11.591  67.171  1.00  0.00    -0.355 C  
BRANCH   3   4
HETATM    4  C   UNL     1     -10.560  10.307  67.826  1.00  0.00    -0.296 C  
BRANCH   4   5
HETATM    5  C   UNL     1     -10.333  10.420  69.340  1.00  0.00    -0.259 C  
BRANCH   5   6
HETATM    6  C   UNL     1     -10.058   9.118  70.050  1.00  0.00    -0.230 C  
HETATM    7  C   UNL     1     -11.026   8.218  70.311  1.00  0.00    -0.233 C  
HETATM    8  C   UNL     1      -8.654   8.885  70.505  1.00  0.00    -0.184 C  
HETATM    9  O   UNL     1      -7.797   9.758  70.472  1.00  0.00    -0.214 OA 
BRANCH   7  10
HETATM   10  C   UNL     1     -10.812   6.970  71.042  1.00  0.00    -0.264 A  
HETATM   11  C   UNL     1     -10.184   5.888  70.413  1.00  0.00    -0.273 A  
HETATM   12  C   UNL     1     -10.103   4.656  71.062  1.00  0.00    -0.246 A  
HETATM   13  C   UNL     1     -10.643   4.502  72.337  1.00  0.00    -0.205 A  
HETATM   14  C   UNL     1     -11.249   5.583  72.976  1.00  0.00    -0.346 A  
HETATM   15  C   UNL     1     -11.330   6.818  72.332  1.00  0.00    -0.306 A  
ENDBRANCH   7  10
ENDBRANCH   5   6
ENDBRANCH   4   5
ENDBRANCH   3   4
ENDBRANCH   2   3
TORSDOF 5
ENDMDL
MODEL      205
REMARK 921   NORMALIZED FREE ENERGY PREDICTED BY IDOCK:   -2.80 KCAL/MOL
REMARK 922        TOTAL FREE ENERGY PREDICTED BY IDOCK:   -4.05 KCAL/MOL
REMARK 923 INTER-LIGAND FREE ENERGY PREDICTED BY IDOCK:   -3.72 KCAL/MOL
REMARK 924 INTRA-LIGAND FREE ENERGY PREDICTED BY IDOCK:   -0.33 KCAL/MOL
REMARK 927      BINDING AFFINITY PREDICTED BY RF-SCORE:    0.00 PKD
ROOT
HETATM    1  C   UNL     1      -7.425   6.434  72.755  1.00  0.00    -0.095 C  
HETATM    2  C   UNL     1      -8.311   5.972  73.900  1.00  0.00    -0.113 C  
ENDROOT
BRANCH   2   3
HETATM    3  C   UNL     1      -9.798   6.062  73.547  1.00  0.00    -0.171 C  
BRANCH   3   4
HETATM    4  C   UNL     1      -9.997   6.904  72.284  1.00  0.00    -0.176 C  
BRANCH   4   5
HETATM    5  C   UNL     1     -10.705   8.245  72.527  1.00  0.00    -0.411 C  
BRANCH   5   6
HETATM    6  C   UNL     1     -10.977   9.063  71.290  1.00  0.00    -0.384 C  
HETATM    7  C   UNL     1     -10.114   9.123  70.257  1.00  0.00    -0.244 C  
HETATM    8  C   UNL     1     -12.241   9.860  71.278  1.00  0.00    -0.387 C  
HETATM    9  O   UNL     1     -12.944   9.996  72.270  1.00  0.00    -0.389 OA 
BRANCH   7  10
HETATM   10  C   UNL     1     -10.316   9.944  69.064  1.00  0.00    -0.224 A  
HETATM   11  C   UNL     1     -10.512   9.335  67.818  1.00  0.00    -0.313 A  
HETATM   12  C   UNL     1     -10.568  10.114  66.663  1.00  0.00    -0.214 A  
HETATM   13  C   UNL     1     -10.431  11.499  66.747  1.00  0.00    -0.275 A  
HETATM   14  C   UNL     1     -10.258  12.110  67.989  1.00  0.00    -0.203 A  
HETATM   15  C   UNL     1     -10.205  11.335  69.147  1.00  0.00    -0.123 A  
ENDBRANCH   7  10
ENDBRANCH   5   6
ENDBRANCH   4   5
ENDBRANCH   3   4
ENDBRANCH   2   3
TORSDOF 5
ENDMDL
MODEL      206
REMARK 921   NORMALIZED FREE ENERGY PREDICTED BY IDOCK:   -2.80 KCAL/MOL
REMARK 922        TOTAL FREE ENERGY PREDICTED BY IDOCK:   -4.04 KCAL/MOL
REMARK 923 INTER-LIGAND FREE ENERGY PREDICTED BY IDOCK:   -3.47 KCAL/MOL
REMARK 924 INTRA-LIGAND FREE ENERGY PREDICTED BY IDOCK:   -0.58 KCAL/MOL
REMARK 927      BINDING AFFINITY PREDICTED BY RF-SCORE:    0.00 PKD
ROOT
HETATM    1  C   UNL     1      -8.486  13.927  67.518  1.00  0.00    -0.200 C  
HETATM    2  C   UNL     1      -9.017  12.559  67.914  1.00  0.00    -0.188 C  
ENDROOT
BRANCH   2   3
HETATM    3  C   UNL     1      -8.330  11.431  67.140  1.00  0.00    -0.155 C  
BRANCH   3   4
HETATM    4  C   UNL     1      -7.299  10.726  68.026  1.00  0.00    -0.088 C  
BRANCH   4   5
HETATM    5  C   UNL     1      -7.597  10.815  69.530  1.00  0.00    -0.094 C  
BRANCH   5   6
HETATM    6  C   UNL     1      -8.373   9.656  70.102  1.00  0.00    -0.221 C  
HETATM    7  C   UNL     1      -9.719   9.635  70.141  1.00  0.00    -0.301 C  
HETATM    8  C   UNL     1      -7.573   8.535  70.681  1.00  0.00    -0.076 C  
HETATM    9  O   UNL     1      -6.363   8.607  70.852  1.00  0.00    -0.037 OA 
BRANCH   7  10
HETATM   10  C   UNL     1     -10.508   8.555  70.734  1.00  0.00    -0.239 A  
HETATM   11  C   UNL     1     -10.778   8.557  72.109  1.00  0.00    -0.426 A  
HETATM   12  C   UNL     1     -11.411   7.462  72.696  1.00  0.00    -0.360 A  
HETATM   13  C   UNL     1     -11.776   6.366  71.916  1.00  0.00    -0.378 A  
HETATM   14  C   UNL     1     -11.529   6.370  70.544  1.00  0.00    -0.444 A  
HETATM   15  C   UNL     1     -10.900   7.465  69.951  1.00  0.00    -0.259 A  
ENDBRANCH   7  10
ENDBRANCH   5   6
ENDBRANCH   4   5
ENDBRANCH   3   4
ENDBRANCH   2   3
TORSDOF 5
ENDMDL
MODEL      207
REMARK 921   NORMALIZED FREE ENERGY PREDICTED BY IDOCK:   -2.79 KCAL/MOL
REMARK 922        TOTAL FREE ENERGY PREDICTED BY IDOCK:   -4.04 KCAL/MOL
REMARK 923 INTER-LIGAND FREE ENERGY PREDICTED BY IDOCK:   -3.56 KCAL/MOL
REMARK 924 INTRA-LIGAND FREE ENERGY PREDICTED BY IDOCK:   -0.48 KCAL/MOL
REMARK 927      BINDING AFFINITY PREDICTED BY RF-SCORE:    0.00 PKD
ROOT
HETATM    1  C   UNL     1      -7.750   8.808  71.307  1.00  0.00    -0.149 C  
HETATM    2  C   UNL     1      -8.812   7.759  71.594  1.00  0.00    -0.144 C  
ENDROOT
BRANCH   2   3
HETATM    3  C   UNL     1      -9.264   7.036  70.323  1.00  0.00    -0.156 C  
BRANCH   3   4
HETATM    4  C   UNL     1      -8.937   7.877  69.086  1.00  0.00    -0.145 C  
BRANCH   4   5
HETATM    5  C   UNL     1     -10.134   8.115  68.154  1.00  0.00    -0.237 C  
BRANCH   5   6
HETATM    6  C   UNL     1     -10.365   9.550  67.755  1.00  0.00    -0.291 C  
HETATM    7  C   UNL     1      -9.801  10.097  66.659  1.00  0.00    -0.253 C  
HETATM    8  C   UNL     1     -11.218  10.371  68.666  1.00  0.00    -0.248 C  
HETATM    9  O   UNL     1     -11.576   9.977  69.767  1.00  0.00    -0.216 OA 
BRANCH   7  10
HETATM   10  C   UNL     1      -9.956  11.497  66.266  1.00  0.00    -0.252 A  
HETATM   11  C   UNL     1      -9.075  12.467  66.761  1.00  0.00    -0.212 A  
HETATM   12  C   UNL     1      -9.305  13.817  66.497  1.00  0.00    -0.249 A  
HETATM   13  C   UNL     1     -10.409  14.201  65.738  1.00  0.00    -0.338 A  
HETATM   14  C   UNL     1     -11.276  13.237  65.225  1.00  0.00    -0.315 A  
HETATM   15  C   UNL     1     -11.048  11.885  65.484  1.00  0.00    -0.356 A  
ENDBRANCH   7  10
ENDBRANCH   5   6
ENDBRANCH   4   5
ENDBRANCH   3   4
ENDBRANCH   2   3
TORSDOF 5
ENDMDL
MODEL      208
REMARK 921   NORMALIZED FREE ENERGY PREDICTED BY IDOCK:   -2.77 KCAL/MOL
REMARK 922        TOTAL FREE ENERGY PREDICTED BY IDOCK:   -4.02 KCAL/MOL
REMARK 923 INTER-LIGAND FREE ENERGY PREDICTED BY IDOCK:   -3.93 KCAL/MOL
REMARK 924 INTRA-LIGAND FREE ENERGY PREDICTED BY IDOCK:   -0.08 KCAL/MOL
REMARK 927      BINDING AFFINITY PREDICTED BY RF-SCORE:    0.00 PKD
ROOT
HETATM    1  C   UNL     1      -5.635   3.773  69.245  1.00  0.00    -0.017 C  
HETATM    2  C   UNL     1      -7.057   4.302  69.158  1.00  0.00    -0.051 C  
ENDROOT
BRANCH   2   3
HETATM    3  C   UNL     1      -7.281   5.143  67.899  1.00  0.00    -0.067 C  
BRANCH   3   4
HETATM    4  C   UNL     1      -8.702   4.940  67.367  1.00  0.00    -0.103 C  
BRANCH   4   5
HETATM    5  C   UNL     1      -9.741   4.626  68.453  1.00  0.00    -0.198 C  
BRANCH   5   6
HETATM    6  C   UNL     1     -10.506   5.816  68.975  1.00  0.00    -0.336 C  
HETATM    7  C   UNL     1     -10.668   6.051  70.292  1.00  0.00    -0.367 C  
HETATM    8  C   UNL     1     -11.131   6.711  67.956  1.00  0.00    -0.205 C  
HETATM    9  O   UNL     1     -11.184   6.423  66.768  1.00  0.00    -0.327 OA 
BRANCH   7  10
HETATM   10  C   UNL     1     -11.446   7.162  70.840  1.00  0.00    -0.333 A  
HETATM   11  C   UNL     1     -12.760   6.951  71.273  1.00  0.00    -0.368 A  
HETATM   12  C   UNL     1     -13.546   8.034  71.666  1.00  0.00    -0.390 A  
HETATM   13  C   UNL     1     -13.023   9.326  71.631  1.00  0.00    -0.447 A  
HETATM   14  C   UNL     1     -11.707   9.536  71.222  1.00  0.00    -0.444 A  
HETATM   15  C   UNL     1     -10.916   8.456  70.831  1.00  0.00    -0.279 A  
ENDBRANCH   7  10
ENDBRANCH   5   6
ENDBRANCH   4   5
ENDBRANCH   3   4
ENDBRANCH   2   3
TORSDOF 5
ENDMDL
MODEL      209
REMARK 921   NORMALIZED FREE ENERGY PREDICTED BY IDOCK:   -2.77 KCAL/MOL
REMARK 922        TOTAL FREE ENERGY PREDICTED BY IDOCK:   -4.01 KCAL/MOL
REMARK 923 INTER-LIGAND FREE ENERGY PREDICTED BY IDOCK:   -3.69 KCAL/MOL
REMARK 924 INTRA-LIGAND FREE ENERGY PREDICTED BY IDOCK:   -0.32 KCAL/MOL
REMARK 927      BINDING AFFINITY PREDICTED BY RF-SCORE:    0.00 PKD
ROOT
HETATM    1  C   UNL     1     -12.115  13.309  66.629  1.00  0.00    -0.421 C  
HETATM    2  C   UNL     1     -10.991  12.506  67.260  1.00  0.00    -0.300 C  
ENDROOT
BRANCH   2   3
HETATM    3  C   UNL     1     -11.459  11.739  68.500  1.00  0.00    -0.353 C  
BRANCH   3   4
HETATM    4  C   UNL     1     -10.344  10.824  69.014  1.00  0.00    -0.235 C  
BRANCH   4   5
HETATM    5  C   UNL     1     -10.781   9.870  70.135  1.00  0.00    -0.361 C  
BRANCH   5   6
HETATM    6  C   UNL     1     -10.117   8.516  70.124  1.00  0.00    -0.197 C  
HETATM    7  C   UNL     1     -10.305   7.626  69.130  1.00  0.00    -0.217 C  
HETATM    8  C   UNL     1      -9.267   8.176  71.304  1.00  0.00    -0.156 C  
HETATM    9  O   UNL     1      -9.235   8.866  72.315  1.00  0.00    -0.376 OA 
BRANCH   7  10
HETATM   10  C   UNL     1      -9.723   6.284  69.107  1.00  0.00    -0.154 A  
HETATM   11  C   UNL     1     -10.343   5.238  69.801  1.00  0.00    -0.369 A  
HETATM   12  C   UNL     1      -9.717   3.995  69.892  1.00  0.00    -0.263 A  
HETATM   13  C   UNL     1      -8.476   3.792  69.291  1.00  0.00    -0.098 A  
HETATM   14  C   UNL     1      -7.867   4.825  68.579  1.00  0.00    -0.081 A  
HETATM   15  C   UNL     1      -8.490   6.069  68.483  1.00  0.00    -0.113 A  
ENDBRANCH   7  10
ENDBRANCH   5   6
ENDBRANCH   4   5
ENDBRANCH   3   4
ENDBRANCH   2   3
TORSDOF 5
ENDMDL
MODEL      210
REMARK 921   NORMALIZED FREE ENERGY PREDICTED BY IDOCK:   -2.71 KCAL/MOL
REMARK 922        TOTAL FREE ENERGY PREDICTED BY IDOCK:   -3.93 KCAL/MOL
REMARK 923 INTER-LIGAND FREE ENERGY PREDICTED BY IDOCK:   -3.36 KCAL/MOL
REMARK 924 INTRA-LIGAND FREE ENERGY PREDICTED BY IDOCK:   -0.57 KCAL/MOL
REMARK 927      BINDING AFFINITY PREDICTED BY RF-SCORE:    0.00 PKD
ROOT
HETATM    1  C   UNL     1     -13.100   8.002  71.701  1.00  0.00    -0.354 C  
HETATM    2  C   UNL     1     -11.747   8.062  72.390  1.00  0.00    -0.444 C  
ENDROOT
BRANCH   2   3
HETATM    3  C   UNL     1     -10.817   9.090  71.741  1.00  0.00    -0.437 C  
BRANCH   3   4
HETATM    4  C   UNL     1     -11.115   9.209  70.244  1.00  0.00    -0.272 C  
BRANCH   4   5
HETATM    5  C   UNL     1      -9.882   9.050  69.343  1.00  0.00    -0.183 C  
BRANCH   5   6
HETATM    6  C   UNL     1      -9.647   7.659  68.811  1.00  0.00    -0.153 C  
HETATM    7  C   UNL     1      -8.948   6.732  69.494  1.00  0.00    -0.139 C  
HETATM    8  C   UNL     1     -10.187   7.361  67.451  1.00  0.00    -0.246 C  
HETATM    9  O   UNL     1     -10.643   8.228  66.717  1.00  0.00    -0.306 OA 
BRANCH   7  10
HETATM   10  C   UNL     1      -8.653   5.390  68.992  1.00  0.00    -0.102 A  
HETATM   11  C   UNL     1      -7.556   5.183  68.147  1.00  0.00    -0.080 A  
HETATM   12  C   UNL     1      -7.355   3.934  67.560  1.00  0.00    -0.067 A  
HETATM   13  C   UNL     1      -8.244   2.891  67.816  1.00  0.00    -0.087 A  
HETATM   14  C   UNL     1      -9.324   3.088  68.675  1.00  0.00    -0.237 A  
HETATM   15  C   UNL     1      -9.527   4.334  69.267  1.00  0.00    -0.254 A  
ENDBRANCH   7  10
ENDBRANCH   5   6
ENDBRANCH   4   5
ENDBRANCH   3   4
ENDBRANCH   2   3
TORSDOF 5
ENDMDL
MODEL      211
REMARK 921   NORMALIZED FREE ENERGY PREDICTED BY IDOCK:   -2.68 KCAL/MOL
REMARK 922        TOTAL FREE ENERGY PREDICTED BY IDOCK:   -3.90 KCAL/MOL
REMARK 923 INTER-LIGAND FREE ENERGY PREDICTED BY IDOCK:   -3.83 KCAL/MOL
REMARK 924 INTRA-LIGAND FREE ENERGY PREDICTED BY IDOCK:   -0.07 KCAL/MOL
REMARK 927      BINDING AFFINITY PREDICTED BY RF-SCORE:    0.00 PKD
ROOT
HETATM    1  C   UNL     1     -13.453   8.158  71.222  1.00  0.00    -0.163 C  
HETATM    2  C   UNL     1     -12.283   8.434  72.152  1.00  0.00    -0.434 C  
ENDROOT
BRANCH   2   3
HETATM    3  C   UNL     1     -11.278   9.411  71.535  1.00  0.00    -0.457 C  
BRANCH   3   4
HETATM    4  C   UNL     1     -11.238   9.246  70.013  1.00  0.00    -0.190 C  
BRANCH   4   5
HETATM    5  C   UNL     1     -11.986  10.343  69.242  1.00  0.00    -0.105 C  
BRANCH   5   6
HETATM    6  C   UNL     1     -11.109  11.344  68.534  1.00  0.00    -0.287 C  
HETATM    7  C   UNL     1     -11.046  12.639  68.901  1.00  0.00    -0.307 C  
HETATM    8  C   UNL     1     -10.337  10.845  67.355  1.00  0.00    -0.211 C  
HETATM    9  O   UNL     1     -10.523   9.738  66.867  1.00  0.00    -0.238 OA 
BRANCH   7  10
HETATM   10  C   UNL     1     -10.249  13.652  68.209  1.00  0.00    -0.243 A  
HETATM   11  C   UNL     1     -10.826  14.424  67.192  1.00  0.00    -0.292 A  
HETATM   12  C   UNL     1     -10.033  15.291  66.441  1.00  0.00    -0.291 A  
HETATM   13  C   UNL     1      -8.668  15.393  66.704  1.00  0.00    -0.332 A  
HETATM   14  C   UNL     1      -8.095  14.643  67.730  1.00  0.00    -0.160 A  
HETATM   15  C   UNL     1      -8.885  13.777  68.486  1.00  0.00    -0.116 A  
ENDBRANCH   7  10
ENDBRANCH   5   6
ENDBRANCH   4   5
ENDBRANCH   3   4
ENDBRANCH   2   3
TORSDOF 5
ENDMDL
MODEL      212
REMARK 921   NORMALIZED FREE ENERGY PREDICTED BY IDOCK:   -2.68 KCAL/MOL
REMARK 922        TOTAL FREE ENERGY PREDICTED BY IDOCK:   -3.90 KCAL/MOL
REMARK 923 INTER-LIGAND FREE ENERGY PREDICTED BY IDOCK:   -3.93 KCAL/MOL
REMARK 924 INTRA-LIGAND FREE ENERGY PREDICTED BY IDOCK:    0.04 KCAL/MOL
REMARK 927      BINDING AFFINITY PREDICTED BY RF-SCORE:    0.00 PKD
ROOT
HETATM    1  C   UNL     1     -11.127  11.649  67.501  1.00  0.00    -0.333 C  
HETATM    2  C   UNL     1     -11.372  10.410  68.347  1.00  0.00    -0.292 C  
ENDROOT
BRANCH   2   3
HETATM    3  C   UNL     1     -11.730  10.764  69.793  1.00  0.00    -0.399 C  
BRANCH   3   4
HETATM    4  C   UNL     1     -11.699   9.510  70.672  1.00  0.00    -0.330 C  
BRANCH   4   5
HETATM    5  C   UNL     1     -10.404   9.339  71.478  1.00  0.00    -0.364 C  
BRANCH   5   6
HETATM    6  C   UNL     1     -10.059   7.919  71.849  1.00  0.00    -0.250 C  
HETATM    7  C   UNL     1     -10.509   6.858  71.151  1.00  0.00    -0.234 C  
HETATM    8  C   UNL     1      -9.226   7.730  73.075  1.00  0.00    -0.226 C  
HETATM    9  O   UNL     1      -8.972   8.645  73.848  1.00  0.00    -0.015 OA 
BRANCH   7  10
HETATM   10  C   UNL     1     -10.241   5.466  71.508  1.00  0.00    -0.280 A  
HETATM   11  C   UNL     1      -9.850   4.552  70.521  1.00  0.00    -0.297 A  
HETATM   12  C   UNL     1      -9.727   3.198  70.834  1.00  0.00    -0.170 A  
HETATM   13  C   UNL     1      -9.991   2.755  72.129  1.00  0.00    -0.238 A  
HETATM   14  C   UNL     1     -10.358   3.666  73.120  1.00  0.00    -0.243 A  
HETATM   15  C   UNL     1     -10.479   5.021  72.811  1.00  0.00    -0.261 A  
ENDBRANCH   7  10
ENDBRANCH   5   6
ENDBRANCH   4   5
ENDBRANCH   3   4
ENDBRANCH   2   3
TORSDOF 5
ENDMDL
MODEL      213
REMARK 921   NORMALIZED FREE ENERGY PREDICTED BY IDOCK:   -2.68 KCAL/MOL
REMARK 922        TOTAL FREE ENERGY PREDICTED BY IDOCK:   -3.89 KCAL/MOL
REMARK 923 INTER-LIGAND FREE ENERGY PREDICTED BY IDOCK:   -3.64 KCAL/MOL
REMARK 924 INTRA-LIGAND FREE ENERGY PREDICTED BY IDOCK:   -0.25 KCAL/MOL
REMARK 927      BINDING AFFINITY PREDICTED BY RF-SCORE:    0.00 PKD
ROOT
HETATM    1  C   UNL     1      -6.555  10.080  64.274  1.00  0.00    -0.130 C  
HETATM    2  C   UNL     1      -6.459  10.497  65.732  1.00  0.00    -0.124 C  
ENDROOT
BRANCH   2   3
HETATM    3  C   UNL     1      -7.456   9.738  66.613  1.00  0.00    -0.095 C  
BRANCH   3   4
HETATM    4  C   UNL     1      -8.371   8.864  65.751  1.00  0.00    -0.139 C  
BRANCH   4   5
HETATM    5  C   UNL     1      -9.835   9.325  65.722  1.00  0.00    -0.302 C  
BRANCH   5   6
HETATM    6  C   UNL     1     -10.050  10.802  65.936  1.00  0.00    -0.314 C  
HETATM    7  C   UNL     1      -9.917  11.386  67.143  1.00  0.00    -0.217 C  
HETATM    8  C   UNL     1     -10.474  11.597  64.744  1.00  0.00    -0.295 C  
HETATM    9  O   UNL     1     -10.804  11.076  63.687  1.00  0.00    -0.319 OA 
BRANCH   7  10
HETATM   10  C   UNL     1     -10.167  12.803  67.402  1.00  0.00    -0.222 A  
HETATM   11  C   UNL     1     -11.455  13.238  67.740  1.00  0.00    -0.354 A  
HETATM   12  C   UNL     1     -11.723  14.602  67.853  1.00  0.00    -0.379 A  
HETATM   13  C   UNL     1     -10.709  15.533  67.633  1.00  0.00    -0.302 A  
HETATM   14  C   UNL     1      -9.420  15.103  67.319  1.00  0.00    -0.214 A  
HETATM   15  C   UNL     1      -9.147  13.739  67.208  1.00  0.00    -0.232 A  
ENDBRANCH   7  10
ENDBRANCH   5   6
ENDBRANCH   4   5
ENDBRANCH   3   4
ENDBRANCH   2   3
TORSDOF 5
ENDMDL
MODEL      214
REMARK 921   NORMALIZED FREE ENERGY PREDICTED BY IDOCK:   -2.66 KCAL/MOL
REMARK 922        TOTAL FREE ENERGY PREDICTED BY IDOCK:   -3.87 KCAL/MOL
REMARK 923 INTER-LIGAND FREE ENERGY PREDICTED BY IDOCK:   -3.17 KCAL/MOL
REMARK 924 INTRA-LIGAND FREE ENERGY PREDICTED BY IDOCK:   -0.70 KCAL/MOL
REMARK 927      BINDING AFFINITY PREDICTED BY RF-SCORE:    0.00 PKD
ROOT
HETATM    1  C   UNL     1      -6.232   9.899  64.622  1.00  0.00    -0.112 C  
HETATM    2  C   UNL     1      -6.254  10.598  65.971  1.00  0.00    -0.134 C  
ENDROOT
BRANCH   2   3
HETATM    3  C   UNL     1      -6.961   9.761  67.040  1.00  0.00    -0.085 C  
BRANCH   3   4
HETATM    4  C   UNL     1      -8.118   8.972  66.420  1.00  0.00    -0.110 C  
BRANCH   4   5
HETATM    5  C   UNL     1      -9.479   9.225  67.085  1.00  0.00    -0.191 C  
BRANCH   5   6
HETATM    6  C   UNL     1      -9.766  10.662  67.438  1.00  0.00    -0.192 C  
HETATM    7  C   UNL     1      -9.783  11.645  66.516  1.00  0.00    -0.227 C  
HETATM    8  C   UNL     1      -9.985  10.967  68.884  1.00  0.00    -0.188 C  
HETATM    9  O   UNL     1      -9.775  10.149  69.770  1.00  0.00    -0.230 OA 
BRANCH   7  10
HETATM   10  C   UNL     1     -10.006  13.057  66.823  1.00  0.00    -0.245 A  
HETATM   11  C   UNL     1     -11.310  13.561  66.901  1.00  0.00    -0.350 A  
HETATM   12  C   UNL     1     -11.520  14.931  67.058  1.00  0.00    -0.333 A  
HETATM   13  C   UNL     1     -10.432  15.798  67.141  1.00  0.00    -0.309 A  
HETATM   14  C   UNL     1      -9.132  15.297  67.087  1.00  0.00    -0.226 A  
HETATM   15  C   UNL     1      -8.918  13.928  66.933  1.00  0.00    -0.236 A  
ENDBRANCH   7  10
ENDBRANCH   5   6
ENDBRANCH   4   5
ENDBRANCH   3   4
ENDBRANCH   2   3
TORSDOF 5
ENDMDL
MODEL      215
REMARK 921   NORMALIZED FREE ENERGY PREDICTED BY IDOCK:   -2.65 KCAL/MOL
REMARK 922        TOTAL FREE ENERGY PREDICTED BY IDOCK:   -3.86 KCAL/MOL
REMARK 923 INTER-LIGAND FREE ENERGY PREDICTED BY IDOCK:   -3.38 KCAL/MOL
REMARK 924 INTRA-LIGAND FREE ENERGY PREDICTED BY IDOCK:   -0.48 KCAL/MOL
REMARK 927      BINDING AFFINITY PREDICTED BY RF-SCORE:    0.00 PKD
ROOT
HETATM    1  C   UNL     1      -7.201   7.167  67.798  1.00  0.00    -0.091 C  
HETATM    2  C   UNL     1      -7.215   7.887  66.460  1.00  0.00    -0.083 C  
ENDROOT
BRANCH   2   3
HETATM    3  C   UNL     1      -6.721   9.331  66.579  1.00  0.00    -0.072 C  
BRANCH   3   4
HETATM    4  C   UNL     1      -7.622  10.272  65.776  1.00  0.00    -0.143 C  
BRANCH   4   5
HETATM    5  C   UNL     1      -8.441  11.245  66.636  1.00  0.00    -0.168 C  
BRANCH   5   6
HETATM    6  C   UNL     1      -9.422  10.600  67.581  1.00  0.00    -0.167 C  
HETATM    7  C   UNL     1      -9.340  10.744  68.919  1.00  0.00    -0.183 C  
HETATM    8  C   UNL     1     -10.477   9.739  66.968  1.00  0.00    -0.227 C  
HETATM    9  O   UNL     1     -10.463   9.418  65.787  1.00  0.00    -0.007 OA 
BRANCH   7  10
HETATM   10  C   UNL     1     -10.239  10.093  69.872  1.00  0.00    -0.284 A  
HETATM   11  C   UNL     1     -11.500  10.644  70.134  1.00  0.00    -0.411 A  
HETATM   12  C   UNL     1     -12.301  10.104  71.141  1.00  0.00    -0.488 A  
HETATM   13  C   UNL     1     -11.848   9.014  71.883  1.00  0.00    -0.447 A  
HETATM   14  C   UNL     1     -10.603   8.449  71.609  1.00  0.00    -0.327 A  
HETATM   15  C   UNL     1      -9.800   8.984  70.601  1.00  0.00    -0.284 A  
ENDBRANCH   7  10
ENDBRANCH   5   6
ENDBRANCH   4   5
ENDBRANCH   3   4
ENDBRANCH   2   3
TORSDOF 5
ENDMDL
MODEL      216
REMARK 921   NORMALIZED FREE ENERGY PREDICTED BY IDOCK:   -2.64 KCAL/MOL
REMARK 922        TOTAL FREE ENERGY PREDICTED BY IDOCK:   -3.84 KCAL/MOL
REMARK 923 INTER-LIGAND FREE ENERGY PREDICTED BY IDOCK:   -3.63 KCAL/MOL
REMARK 924 INTRA-LIGAND FREE ENERGY PREDICTED BY IDOCK:   -0.21 KCAL/MOL
REMARK 927      BINDING AFFINITY PREDICTED BY RF-SCORE:    0.00 PKD
ROOT
HETATM    1  C   UNL     1     -11.294  15.235  66.522  1.00  0.00    -0.168 C  
HETATM    2  C   UNL     1     -11.627  13.830  66.049  1.00  0.00    -0.361 C  
ENDROOT
BRANCH   2   3
HETATM    3  C   UNL     1     -10.700  12.781  66.669  1.00  0.00    -0.279 C  
BRANCH   3   4
HETATM    4  C   UNL     1     -11.512  11.592  67.190  1.00  0.00    -0.344 C  
BRANCH   4   5
HETATM    5  C   UNL     1     -10.857  10.226  66.942  1.00  0.00    -0.205 C  
BRANCH   5   6
HETATM    6  C   UNL     1     -10.267   9.564  68.161  1.00  0.00    -0.231 C  
HETATM    7  C   UNL     1     -10.476  10.028  69.409  1.00  0.00    -0.252 C  
HETATM    8  C   UNL     1      -9.386   8.381  67.922  1.00  0.00    -0.135 C  
HETATM    9  O   UNL     1      -9.007   8.056  66.805  1.00  0.00    -0.131 OA 
BRANCH   7  10
HETATM   10  C   UNL     1      -9.881   9.446  70.612  1.00  0.00    -0.340 A  
HETATM   11  C   UNL     1      -8.496   9.507  70.810  1.00  0.00    -0.085 A  
HETATM   12  C   UNL     1      -7.915   8.835  71.885  1.00  0.00    -0.079 A  
HETATM   13  C   UNL     1      -8.713   8.106  72.766  1.00  0.00    -0.281 A  
HETATM   14  C   UNL     1     -10.095   8.062  72.585  1.00  0.00    -0.370 A  
HETATM   15  C   UNL     1     -10.680   8.735  71.512  1.00  0.00    -0.371 A  
ENDBRANCH   7  10
ENDBRANCH   5   6
ENDBRANCH   4   5
ENDBRANCH   3   4
ENDBRANCH   2   3
TORSDOF 5
ENDMDL
MODEL      217
REMARK 921   NORMALIZED FREE ENERGY PREDICTED BY IDOCK:   -2.62 KCAL/MOL
REMARK 922        TOTAL FREE ENERGY PREDICTED BY IDOCK:   -3.81 KCAL/MOL
REMARK 923 INTER-LIGAND FREE ENERGY PREDICTED BY IDOCK:   -3.23 KCAL/MOL
REMARK 924 INTRA-LIGAND FREE ENERGY PREDICTED BY IDOCK:   -0.58 KCAL/MOL
REMARK 927      BINDING AFFINITY PREDICTED BY RF-SCORE:    0.00 PKD
ROOT
HETATM    1  C   UNL     1      -6.482  10.250  65.887  1.00  0.00    -0.111 C  
HETATM    2  C   UNL     1      -6.260  11.369  66.890  1.00  0.00    -0.135 C  
ENDROOT
BRANCH   2   3
HETATM    3  C   UNL     1      -6.982  11.106  68.214  1.00  0.00    -0.070 C  
BRANCH   3   4
HETATM    4  C   UNL     1      -8.293  10.355  67.967  1.00  0.00    -0.118 C  
BRANCH   4   5
HETATM    5  C   UNL     1      -9.545  11.101  68.451  1.00  0.00    -0.192 C  
BRANCH   5   6
HETATM    6  C   UNL     1      -9.810  12.421  67.773  1.00  0.00    -0.203 C  
HETATM    7  C   UNL     1      -9.343  13.589  68.256  1.00  0.00    -0.205 C  
HETATM    8  C   UNL     1     -10.670  12.388  66.552  1.00  0.00    -0.236 C  
HETATM    9  O   UNL     1     -11.280  11.386  66.201  1.00  0.00    -0.254 OA 
BRANCH   7  10
HETATM   10  C   UNL     1      -9.621  14.896  67.660  1.00  0.00    -0.200 A  
HETATM   11  C   UNL     1      -8.799  15.389  66.638  1.00  0.00    -0.330 A  
HETATM   12  C   UNL     1      -8.981  16.688  66.165  1.00  0.00    -0.321 A  
HETATM   13  C   UNL     1      -9.980  17.495  66.706  1.00  0.00    -0.313 A  
HETATM   14  C   UNL     1     -10.814  16.999  67.707  1.00  0.00    -0.269 A  
HETATM   15  C   UNL     1     -10.639  15.699  68.181  1.00  0.00    -0.274 A  
ENDBRANCH   7  10
ENDBRANCH   5   6
ENDBRANCH   4   5
ENDBRANCH   3   4
ENDBRANCH   2   3
TORSDOF 5
ENDMDL
MODEL      218
REMARK 921   NORMALIZED FREE ENERGY PREDICTED BY IDOCK:   -2.61 KCAL/MOL
REMARK 922        TOTAL FREE ENERGY PREDICTED BY IDOCK:   -3.81 KCAL/MOL
REMARK 923 INTER-LIGAND FREE ENERGY PREDICTED BY IDOCK:   -3.39 KCAL/MOL
REMARK 924 INTRA-LIGAND FREE ENERGY PREDICTED BY IDOCK:   -0.41 KCAL/MOL
REMARK 927      BINDING AFFINITY PREDICTED BY RF-SCORE:    0.00 PKD
ROOT
HETATM    1  C   UNL     1      -7.663   8.328  64.300  1.00  0.00    -0.134 C  
HETATM    2  C   UNL     1      -8.460   7.957  65.539  1.00  0.00    -0.153 C  
ENDROOT
BRANCH   2   3
HETATM    3  C   UNL     1      -9.518   9.010  65.878  1.00  0.00    -0.317 C  
BRANCH   3   4
HETATM    4  C   UNL     1      -9.088  10.385  65.359  1.00  0.00    -0.221 C  
BRANCH   4   5
HETATM    5  C   UNL     1      -8.114  11.129  66.285  1.00  0.00    -0.142 C  
BRANCH   5   6
HETATM    6  C   UNL     1      -8.756  11.894  67.415  1.00  0.00    -0.166 C  
HETATM    7  C   UNL     1     -10.008  12.387  67.336  1.00  0.00    -0.203 C  
HETATM    8  C   UNL     1      -7.915  12.131  68.627  1.00  0.00    -0.063 C  
HETATM    9  O   UNL     1      -6.717  11.883  68.657  1.00  0.00    -0.063 OA 
BRANCH   7  10
HETATM   10  C   UNL     1     -10.647  13.177  68.387  1.00  0.00    -0.264 A  
HETATM   11  C   UNL     1     -11.420  12.544  69.369  1.00  0.00    -0.327 A  
HETATM   12  C   UNL     1     -12.140  13.307  70.288  1.00  0.00    -0.405 A  
HETATM   13  C   UNL     1     -12.088  14.699  70.233  1.00  0.00    -0.380 A  
HETATM   14  C   UNL     1     -11.301  15.332  69.271  1.00  0.00    -0.308 A  
HETATM   15  C   UNL     1     -10.577  14.573  68.351  1.00  0.00    -0.244 A  
ENDBRANCH   7  10
ENDBRANCH   5   6
ENDBRANCH   4   5
ENDBRANCH   3   4
ENDBRANCH   2   3
TORSDOF 5
ENDMDL
MODEL      219
REMARK 921   NORMALIZED FREE ENERGY PREDICTED BY IDOCK:   -2.59 KCAL/MOL
REMARK 922        TOTAL FREE ENERGY PREDICTED BY IDOCK:   -3.78 KCAL/MOL
REMARK 923 INTER-LIGAND FREE ENERGY PREDICTED BY IDOCK:   -3.42 KCAL/MOL
REMARK 924 INTRA-LIGAND FREE ENERGY PREDICTED BY IDOCK:   -0.36 KCAL/MOL
REMARK 927      BINDING AFFINITY PREDICTED BY RF-SCORE:    0.00 PKD
ROOT
HETATM    1  C   UNL     1      -8.860   2.251  70.189  1.00  0.00    -0.137 C  
HETATM    2  C   UNL     1      -9.711   3.081  71.135  1.00  0.00    -0.192 C  
ENDROOT
BRANCH   2   3
HETATM    3  C   UNL     1      -8.961   4.312  71.652  1.00  0.00    -0.158 C  
BRANCH   3   4
HETATM    4  C   UNL     1      -9.624   4.845  72.925  1.00  0.00    -0.159 C  
BRANCH   4   5
HETATM    5  C   UNL     1      -9.662   6.377  73.020  1.00  0.00    -0.162 C  
BRANCH   5   6
HETATM    6  C   UNL     1     -10.148   7.087  71.782  1.00  0.00    -0.198 C  
HETATM    7  C   UNL     1      -9.360   7.913  71.065  1.00  0.00    -0.167 C  
HETATM    8  C   UNL     1     -11.578   6.875  71.404  1.00  0.00    -0.299 C  
HETATM    9  O   UNL     1     -12.375   6.305  72.136  1.00  0.00    -0.315 OA 
BRANCH   7  10
HETATM   10  C   UNL     1      -9.807   8.661  69.890  1.00  0.00    -0.185 A  
HETATM   11  C   UNL     1     -10.308   9.961  70.034  1.00  0.00    -0.320 A  
HETATM   12  C   UNL     1     -10.860  10.621  68.937  1.00  0.00    -0.272 A  
HETATM   13  C   UNL     1     -10.911   9.989  67.695  1.00  0.00    -0.336 A  
HETATM   14  C   UNL     1     -10.392   8.703  67.543  1.00  0.00    -0.336 A  
HETATM   15  C   UNL     1      -9.836   8.041  68.637  1.00  0.00    -0.182 A  
ENDBRANCH   7  10
ENDBRANCH   5   6
ENDBRANCH   4   5
ENDBRANCH   3   4
ENDBRANCH   2   3
TORSDOF 5
ENDMDL
MODEL      220
REMARK 921   NORMALIZED FREE ENERGY PREDICTED BY IDOCK:   -2.58 KCAL/MOL
REMARK 922        TOTAL FREE ENERGY PREDICTED BY IDOCK:   -3.77 KCAL/MOL
REMARK 923 INTER-LIGAND FREE ENERGY PREDICTED BY IDOCK:   -3.57 KCAL/MOL
REMARK 924 INTRA-LIGAND FREE ENERGY PREDICTED BY IDOCK:   -0.20 KCAL/MOL
REMARK 927      BINDING AFFINITY PREDICTED BY RF-SCORE:    0.00 PKD
ROOT
HETATM    1  C   UNL     1     -12.737  12.660  70.974  1.00  0.00    -0.316 C  
HETATM    2  C   UNL     1     -12.412  14.092  71.365  1.00  0.00    -0.438 C  
ENDROOT
BRANCH   2   3
HETATM    3  C   UNL     1     -11.278  14.676  70.518  1.00  0.00    -0.144 C  
BRANCH   3   4
HETATM    4  C   UNL     1     -11.847  15.482  69.347  1.00  0.00    -0.392 C  
BRANCH   4   5
HETATM    5  C   UNL     1     -12.149  14.646  68.096  1.00  0.00    -0.199 C  
BRANCH   5   6
HETATM    6  C   UNL     1     -10.946  14.029  67.428  1.00  0.00    -0.302 C  
HETATM    7  C   UNL     1     -10.091  13.218  68.081  1.00  0.00    -0.241 C  
HETATM    8  C   UNL     1     -10.707  14.401  66.000  1.00  0.00    -0.302 C  
HETATM    9  O   UNL     1     -11.335  15.287  65.436  1.00  0.00    -0.326 OA 
BRANCH   7  10
HETATM   10  C   UNL     1      -8.886  12.643  67.486  1.00  0.00    -0.186 A  
HETATM   11  C   UNL     1      -8.976  11.493  66.691  1.00  0.00    -0.185 A  
HETATM   12  C   UNL     1      -7.816  10.866  66.237  1.00  0.00    -0.158 A  
HETATM   13  C   UNL     1      -6.566  11.386  66.570  1.00  0.00    -0.071 A  
HETATM   14  C   UNL     1      -6.473  12.544  67.342  1.00  0.00    -0.153 A  
HETATM   15  C   UNL     1      -7.631  13.175  67.796  1.00  0.00    -0.155 A  
ENDBRANCH   7  10
ENDBRANCH   5   6
ENDBRANCH   4   5
ENDBRANCH   3   4
ENDBRANCH   2   3
TORSDOF 5
ENDMDL
MODEL      221
REMARK 921   NORMALIZED FREE ENERGY PREDICTED BY IDOCK:   -2.58 KCAL/MOL
REMARK 922        TOTAL FREE ENERGY PREDICTED BY IDOCK:   -3.76 KCAL/MOL
REMARK 923 INTER-LIGAND FREE ENERGY PREDICTED BY IDOCK:   -3.29 KCAL/MOL
REMARK 924 INTRA-LIGAND FREE ENERGY PREDICTED BY IDOCK:   -0.47 KCAL/MOL
REMARK 927      BINDING AFFINITY PREDICTED BY RF-SCORE:    0.00 PKD
ROOT
HETATM    1  C   UNL     1      -9.111   4.719  65.781  1.00  0.00    -0.142 C  
HETATM    2  C   UNL     1     -10.011   4.891  66.993  1.00  0.00    -0.238 C  
ENDROOT
BRANCH   2   3
HETATM    3  C   UNL     1     -10.823   6.187  66.926  1.00  0.00    -0.411 C  
BRANCH   3   4
HETATM    4  C   UNL     1     -10.543   7.056  68.156  1.00  0.00    -0.250 C  
BRANCH   4   5
HETATM    5  C   UNL     1     -11.462   6.767  69.351  1.00  0.00    -0.208 C  
BRANCH   5   6
HETATM    6  C   UNL     1     -10.824   6.927  70.708  1.00  0.00    -0.279 C  
HETATM    7  C   UNL     1      -9.492   6.849  70.895  1.00  0.00    -0.157 C  
HETATM    8  C   UNL     1     -11.748   7.129  71.864  1.00  0.00    -0.292 C  
HETATM    9  O   UNL     1     -12.962   7.000  71.769  1.00  0.00    -0.359 OA 
BRANCH   7  10
HETATM   10  C   UNL     1      -8.838   6.946  72.200  1.00  0.00    -0.136 A  
HETATM   11  C   UNL     1      -8.473   8.198  72.710  1.00  0.00    -0.250 A  
HETATM   12  C   UNL     1      -7.729   8.282  73.887  1.00  0.00    -0.228 A  
HETATM   13  C   UNL     1      -7.352   7.119  74.557  1.00  0.00    -0.124 A  
HETATM   14  C   UNL     1      -7.733   5.872  74.064  1.00  0.00    -0.098 A  
HETATM   15  C   UNL     1      -8.479   5.784  72.889  1.00  0.00    -0.122 A  
ENDBRANCH   7  10
ENDBRANCH   5   6
ENDBRANCH   4   5
ENDBRANCH   3   4
ENDBRANCH   2   3
TORSDOF 5
ENDMDL
MODEL      222
REMARK 921   NORMALIZED FREE ENERGY PREDICTED BY IDOCK:   -2.57 KCAL/MOL
REMARK 922        TOTAL FREE ENERGY PREDICTED BY IDOCK:   -3.76 KCAL/MOL
REMARK 923 INTER-LIGAND FREE ENERGY PREDICTED BY IDOCK:   -3.43 KCAL/MOL
REMARK 924 INTRA-LIGAND FREE ENERGY PREDICTED BY IDOCK:   -0.33 KCAL/MOL
REMARK 927      BINDING AFFINITY PREDICTED BY RF-SCORE:    0.00 PKD
ROOT
HETATM    1  C   UNL     1      -6.122  11.007  66.253  1.00  0.00    -0.136 C  
HETATM    2  C   UNL     1      -7.139  10.152  65.516  1.00  0.00    -0.138 C  
ENDROOT
BRANCH   2   3
HETATM    3  C   UNL     1      -7.700   9.036  66.402  1.00  0.00    -0.099 C  
BRANCH   3   4
HETATM    4  C   UNL     1      -9.143   8.715  66.005  1.00  0.00    -0.255 C  
BRANCH   4   5
HETATM    5  C   UNL     1      -9.604   7.304  66.399  1.00  0.00    -0.169 C  
BRANCH   5   6
HETATM    6  C   UNL     1      -9.922   7.115  67.861  1.00  0.00    -0.186 C  
HETATM    7  C   UNL     1     -10.523   8.068  68.600  1.00  0.00    -0.196 C  
HETATM    8  C   UNL     1      -9.490   5.826  68.480  1.00  0.00    -0.123 C  
HETATM    9  O   UNL     1      -8.764   5.028  67.903  1.00  0.00    -0.103 OA 
BRANCH   7  10
HETATM   10  C   UNL     1     -10.801   7.946  70.031  1.00  0.00    -0.238 A  
HETATM   11  C   UNL     1      -9.995   8.613  70.962  1.00  0.00    -0.272 A  
HETATM   12  C   UNL     1     -10.174   8.388  72.326  1.00  0.00    -0.396 A  
HETATM   13  C   UNL     1     -11.158   7.502  72.764  1.00  0.00    -0.416 A  
HETATM   14  C   UNL     1     -11.977   6.854  71.841  1.00  0.00    -0.363 A  
HETATM   15  C   UNL     1     -11.804   7.078  70.475  1.00  0.00    -0.337 A  
ENDBRANCH   7  10
ENDBRANCH   5   6
ENDBRANCH   4   5
ENDBRANCH   3   4
ENDBRANCH   2   3
TORSDOF 5
ENDMDL
MODEL      223
REMARK 921   NORMALIZED FREE ENERGY PREDICTED BY IDOCK:   -2.55 KCAL/MOL
REMARK 922        TOTAL FREE ENERGY PREDICTED BY IDOCK:   -3.73 KCAL/MOL
REMARK 923 INTER-LIGAND FREE ENERGY PREDICTED BY IDOCK:   -3.29 KCAL/MOL
REMARK 924 INTRA-LIGAND FREE ENERGY PREDICTED BY IDOCK:   -0.44 KCAL/MOL
REMARK 927      BINDING AFFINITY PREDICTED BY RF-SCORE:    0.00 PKD
ROOT
HETATM    1  C   UNL     1     -12.494  11.979  63.666  1.00  0.00    -0.637 C  
HETATM    2  C   UNL     1     -11.200  12.775  63.697  1.00  0.00    -0.482 C  
ENDROOT
BRANCH   2   3
HETATM    3  C   UNL     1     -10.604  12.846  65.105  1.00  0.00    -0.321 C  
BRANCH   3   4
HETATM    4  C   UNL     1      -9.767  11.597  65.394  1.00  0.00    -0.255 C  
BRANCH   4   5
HETATM    5  C   UNL     1     -10.393  10.645  66.423  1.00  0.00    -0.291 C  
BRANCH   5   6
HETATM    6  C   UNL     1      -9.668   9.337  66.616  1.00  0.00    -0.281 C  
HETATM    7  C   UNL     1      -8.906   8.783  65.652  1.00  0.00    -0.239 C  
HETATM    8  C   UNL     1      -9.872   8.643  67.923  1.00  0.00    -0.173 C  
HETATM    9  O   UNL     1     -10.711   9.005  68.737  1.00  0.00    -0.195 OA 
BRANCH   7  10
HETATM   10  C   UNL     1      -8.229   7.493  65.780  1.00  0.00    -0.137 A  
HETATM   11  C   UNL     1      -6.873   7.443  66.126  1.00  0.00    -0.057 A  
HETATM   12  C   UNL     1      -6.195   6.225  66.114  1.00  0.00    -0.037 A  
HETATM   13  C   UNL     1      -6.867   5.055  65.761  1.00  0.00    -0.061 A  
HETATM   14  C   UNL     1      -8.223   5.098  65.439  1.00  0.00    -0.124 A  
HETATM   15  C   UNL     1      -8.906   6.314  65.452  1.00  0.00     0.002 A  
ENDBRANCH   7  10
ENDBRANCH   5   6
ENDBRANCH   4   5
ENDBRANCH   3   4
ENDBRANCH   2   3
TORSDOF 5
ENDMDL
MODEL      224
REMARK 921   NORMALIZED FREE ENERGY PREDICTED BY IDOCK:   -2.51 KCAL/MOL
REMARK 922        TOTAL FREE ENERGY PREDICTED BY IDOCK:   -3.68 KCAL/MOL
REMARK 923 INTER-LIGAND FREE ENERGY PREDICTED BY IDOCK:   -4.13 KCAL/MOL
REMARK 924 INTRA-LIGAND FREE ENERGY PREDICTED BY IDOCK:    0.45 KCAL/MOL
REMARK 927      BINDING AFFINITY PREDICTED BY RF-SCORE:    0.00 PKD
ROOT
HETATM    1  C   UNL     1     -10.177  19.961  68.482  1.00  0.00    -0.529 C  
HETATM    2  C   UNL     1      -9.518  18.694  67.962  1.00  0.00    -0.344 C  
ENDROOT
BRANCH   2   3
HETATM    3  C   UNL     1      -9.979  18.349  66.544  1.00  0.00    -0.392 C  
BRANCH   3   4
HETATM    4  C   UNL     1     -10.477  16.902  66.482  1.00  0.00    -0.253 C  
BRANCH   4   5
HETATM    5  C   UNL     1      -9.356  15.853  66.431  1.00  0.00    -0.329 C  
BRANCH   5   6
HETATM    6  C   UNL     1      -9.668  14.544  67.110  1.00  0.00    -0.240 C  
HETATM    7  C   UNL     1      -9.254  13.358  66.620  1.00  0.00    -0.223 C  
HETATM    8  C   UNL     1     -10.512  14.610  68.341  1.00  0.00    -0.243 C  
HETATM    9  O   UNL     1     -11.076  15.635  68.699  1.00  0.00    -0.279 OA 
BRANCH   7  10
HETATM   10  C   UNL     1      -9.579  12.064  67.218  1.00  0.00    -0.185 A  
HETATM   11  C   UNL     1     -10.846  11.500  67.026  1.00  0.00    -0.320 A  
HETATM   12  C   UNL     1     -11.202  10.336  67.706  1.00  0.00    -0.262 A  
HETATM   13  C   UNL     1     -10.295   9.730  68.574  1.00  0.00    -0.228 A  
HETATM   14  C   UNL     1      -9.024  10.276  68.750  1.00  0.00    -0.155 A  
HETATM   15  C   UNL     1      -8.663  11.439  68.070  1.00  0.00    -0.148 A  
ENDBRANCH   7  10
ENDBRANCH   5   6
ENDBRANCH   4   5
ENDBRANCH   3   4
ENDBRANCH   2   3
TORSDOF 5
ENDMDL
MODEL      225
REMARK 921   NORMALIZED FREE ENERGY PREDICTED BY IDOCK:   -2.50 KCAL/MOL
REMARK 922        TOTAL FREE ENERGY PREDICTED BY IDOCK:   -3.67 KCAL/MOL
REMARK 923 INTER-LIGAND FREE ENERGY PREDICTED BY IDOCK:   -3.28 KCAL/MOL
REMARK 924 INTRA-LIGAND FREE ENERGY PREDICTED BY IDOCK:   -0.39 KCAL/MOL
REMARK 927      BINDING AFFINITY PREDICTED BY RF-SCORE:    0.00 PKD
ROOT
HETATM    1  C   UNL     1      -6.431   9.918  63.892  1.00  0.00    -0.126 C  
HETATM    2  C   UNL     1      -6.303   8.572  64.585  1.00  0.00    -0.065 C  
ENDROOT
BRANCH   2   3
HETATM    3  C   UNL     1      -7.067   8.534  65.911  1.00  0.00    -0.076 C  
BRANCH   3   4
HETATM    4  C   UNL     1      -7.762   7.182  66.088  1.00  0.00    -0.098 C  
BRANCH   4   5
HETATM    5  C   UNL     1      -7.960   6.763  67.552  1.00  0.00    -0.115 C  
BRANCH   5   6
HETATM    6  C   UNL     1      -9.188   7.327  68.223  1.00  0.00    -0.133 C  
HETATM    7  C   UNL     1      -9.126   8.324  69.127  1.00  0.00    -0.148 C  
HETATM    8  C   UNL     1     -10.494   6.689  67.876  1.00  0.00    -0.219 C  
HETATM    9  O   UNL     1     -10.571   5.656  67.225  1.00  0.00    -0.241 OA 
BRANCH   7  10
HETATM   10  C   UNL     1     -10.285   8.862  69.838  1.00  0.00    -0.209 A  
HETATM   11  C   UNL     1     -10.954   9.986  69.338  1.00  0.00    -0.280 A  
HETATM   12  C   UNL     1     -11.971  10.581  70.084  1.00  0.00    -0.398 A  
HETATM   13  C   UNL     1     -12.324  10.055  71.326  1.00  0.00    -0.496 A  
HETATM   14  C   UNL     1     -11.675   8.923  71.817  1.00  0.00    -0.432 A  
HETATM   15  C   UNL     1     -10.659   8.323  71.072  1.00  0.00    -0.243 A  
ENDBRANCH   7  10
ENDBRANCH   5   6
ENDBRANCH   4   5
ENDBRANCH   3   4
ENDBRANCH   2   3
TORSDOF 5
ENDMDL
MODEL      226
REMARK 921   NORMALIZED FREE ENERGY PREDICTED BY IDOCK:   -2.47 KCAL/MOL
REMARK 922        TOTAL FREE ENERGY PREDICTED BY IDOCK:   -3.62 KCAL/MOL
REMARK 923 INTER-LIGAND FREE ENERGY PREDICTED BY IDOCK:   -3.18 KCAL/MOL
REMARK 924 INTRA-LIGAND FREE ENERGY PREDICTED BY IDOCK:   -0.44 KCAL/MOL
REMARK 927      BINDING AFFINITY PREDICTED BY RF-SCORE:    0.00 PKD
ROOT
HETATM    1  C   UNL     1      -7.496   4.493  66.099  1.00  0.00    -0.085 C  
HETATM    2  C   UNL     1      -8.328   5.389  67.001  1.00  0.00    -0.107 C  
ENDROOT
BRANCH   2   3
HETATM    3  C   UNL     1      -8.299   6.849  66.544  1.00  0.00    -0.121 C  
BRANCH   3   4
HETATM    4  C   UNL     1      -7.242   7.633  67.328  1.00  0.00    -0.090 C  
BRANCH   4   5
HETATM    5  C   UNL     1      -7.734   8.983  67.869  1.00  0.00    -0.097 C  
BRANCH   5   6
HETATM    6  C   UNL     1      -8.703   8.900  69.021  1.00  0.00    -0.136 C  
HETATM    7  C   UNL     1     -10.037   8.842  68.842  1.00  0.00    -0.209 C  
HETATM    8  C   UNL     1      -8.117   8.938  70.395  1.00  0.00    -0.128 C  
HETATM    9  O   UNL     1      -6.939   9.197  70.603  1.00  0.00    -0.068 OA 
BRANCH   7  10
HETATM   10  C   UNL     1     -11.013   8.814  69.932  1.00  0.00    -0.184 A  
HETATM   11  C   UNL     1     -11.539  10.012  70.433  1.00  0.00    -0.379 A  
HETATM   12  C   UNL     1     -12.362   9.994  71.559  1.00  0.00    -0.513 A  
HETATM   13  C   UNL     1     -12.664   8.785  72.183  1.00  0.00    -0.461 A  
HETATM   14  C   UNL     1     -12.160   7.589  71.673  1.00  0.00    -0.341 A  
HETATM   15  C   UNL     1     -11.339   7.602  70.546  1.00  0.00    -0.266 A  
ENDBRANCH   7  10
ENDBRANCH   5   6
ENDBRANCH   4   5
ENDBRANCH   3   4
ENDBRANCH   2   3
TORSDOF 5
ENDMDL
MODEL      227
REMARK 921   NORMALIZED FREE ENERGY PREDICTED BY IDOCK:   -2.35 KCAL/MOL
REMARK 922        TOTAL FREE ENERGY PREDICTED BY IDOCK:   -3.47 KCAL/MOL
REMARK 923 INTER-LIGAND FREE ENERGY PREDICTED BY IDOCK:   -3.79 KCAL/MOL
REMARK 924 INTRA-LIGAND FREE ENERGY PREDICTED BY IDOCK:    0.32 KCAL/MOL
REMARK 927      BINDING AFFINITY PREDICTED BY RF-SCORE:    0.00 PKD
ROOT
HETATM    1  C   UNL     1      -7.977   3.148  67.438  1.00  0.00    -0.077 C  
HETATM    2  C   UNL     1      -7.850   3.536  68.902  1.00  0.00    -0.052 C  
ENDROOT
BRANCH   2   3
HETATM    3  C   UNL     1      -9.177   4.034  69.481  1.00  0.00    -0.220 C  
BRANCH   3   4
HETATM    4  C   UNL     1      -9.032   4.323  70.977  1.00  0.00    -0.167 C  
BRANCH   4   5
HETATM    5  C   UNL     1      -8.403   5.686  71.297  1.00  0.00    -0.127 C  
BRANCH   5   6
HETATM    6  C   UNL     1      -9.328   6.869  71.166  1.00  0.00    -0.162 C  
HETATM    7  C   UNL     1     -10.407   7.035  71.956  1.00  0.00    -0.220 C  
HETATM    8  C   UNL     1      -9.025   7.841  70.072  1.00  0.00    -0.142 C  
HETATM    9  O   UNL     1      -8.185   7.621  69.209  1.00  0.00    -0.128 OA 
BRANCH   7  10
HETATM   10  C   UNL     1     -11.358   8.139  71.827  1.00  0.00    -0.333 A  
HETATM   11  C   UNL     1     -10.934   9.375  71.322  1.00  0.00    -0.440 A  
HETATM   12  C   UNL     1     -11.804  10.465  71.327  1.00  0.00    -0.381 A  
HETATM   13  C   UNL     1     -13.095  10.325  71.832  1.00  0.00    -0.568 A  
HETATM   14  C   UNL     1     -13.528   9.091  72.315  1.00  0.00    -0.529 A  
HETATM   15  C   UNL     1     -12.663   7.997  72.309  1.00  0.00    -0.242 A  
ENDBRANCH   7  10
ENDBRANCH   5   6
ENDBRANCH   4   5
ENDBRANCH   3   4
ENDBRANCH   2   3
TORSDOF 5
ENDMDL
MODEL      228
REMARK 921   NORMALIZED FREE ENERGY PREDICTED BY IDOCK:   -2.33 KCAL/MOL
REMARK 922        TOTAL FREE ENERGY PREDICTED BY IDOCK:   -3.44 KCAL/MOL
REMARK 923 INTER-LIGAND FREE ENERGY PREDICTED BY IDOCK:   -2.68 KCAL/MOL
REMARK 924 INTRA-LIGAND FREE ENERGY PREDICTED BY IDOCK:   -0.77 KCAL/MOL
REMARK 927      BINDING AFFINITY PREDICTED BY RF-SCORE:    0.00 PKD
ROOT
HETATM    1  C   UNL     1     -11.633   6.605  72.168  1.00  0.00    -0.335 C  
HETATM    2  C   UNL     1     -11.963   5.279  72.833  1.00  0.00    -0.068 C  
ENDROOT
BRANCH   2   3
HETATM    3  C   UNL     1     -10.702   4.488  73.191  1.00  0.00    -0.308 C  
BRANCH   3   4
HETATM    4  C   UNL     1      -9.452   5.338  72.951  1.00  0.00    -0.157 C  
BRANCH   4   5
HETATM    5  C   UNL     1      -8.534   4.808  71.840  1.00  0.00    -0.120 C  
BRANCH   5   6
HETATM    6  C   UNL     1      -8.883   5.260  70.445  1.00  0.00    -0.146 C  
HETATM    7  C   UNL     1      -8.707   6.531  70.031  1.00  0.00    -0.140 C  
HETATM    8  C   UNL     1      -9.490   4.238  69.540  1.00  0.00    -0.187 C  
HETATM    9  O   UNL     1      -9.855   3.139  69.937  1.00  0.00    -0.052 OA 
BRANCH   7  10
HETATM   10  C   UNL     1      -9.081   7.022  68.705  1.00  0.00    -0.132 A  
HETATM   11  C   UNL     1      -8.170   6.938  67.644  1.00  0.00    -0.117 A  
HETATM   12  C   UNL     1      -8.474   7.529  66.417  1.00  0.00    -0.131 A  
HETATM   13  C   UNL     1      -9.684   8.199  66.246  1.00  0.00    -0.223 A  
HETATM   14  C   UNL     1     -10.602   8.264  67.293  1.00  0.00    -0.335 A  
HETATM   15  C   UNL     1     -10.304   7.673  68.520  1.00  0.00    -0.225 A  
ENDBRANCH   7  10
ENDBRANCH   5   6
ENDBRANCH   4   5
ENDBRANCH   3   4
ENDBRANCH   2   3
TORSDOF 5
ENDMDL
MODEL      229
REMARK 921   NORMALIZED FREE ENERGY PREDICTED BY IDOCK:   -2.33 KCAL/MOL
REMARK 922        TOTAL FREE ENERGY PREDICTED BY IDOCK:   -3.44 KCAL/MOL
REMARK 923 INTER-LIGAND FREE ENERGY PREDICTED BY IDOCK:   -3.95 KCAL/MOL
REMARK 924 INTRA-LIGAND FREE ENERGY PREDICTED BY IDOCK:    0.51 KCAL/MOL
REMARK 927      BINDING AFFINITY PREDICTED BY RF-SCORE:    0.00 PKD
ROOT
HETATM    1  C   UNL     1     -10.140  11.027  63.237  1.00  0.00    -0.400 C  
HETATM    2  C   UNL     1      -9.841  11.458  64.663  1.00  0.00    -0.302 C  
ENDROOT
BRANCH   2   3
HETATM    3  C   UNL     1     -10.407  10.474  65.691  1.00  0.00    -0.274 C  
BRANCH   3   4
HETATM    4  C   UNL     1      -9.301   9.994  66.635  1.00  0.00    -0.202 C  
BRANCH   4   5
HETATM    5  C   UNL     1      -9.570  10.286  68.118  1.00  0.00    -0.151 C  
BRANCH   5   6
HETATM    6  C   UNL     1     -10.185  11.631  68.409  1.00  0.00    -0.211 C  
HETATM    7  C   UNL     1      -9.555  12.790  68.133  1.00  0.00    -0.223 C  
HETATM    8  C   UNL     1     -11.523  11.627  69.074  1.00  0.00    -0.294 C  
HETATM    9  O   UNL     1     -12.033  10.610  69.525  1.00  0.00    -0.288 OA 
BRANCH   7  10
HETATM   10  C   UNL     1     -10.094  14.113  68.447  1.00  0.00    -0.238 A  
HETATM   11  C   UNL     1     -11.238  14.234  69.246  1.00  0.00    -0.309 A  
HETATM   12  C   UNL     1     -11.830  15.483  69.432  1.00  0.00    -0.392 A  
HETATM   13  C   UNL     1     -11.282  16.612  68.826  1.00  0.00    -0.217 A  
HETATM   14  C   UNL     1     -10.129  16.499  68.048  1.00  0.00    -0.255 A  
HETATM   15  C   UNL     1      -9.532  15.252  67.862  1.00  0.00    -0.197 A  
ENDBRANCH   7  10
ENDBRANCH   5   6
ENDBRANCH   4   5
ENDBRANCH   3   4
ENDBRANCH   2   3
TORSDOF 5
ENDMDL
MODEL      230
REMARK 921   NORMALIZED FREE ENERGY PREDICTED BY IDOCK:   -2.30 KCAL/MOL
REMARK 922        TOTAL FREE ENERGY PREDICTED BY IDOCK:   -3.41 KCAL/MOL
REMARK 923 INTER-LIGAND FREE ENERGY PREDICTED BY IDOCK:   -3.55 KCAL/MOL
REMARK 924 INTRA-LIGAND FREE ENERGY PREDICTED BY IDOCK:    0.14 KCAL/MOL
REMARK 927      BINDING AFFINITY PREDICTED BY RF-SCORE:    0.00 PKD
ROOT
HETATM    1  C   UNL     1     -13.074  12.297  71.917  1.00  0.00    -0.469 C  
HETATM    2  C   UNL     1     -12.848  10.802  71.772  1.00  0.00    -0.528 C  
ENDROOT
BRANCH   2   3
HETATM    3  C   UNL     1     -11.940  10.471  70.585  1.00  0.00    -0.455 C  
BRANCH   3   4
HETATM    4  C   UNL     1     -10.959   9.355  70.958  1.00  0.00    -0.409 C  
BRANCH   4   5
HETATM    5  C   UNL     1      -9.691   9.318  70.094  1.00  0.00    -0.252 C  
BRANCH   5   6
HETATM    6  C   UNL     1      -9.572   8.130  69.174  1.00  0.00    -0.157 C  
HETATM    7  C   UNL     1      -8.880   7.022  69.508  1.00  0.00    -0.133 C  
HETATM    8  C   UNL     1     -10.220   8.251  67.834  1.00  0.00    -0.220 C  
HETATM    9  O   UNL     1     -10.676   9.307  67.415  1.00  0.00    -0.279 OA 
BRANCH   7  10
HETATM   10  C   UNL     1      -8.696   5.871  68.626  1.00  0.00    -0.109 A  
HETATM   11  C   UNL     1      -8.787   4.571  69.140  1.00  0.00    -0.127 A  
HETATM   12  C   UNL     1      -8.478   3.478  68.331  1.00  0.00    -0.107 A  
HETATM   13  C   UNL     1      -8.082   3.678  67.010  1.00  0.00    -0.091 A  
HETATM   14  C   UNL     1      -8.013   4.969  66.487  1.00  0.00    -0.107 A  
HETATM   15  C   UNL     1      -8.325   6.065  67.292  1.00  0.00    -0.105 A  
ENDBRANCH   7  10
ENDBRANCH   5   6
ENDBRANCH   4   5
ENDBRANCH   3   4
ENDBRANCH   2   3
TORSDOF 5
ENDMDL
MODEL      231
REMARK 921   NORMALIZED FREE ENERGY PREDICTED BY IDOCK:   -2.30 KCAL/MOL
REMARK 922        TOTAL FREE ENERGY PREDICTED BY IDOCK:   -3.40 KCAL/MOL
REMARK 923 INTER-LIGAND FREE ENERGY PREDICTED BY IDOCK:   -3.67 KCAL/MOL
REMARK 924 INTRA-LIGAND FREE ENERGY PREDICTED BY IDOCK:    0.27 KCAL/MOL
REMARK 927      BINDING AFFINITY PREDICTED BY RF-SCORE:    0.00 PKD
ROOT
HETATM    1  C   UNL     1     -11.104  11.628  67.514  1.00  0.00    -0.333 C  
HETATM    2  C   UNL     1     -11.312  10.365  68.333  1.00  0.00    -0.292 C  
ENDROOT
BRANCH   2   3
HETATM    3  C   UNL     1     -11.545  10.673  69.814  1.00  0.00    -0.385 C  
BRANCH   3   4
HETATM    4  C   UNL     1     -11.513   9.384  70.639  1.00  0.00    -0.344 C  
BRANCH   4   5
HETATM    5  C   UNL     1     -10.149   9.077  71.273  1.00  0.00    -0.384 C  
BRANCH   5   6
HETATM    6  C   UNL     1      -9.878   7.619  71.546  1.00  0.00    -0.192 C  
HETATM    7  C   UNL     1     -10.369   6.981  72.627  1.00  0.00    -0.235 C  
HETATM    8  C   UNL     1      -8.986   6.910  70.579  1.00  0.00    -0.155 C  
HETATM    9  O   UNL     1      -8.359   7.498  69.708  1.00  0.00    -0.130 OA 
BRANCH   7  10
HETATM   10  C   UNL     1     -10.088   5.584  72.955  1.00  0.00    -0.204 A  
HETATM   11  C   UNL     1     -11.081   4.787  73.538  1.00  0.00    -0.412 A  
HETATM   12  C   UNL     1     -10.772   3.499  73.976  1.00  0.00    -0.280 A  
HETATM   13  C   UNL     1      -9.478   3.003  73.830  1.00  0.00    -0.112 A  
HETATM   14  C   UNL     1      -8.492   3.786  73.229  1.00  0.00    -0.087 A  
HETATM   15  C   UNL     1      -8.797   5.074  72.787  1.00  0.00    -0.122 A  
ENDBRANCH   7  10
ENDBRANCH   5   6
ENDBRANCH   4   5
ENDBRANCH   3   4
ENDBRANCH   2   3
TORSDOF 5
ENDMDL
MODEL      232
REMARK 921   NORMALIZED FREE ENERGY PREDICTED BY IDOCK:   -2.23 KCAL/MOL
REMARK 922        TOTAL FREE ENERGY PREDICTED BY IDOCK:   -3.31 KCAL/MOL
REMARK 923 INTER-LIGAND FREE ENERGY PREDICTED BY IDOCK:   -3.28 KCAL/MOL
REMARK 924 INTRA-LIGAND FREE ENERGY PREDICTED BY IDOCK:   -0.03 KCAL/MOL
REMARK 927      BINDING AFFINITY PREDICTED BY RF-SCORE:    0.00 PKD
ROOT
HETATM    1  C   UNL     1     -11.419  15.497  64.767  1.00  0.00    -0.314 C  
HETATM    2  C   UNL     1     -11.048  16.917  65.160  1.00  0.00     0.019 C  
ENDROOT
BRANCH   2   3
HETATM    3  C   UNL     1      -9.685  16.983  65.854  1.00  0.00    -0.170 C  
BRANCH   3   4
HETATM    4  C   UNL     1      -9.611  15.952  66.983  1.00  0.00    -0.232 C  
BRANCH   4   5
HETATM    5  C   UNL     1      -8.717  14.743  66.673  1.00  0.00    -0.229 C  
BRANCH   5   6
HETATM    6  C   UNL     1      -9.066  13.477  67.413  1.00  0.00    -0.219 C  
HETATM    7  C   UNL     1     -10.307  13.226  67.874  1.00  0.00    -0.239 C  
HETATM    8  C   UNL     1      -7.949  12.517  67.666  1.00  0.00    -0.170 C  
HETATM    9  O   UNL     1      -6.777  12.797  67.450  1.00  0.00    -0.153 OA 
BRANCH   7  10
HETATM   10  C   UNL     1     -10.675  12.036  68.640  1.00  0.00    -0.266 A  
HETATM   11  C   UNL     1     -10.384  10.761  68.140  1.00  0.00    -0.197 A  
HETATM   12  C   UNL     1     -10.854   9.628  68.803  1.00  0.00    -0.199 A  
HETATM   13  C   UNL     1     -11.612   9.763  69.965  1.00  0.00    -0.185 A  
HETATM   14  C   UNL     1     -11.885  11.031  70.478  1.00  0.00    -0.464 A  
HETATM   15  C   UNL     1     -11.414  12.167  69.820  1.00  0.00    -0.261 A  
ENDBRANCH   7  10
ENDBRANCH   5   6
ENDBRANCH   4   5
ENDBRANCH   3   4
ENDBRANCH   2   3
TORSDOF 5
ENDMDL
MODEL      233
REMARK 921   NORMALIZED FREE ENERGY PREDICTED BY IDOCK:   -2.23 KCAL/MOL
REMARK 922        TOTAL FREE ENERGY PREDICTED BY IDOCK:   -3.31 KCAL/MOL
REMARK 923 INTER-LIGAND FREE ENERGY PREDICTED BY IDOCK:   -3.16 KCAL/MOL
REMARK 924 INTRA-LIGAND FREE ENERGY PREDICTED BY IDOCK:   -0.15 KCAL/MOL
REMARK 927      BINDING AFFINITY PREDICTED BY RF-SCORE:    0.00 PKD
ROOT
HETATM    1  C   UNL     1      -5.572  10.786  67.697  1.00  0.00    -0.043 C  
HETATM    2  C   UNL     1      -6.589  11.734  67.085  1.00  0.00    -0.143 C  
ENDROOT
BRANCH   2   3
HETATM    3  C   UNL     1      -7.791  11.959  68.007  1.00  0.00    -0.140 C  
BRANCH   3   4
HETATM    4  C   UNL     1      -8.388  13.350  67.775  1.00  0.00    -0.178 C  
BRANCH   4   5
HETATM    5  C   UNL     1      -8.133  14.342  68.919  1.00  0.00    -0.095 C  
BRANCH   5   6
HETATM    6  C   UNL     1      -7.838  15.757  68.490  1.00  0.00    -0.139 C  
HETATM    7  C   UNL     1      -8.790  16.710  68.432  1.00  0.00    -0.226 C  
HETATM    8  C   UNL     1      -6.433  16.054  68.076  1.00  0.00    -0.135 C  
HETATM    9  O   UNL     1      -5.594  15.178  67.917  1.00  0.00    -0.134 OA 
BRANCH   7  10
HETATM   10  C   UNL     1      -8.557  18.078  67.973  1.00  0.00    -0.267 A  
HETATM   11  C   UNL     1      -9.109  18.516  66.763  1.00  0.00    -0.297 A  
HETATM   12  C   UNL     1      -8.776  19.773  66.259  1.00  0.00    -0.403 A  
HETATM   13  C   UNL     1      -7.895  20.595  66.960  1.00  0.00    -0.307 A  
HETATM   14  C   UNL     1      -7.361  20.172  68.176  1.00  0.00    -0.279 A  
HETATM   15  C   UNL     1      -7.694  18.917  68.686  1.00  0.00    -0.375 A  
ENDBRANCH   7  10
ENDBRANCH   5   6
ENDBRANCH   4   5
ENDBRANCH   3   4
ENDBRANCH   2   3
TORSDOF 5
ENDMDL
MODEL      234
REMARK 921   NORMALIZED FREE ENERGY PREDICTED BY IDOCK:   -2.14 KCAL/MOL
REMARK 922        TOTAL FREE ENERGY PREDICTED BY IDOCK:   -3.19 KCAL/MOL
REMARK 923 INTER-LIGAND FREE ENERGY PREDICTED BY IDOCK:   -2.53 KCAL/MOL
REMARK 924 INTRA-LIGAND FREE ENERGY PREDICTED BY IDOCK:   -0.66 KCAL/MOL
REMARK 927      BINDING AFFINITY PREDICTED BY RF-SCORE:    0.00 PKD
ROOT
HETATM    1  C   UNL     1     -10.857   6.949  72.129  1.00  0.00    -0.256 C  
HETATM    2  C   UNL     1     -10.495   6.174  73.385  1.00  0.00    -0.269 C  
ENDROOT
BRANCH   2   3
HETATM    3  C   UNL     1      -9.182   6.663  74.002  1.00  0.00    -0.200 C  
BRANCH   3   4
HETATM    4  C   UNL     1      -8.791   8.023  73.418  1.00  0.00    -0.334 C  
BRANCH   4   5
HETATM    5  C   UNL     1      -7.515   7.998  72.565  1.00  0.00    -0.137 C  
BRANCH   5   6
HETATM    6  C   UNL     1      -7.715   7.622  71.118  1.00  0.00    -0.085 C  
HETATM    7  C   UNL     1      -8.256   8.467  70.219  1.00  0.00    -0.115 C  
HETATM    8  C   UNL     1      -7.328   6.234  70.726  1.00  0.00    -0.076 C  
HETATM    9  O   UNL     1      -7.029   5.376  71.546  1.00  0.00    -0.061 OA 
BRANCH   7  10
HETATM   10  C   UNL     1      -8.515   8.125  68.821  1.00  0.00    -0.126 A  
HETATM   11  C   UNL     1      -7.535   8.361  67.848  1.00  0.00    -0.098 A  
HETATM   12  C   UNL     1      -7.830   8.163  66.500  1.00  0.00    -0.093 A  
HETATM   13  C   UNL     1      -9.098   7.727  66.119  1.00  0.00    -0.199 A  
HETATM   14  C   UNL     1     -10.069   7.469  67.087  1.00  0.00    -0.317 A  
HETATM   15  C   UNL     1      -9.777   7.663  68.437  1.00  0.00    -0.164 A  
ENDBRANCH   7  10
ENDBRANCH   5   6
ENDBRANCH   4   5
ENDBRANCH   3   4
ENDBRANCH   2   3
TORSDOF 5
ENDMDL
MODEL      235
REMARK 921   NORMALIZED FREE ENERGY PREDICTED BY IDOCK:   -2.11 KCAL/MOL
REMARK 922        TOTAL FREE ENERGY PREDICTED BY IDOCK:   -3.16 KCAL/MOL
REMARK 923 INTER-LIGAND FREE ENERGY PREDICTED BY IDOCK:   -2.89 KCAL/MOL
REMARK 924 INTRA-LIGAND FREE ENERGY PREDICTED BY IDOCK:   -0.27 KCAL/MOL
REMARK 927      BINDING AFFINITY PREDICTED BY RF-SCORE:    0.00 PKD
ROOT
HETATM    1  C   UNL     1      -6.055  12.699  68.055  1.00  0.00    -0.091 C  
HETATM    2  C   UNL     1      -7.548  12.817  68.311  1.00  0.00    -0.134 C  
ENDROOT
BRANCH   2   3
HETATM    3  C   UNL     1      -8.189  11.458  68.605  1.00  0.00    -0.142 C  
BRANCH   3   4
HETATM    4  C   UNL     1      -9.421  11.246  67.721  1.00  0.00    -0.173 C  
BRANCH   4   5
HETATM    5  C   UNL     1     -10.607  10.590  68.443  1.00  0.00    -0.230 C  
BRANCH   5   6
HETATM    6  C   UNL     1     -10.369   9.179  68.920  1.00  0.00    -0.232 C  
HETATM    7  C   UNL     1     -10.105   8.886  70.209  1.00  0.00    -0.218 C  
HETATM    8  C   UNL     1     -10.388   8.107  67.880  1.00  0.00    -0.220 C  
HETATM    9  O   UNL     1     -10.418   8.351  66.681  1.00  0.00    -0.294 OA 
BRANCH   7  10
HETATM   10  C   UNL     1      -9.818   7.540  70.703  1.00  0.00    -0.179 A  
HETATM   11  C   UNL     1      -8.493   7.103  70.819  1.00  0.00    -0.133 A  
HETATM   12  C   UNL     1      -8.223   5.778  71.159  1.00  0.00    -0.122 A  
HETATM   13  C   UNL     1      -9.271   4.888  71.386  1.00  0.00    -0.188 A  
HETATM   14  C   UNL     1     -10.592   5.325  71.294  1.00  0.00    -0.242 A  
HETATM   15  C   UNL     1     -10.867   6.651  70.958  1.00  0.00    -0.289 A  
ENDBRANCH   7  10
ENDBRANCH   5   6
ENDBRANCH   4   5
ENDBRANCH   3   4
ENDBRANCH   2   3
TORSDOF 5
ENDMDL
MODEL      236
REMARK 921   NORMALIZED FREE ENERGY PREDICTED BY IDOCK:   -2.11 KCAL/MOL
REMARK 922        TOTAL FREE ENERGY PREDICTED BY IDOCK:   -3.15 KCAL/MOL
REMARK 923 INTER-LIGAND FREE ENERGY PREDICTED BY IDOCK:   -2.77 KCAL/MOL
REMARK 924 INTRA-LIGAND FREE ENERGY PREDICTED BY IDOCK:   -0.39 KCAL/MOL
REMARK 927      BINDING AFFINITY PREDICTED BY RF-SCORE:    0.00 PKD
ROOT
HETATM    1  C   UNL     1      -7.223  11.609  66.916  1.00  0.00    -0.125 C  
HETATM    2  C   UNL     1      -7.926  10.394  66.335  1.00  0.00    -0.130 C  
ENDROOT
BRANCH   2   3
HETATM    3  C   UNL     1      -8.021   9.248  67.346  1.00  0.00    -0.106 C  
BRANCH   3   4
HETATM    4  C   UNL     1      -8.851   8.097  66.771  1.00  0.00    -0.156 C  
BRANCH   4   5
HETATM    5  C   UNL     1      -8.529   6.725  67.381  1.00  0.00    -0.121 C  
BRANCH   5   6
HETATM    6  C   UNL     1      -9.489   6.249  68.441  1.00  0.00    -0.118 C  
HETATM    7  C   UNL     1      -9.225   6.356  69.758  1.00  0.00    -0.145 C  
HETATM    8  C   UNL     1     -10.746   5.596  67.964  1.00  0.00    -0.154 C  
HETATM    9  O   UNL     1     -10.928   5.295  66.792  1.00  0.00    -0.148 OA 
BRANCH   7  10
HETATM   10  C   UNL     1     -10.104   5.861  70.816  1.00  0.00    -0.253 A  
HETATM   11  C   UNL     1     -11.132   6.674  71.312  1.00  0.00    -0.312 A  
HETATM   12  C   UNL     1     -11.881   6.256  72.411  1.00  0.00    -0.272 A  
HETATM   13  C   UNL     1     -11.611   5.029  73.015  1.00  0.00    -0.299 A  
HETATM   14  C   UNL     1     -10.604   4.208  72.510  1.00  0.00    -0.162 A  
HETATM   15  C   UNL     1      -9.854   4.620  71.408  1.00  0.00    -0.264 A  
ENDBRANCH   7  10
ENDBRANCH   5   6
ENDBRANCH   4   5
ENDBRANCH   3   4
ENDBRANCH   2   3
TORSDOF 5
ENDMDL
MODEL      237
REMARK 921   NORMALIZED FREE ENERGY PREDICTED BY IDOCK:   -2.10 KCAL/MOL
REMARK 922        TOTAL FREE ENERGY PREDICTED BY IDOCK:   -3.15 KCAL/MOL
REMARK 923 INTER-LIGAND FREE ENERGY PREDICTED BY IDOCK:   -2.99 KCAL/MOL
REMARK 924 INTRA-LIGAND FREE ENERGY PREDICTED BY IDOCK:   -0.16 KCAL/MOL
REMARK 927      BINDING AFFINITY PREDICTED BY RF-SCORE:    0.00 PKD
ROOT
HETATM    1  C   UNL     1      -8.451   3.890  72.317  1.00  0.00    -0.098 C  
HETATM    2  C   UNL     1      -9.493   4.039  71.221  1.00  0.00    -0.233 C  
ENDROOT
BRANCH   2   3
HETATM    3  C   UNL     1     -10.311   5.324  71.377  1.00  0.00    -0.290 C  
BRANCH   3   4
HETATM    4  C   UNL     1     -11.089   5.620  70.092  1.00  0.00    -0.206 C  
BRANCH   4   5
HETATM    5  C   UNL     1     -11.594   7.066  69.983  1.00  0.00    -0.226 C  
BRANCH   5   6
HETATM    6  C   UNL     1     -10.661   8.024  69.287  1.00  0.00    -0.193 C  
HETATM    7  C   UNL     1     -10.213   9.153  69.873  1.00  0.00    -0.222 C  
HETATM    8  C   UNL     1     -10.285   7.692  67.880  1.00  0.00    -0.198 C  
HETATM    9  O   UNL     1     -10.827   6.796  67.247  1.00  0.00    -0.306 OA 
BRANCH   7  10
HETATM   10  C   UNL     1      -9.350  10.133  69.215  1.00  0.00    -0.227 A  
HETATM   11  C   UNL     1      -7.975  10.146  69.480  1.00  0.00    -0.170 A  
HETATM   12  C   UNL     1      -7.175  11.163  68.961  1.00  0.00    -0.118 A  
HETATM   13  C   UNL     1      -7.742  12.166  68.177  1.00  0.00    -0.129 A  
HETATM   14  C   UNL     1      -9.107  12.144  67.893  1.00  0.00    -0.185 A  
HETATM   15  C   UNL     1      -9.911  11.126  68.407  1.00  0.00    -0.188 A  
ENDBRANCH   7  10
ENDBRANCH   5   6
ENDBRANCH   4   5
ENDBRANCH   3   4
ENDBRANCH   2   3
TORSDOF 5
ENDMDL
MODEL      238
REMARK 921   NORMALIZED FREE ENERGY PREDICTED BY IDOCK:   -2.03 KCAL/MOL
REMARK 922        TOTAL FREE ENERGY PREDICTED BY IDOCK:   -3.05 KCAL/MOL
REMARK 923 INTER-LIGAND FREE ENERGY PREDICTED BY IDOCK:   -2.66 KCAL/MOL
REMARK 924 INTRA-LIGAND FREE ENERGY PREDICTED BY IDOCK:   -0.39 KCAL/MOL
REMARK 927      BINDING AFFINITY PREDICTED BY RF-SCORE:    0.00 PKD
ROOT
HETATM    1  C   UNL     1     -13.723   9.493  72.621  1.00  0.00    -0.255 C  
HETATM    2  C   UNL     1     -12.644   9.477  71.550  1.00  0.00    -0.462 C  
ENDROOT
BRANCH   2   3
HETATM    3  C   UNL     1     -11.418   8.669  71.982  1.00  0.00    -0.437 C  
BRANCH   3   4
HETATM    4  C   UNL     1     -10.982   7.720  70.862  1.00  0.00    -0.260 C  
BRANCH   4   5
HETATM    5  C   UNL     1     -11.043   6.233  71.238  1.00  0.00    -0.345 C  
BRANCH   5   6
HETATM    6  C   UNL     1      -9.792   5.443  70.948  1.00  0.00    -0.249 C  
HETATM    7  C   UNL     1      -8.898   5.821  70.013  1.00  0.00    -0.139 C  
HETATM    8  C   UNL     1      -9.607   4.175  71.715  1.00  0.00    -0.156 C  
HETATM    9  O   UNL     1     -10.487   3.693  72.416  1.00  0.00    -0.143 OA 
BRANCH   7  10
HETATM   10  C   UNL     1      -7.701   5.057  69.665  1.00  0.00    -0.064 A  
HETATM   11  C   UNL     1      -6.497   5.291  70.342  1.00  0.00    -0.031 A  
HETATM   12  C   UNL     1      -5.326   4.663  69.920  1.00  0.00    -0.007 A  
HETATM   13  C   UNL     1      -5.353   3.800  68.825  1.00  0.00    -0.012 A  
HETATM   14  C   UNL     1      -6.554   3.547  68.163  1.00  0.00    -0.038 A  
HETATM   15  C   UNL     1      -7.728   4.171  68.584  1.00  0.00    -0.062 A  
ENDBRANCH   7  10
ENDBRANCH   5   6
ENDBRANCH   4   5
ENDBRANCH   3   4
ENDBRANCH   2   3
TORSDOF 5
ENDMDL
MODEL      239
REMARK 921   NORMALIZED FREE ENERGY PREDICTED BY IDOCK:   -1.97 KCAL/MOL
REMARK 922        TOTAL FREE ENERGY PREDICTED BY IDOCK:   -2.97 KCAL/MOL
REMARK 923 INTER-LIGAND FREE ENERGY PREDICTED BY IDOCK:   -2.72 KCAL/MOL
REMARK 924 INTRA-LIGAND FREE ENERGY PREDICTED BY IDOCK:   -0.25 KCAL/MOL
REMARK 927      BINDING AFFINITY PREDICTED BY RF-SCORE:    0.00 PKD
ROOT
HETATM    1  C   UNL     1     -11.972  14.641  67.105  1.00  0.00    -0.310 C  
HETATM    2  C   UNL     1     -11.963  13.242  66.510  1.00  0.00    -0.448 C  
ENDROOT
BRANCH   2   3
HETATM    3  C   UNL     1     -10.752  12.429  66.974  1.00  0.00    -0.268 C  
BRANCH   3   4
HETATM    4  C   UNL     1     -11.158  10.978  67.249  1.00  0.00    -0.359 C  
BRANCH   4   5
HETATM    5  C   UNL     1     -10.140   9.937  66.760  1.00  0.00    -0.292 C  
BRANCH   5   6
HETATM    6  C   UNL     1      -9.402   9.197  67.847  1.00  0.00    -0.151 C  
HETATM    7  C   UNL     1      -8.331   9.717  68.479  1.00  0.00    -0.110 C  
HETATM    8  C   UNL     1      -9.883   7.819  68.166  1.00  0.00    -0.167 C  
HETATM    9  O   UNL     1     -10.712   7.235  67.481  1.00  0.00    -0.254 OA 
BRANCH   7  10
HETATM   10  C   UNL     1      -7.557   9.013  69.500  1.00  0.00    -0.077 A  
HETATM   11  C   UNL     1      -6.755   7.921  69.143  1.00  0.00    -0.048 A  
HETATM   12  C   UNL     1      -6.126   7.166  70.133  1.00  0.00    -0.024 A  
HETATM   13  C   UNL     1      -6.292   7.499  71.476  1.00  0.00    -0.035 A  
HETATM   14  C   UNL     1      -7.071   8.599  71.833  1.00  0.00    -0.090 A  
HETATM   15  C   UNL     1      -7.699   9.359  70.847  1.00  0.00    -0.089 A  
ENDBRANCH   7  10
ENDBRANCH   5   6
ENDBRANCH   4   5
ENDBRANCH   3   4
ENDBRANCH   2   3
TORSDOF 5
ENDMDL
MODEL      240
REMARK 921   NORMALIZED FREE ENERGY PREDICTED BY IDOCK:   -1.95 KCAL/MOL
REMARK 922        TOTAL FREE ENERGY PREDICTED BY IDOCK:   -2.96 KCAL/MOL
REMARK 923 INTER-LIGAND FREE ENERGY PREDICTED BY IDOCK:   -2.55 KCAL/MOL
REMARK 924 INTRA-LIGAND FREE ENERGY PREDICTED BY IDOCK:   -0.41 KCAL/MOL
REMARK 927      BINDING AFFINITY PREDICTED BY RF-SCORE:    0.00 PKD
ROOT
HETATM    1  C   UNL     1      -7.226  11.636  66.886  1.00  0.00    -0.125 C  
HETATM    2  C   UNL     1      -7.899  10.309  66.575  1.00  0.00    -0.116 C  
ENDROOT
BRANCH   2   3
HETATM    3  C   UNL     1      -7.684   9.281  67.688  1.00  0.00    -0.092 C  
BRANCH   3   4
HETATM    4  C   UNL     1      -8.573   8.056  67.462  1.00  0.00    -0.126 C  
BRANCH   4   5
HETATM    5  C   UNL     1      -7.975   6.740  67.981  1.00  0.00    -0.114 C  
BRANCH   5   6
HETATM    6  C   UNL     1      -8.274   6.422  69.424  1.00  0.00    -0.118 C  
HETATM    7  C   UNL     1      -9.201   7.092  70.136  1.00  0.00    -0.155 C  
HETATM    8  C   UNL     1      -7.450   5.349  70.059  1.00  0.00    -0.069 C  
HETATM    9  O   UNL     1      -6.467   4.863  69.515  1.00  0.00    -0.036 OA 
BRANCH   7  10
HETATM   10  C   UNL     1      -9.484   6.850  71.551  1.00  0.00    -0.155 A  
HETATM   11  C   UNL     1     -10.437   5.894  71.922  1.00  0.00    -0.267 A  
HETATM   12  C   UNL     1     -10.805   5.759  73.260  1.00  0.00    -0.306 A  
HETATM   13  C   UNL     1     -10.223   6.574  74.229  1.00  0.00    -0.373 A  
HETATM   14  C   UNL     1      -9.257   7.512  73.866  1.00  0.00    -0.314 A  
HETATM   15  C   UNL     1      -8.883   7.648  72.529  1.00  0.00    -0.183 A  
ENDBRANCH   7  10
ENDBRANCH   5   6
ENDBRANCH   4   5
ENDBRANCH   3   4
ENDBRANCH   2   3
TORSDOF 5
ENDMDL
MODEL      241
REMARK 921   NORMALIZED FREE ENERGY PREDICTED BY IDOCK:   -1.92 KCAL/MOL
REMARK 922        TOTAL FREE ENERGY PREDICTED BY IDOCK:   -2.91 KCAL/MOL
REMARK 923 INTER-LIGAND FREE ENERGY PREDICTED BY IDOCK:   -2.31 KCAL/MOL
REMARK 924 INTRA-LIGAND FREE ENERGY PREDICTED BY IDOCK:   -0.60 KCAL/MOL
REMARK 927      BINDING AFFINITY PREDICTED BY RF-SCORE:    0.00 PKD
ROOT
HETATM    1  C   UNL     1     -10.473   5.538  66.823  1.00  0.00    -0.355 C  
HETATM    2  C   UNL     1      -9.394   5.244  67.852  1.00  0.00    -0.131 C  
ENDROOT
BRANCH   2   3
HETATM    3  C   UNL     1      -8.945   3.781  67.812  1.00  0.00    -0.161 C  
BRANCH   3   4
HETATM    4  C   UNL     1      -8.461   3.333  69.193  1.00  0.00    -0.096 C  
BRANCH   4   5
HETATM    5  C   UNL     1      -9.449   3.626  70.331  1.00  0.00    -0.255 C  
BRANCH   5   6
HETATM    6  C   UNL     1      -8.891   4.431  71.477  1.00  0.00    -0.149 C  
HETATM    7  C   UNL     1      -8.597   5.742  71.366  1.00  0.00    -0.129 C  
HETATM    8  C   UNL     1      -8.624   3.693  72.749  1.00  0.00    -0.090 C  
HETATM    9  O   UNL     1      -8.681   2.474  72.828  1.00  0.00    -0.069 OA 
BRANCH   7  10
HETATM   10  C   UNL     1      -8.006   6.546  72.435  1.00  0.00    -0.101 A  
HETATM   11  C   UNL     1      -8.831   7.266  73.309  1.00  0.00    -0.184 A  
HETATM   12  C   UNL     1      -8.267   8.138  74.240  1.00  0.00    -0.290 A  
HETATM   13  C   UNL     1      -6.883   8.291  74.304  1.00  0.00    -0.175 A  
HETATM   14  C   UNL     1      -6.058   7.558  73.451  1.00  0.00    -0.060 A  
HETATM   15  C   UNL     1      -6.617   6.683  72.520  1.00  0.00    -0.063 A  
ENDBRANCH   7  10
ENDBRANCH   5   6
ENDBRANCH   4   5
ENDBRANCH   3   4
ENDBRANCH   2   3
TORSDOF 5
ENDMDL
MODEL      242
REMARK 921   NORMALIZED FREE ENERGY PREDICTED BY IDOCK:   -1.91 KCAL/MOL
REMARK 922        TOTAL FREE ENERGY PREDICTED BY IDOCK:   -2.90 KCAL/MOL
REMARK 923 INTER-LIGAND FREE ENERGY PREDICTED BY IDOCK:   -2.57 KCAL/MOL
REMARK 924 INTRA-LIGAND FREE ENERGY PREDICTED BY IDOCK:   -0.33 KCAL/MOL
REMARK 927      BINDING AFFINITY PREDICTED BY RF-SCORE:    0.00 PKD
ROOT
HETATM    1  C   UNL     1      -9.851   4.134  71.535  1.00  0.00    -0.255 C  
HETATM    2  C   UNL     1     -10.779   5.135  70.867  1.00  0.00    -0.128 C  
ENDROOT
BRANCH   2   3
HETATM    3  C   UNL     1     -10.351   6.581  71.132  1.00  0.00    -0.237 C  
BRANCH   3   4
HETATM    4  C   UNL     1     -11.248   7.553  70.361  1.00  0.00    -0.270 C  
BRANCH   4   5
HETATM    5  C   UNL     1     -10.563   8.874  69.982  1.00  0.00    -0.234 C  
BRANCH   5   6
HETATM    6  C   UNL     1      -9.873   8.881  68.642  1.00  0.00    -0.179 C  
HETATM    7  C   UNL     1      -8.803   8.107  68.375  1.00  0.00    -0.133 C  
HETATM    8  C   UNL     1     -10.402   9.834  67.620  1.00  0.00    -0.230 C  
HETATM    9  O   UNL     1     -11.231  10.694  67.887  1.00  0.00    -0.289 OA 
BRANCH   7  10
HETATM   10  C   UNL     1      -8.073   8.122  67.107  1.00  0.00    -0.116 A  
HETATM   11  C   UNL     1      -6.881   8.849  66.992  1.00  0.00    -0.073 A  
HETATM   12  C   UNL     1      -6.259   8.975  65.751  1.00  0.00    -0.056 A  
HETATM   13  C   UNL     1      -6.821   8.376  64.624  1.00  0.00    -0.069 A  
HETATM   14  C   UNL     1      -7.996   7.634  64.739  1.00  0.00    -0.137 A  
HETATM   15  C   UNL     1      -8.620   7.502  65.980  1.00  0.00    -0.164 A  
ENDBRANCH   7  10
ENDBRANCH   5   6
ENDBRANCH   4   5
ENDBRANCH   3   4
ENDBRANCH   2   3
TORSDOF 5
ENDMDL
MODEL      243
REMARK 921   NORMALIZED FREE ENERGY PREDICTED BY IDOCK:   -1.86 KCAL/MOL
REMARK 922        TOTAL FREE ENERGY PREDICTED BY IDOCK:   -2.84 KCAL/MOL
REMARK 923 INTER-LIGAND FREE ENERGY PREDICTED BY IDOCK:   -2.58 KCAL/MOL
REMARK 924 INTRA-LIGAND FREE ENERGY PREDICTED BY IDOCK:   -0.26 KCAL/MOL
REMARK 927      BINDING AFFINITY PREDICTED BY RF-SCORE:    0.00 PKD
ROOT
HETATM    1  C   UNL     1     -11.249  15.617  67.226  1.00  0.00    -0.184 C  
HETATM    2  C   UNL     1     -11.354  14.292  66.490  1.00  0.00    -0.351 C  
ENDROOT
BRANCH   2   3
HETATM    3  C   UNL     1     -10.203  13.346  66.842  1.00  0.00    -0.252 C  
BRANCH   3   4
HETATM    4  C   UNL     1     -10.699  11.899  66.901  1.00  0.00    -0.285 C  
BRANCH   4   5
HETATM    5  C   UNL     1      -9.761  10.885  66.232  1.00  0.00    -0.245 C  
BRANCH   5   6
HETATM    6  C   UNL     1      -9.112   9.894  67.165  1.00  0.00    -0.154 C  
HETATM    7  C   UNL     1      -9.803   8.903  67.763  1.00  0.00    -0.208 C  
HETATM    8  C   UNL     1      -7.658  10.089  67.445  1.00  0.00    -0.091 C  
HETATM    9  O   UNL     1      -7.046  11.088  67.090  1.00  0.00    -0.091 OA 
BRANCH   7  10
HETATM   10  C   UNL     1      -9.223   7.955  68.713  1.00  0.00    -0.143 A  
HETATM   11  C   UNL     1      -8.842   8.386  69.990  1.00  0.00    -0.137 A  
HETATM   12  C   UNL     1      -8.166   7.517  70.846  1.00  0.00    -0.112 A  
HETATM   13  C   UNL     1      -7.872   6.218  70.433  1.00  0.00    -0.107 A  
HETATM   14  C   UNL     1      -8.271   5.779  69.171  1.00  0.00    -0.101 A  
HETATM   15  C   UNL     1      -8.950   6.644  68.313  1.00  0.00    -0.122 A  
ENDBRANCH   7  10
ENDBRANCH   5   6
ENDBRANCH   4   5
ENDBRANCH   3   4
ENDBRANCH   2   3
TORSDOF 5
ENDMDL
MODEL      244
REMARK 921   NORMALIZED FREE ENERGY PREDICTED BY IDOCK:   -1.84 KCAL/MOL
REMARK 922        TOTAL FREE ENERGY PREDICTED BY IDOCK:   -2.81 KCAL/MOL
REMARK 923 INTER-LIGAND FREE ENERGY PREDICTED BY IDOCK:   -2.38 KCAL/MOL
REMARK 924 INTRA-LIGAND FREE ENERGY PREDICTED BY IDOCK:   -0.43 KCAL/MOL
REMARK 927      BINDING AFFINITY PREDICTED BY RF-SCORE:    0.00 PKD
ROOT
HETATM    1  C   UNL     1      -7.733   8.790  71.300  1.00  0.00    -0.149 C  
HETATM    2  C   UNL     1      -8.821   7.755  71.536  1.00  0.00    -0.150 C  
ENDROOT
BRANCH   2   3
HETATM    3  C   UNL     1      -9.122   6.941  70.275  1.00  0.00    -0.153 C  
BRANCH   3   4
HETATM    4  C   UNL     1      -8.534   7.631  69.041  1.00  0.00    -0.132 C  
BRANCH   4   5
HETATM    5  C   UNL     1      -9.530   7.808  67.886  1.00  0.00    -0.158 C  
BRANCH   5   6
HETATM    6  C   UNL     1      -9.463   6.755  66.810  1.00  0.00    -0.199 C  
HETATM    7  C   UNL     1     -10.162   5.605  66.877  1.00  0.00    -0.272 C  
HETATM    8  C   UNL     1      -8.533   7.019  65.670  1.00  0.00    -0.138 C  
HETATM    9  O   UNL     1      -7.733   7.944  65.673  1.00  0.00    -0.087 OA 
BRANCH   7  10
HETATM   10  C   UNL     1     -10.085   4.536  65.882  1.00  0.00    -0.279 A  
HETATM   11  C   UNL     1      -9.129   3.522  66.015  1.00  0.00    -0.155 A  
HETATM   12  C   UNL     1      -8.964   2.582  64.998  1.00  0.00    -0.128 A  
HETATM   13  C   UNL     1      -9.754   2.649  63.851  1.00  0.00    -0.139 A  
HETATM   14  C   UNL     1     -10.723   3.644  63.726  1.00  0.00    -0.271 A  
HETATM   15  C   UNL     1     -10.893   4.585  64.742  1.00  0.00     0.030 A  
ENDBRANCH   7  10
ENDBRANCH   5   6
ENDBRANCH   4   5
ENDBRANCH   3   4
ENDBRANCH   2   3
TORSDOF 5
ENDMDL
MODEL      245
REMARK 921   NORMALIZED FREE ENERGY PREDICTED BY IDOCK:   -1.83 KCAL/MOL
REMARK 922        TOTAL FREE ENERGY PREDICTED BY IDOCK:   -2.80 KCAL/MOL
REMARK 923 INTER-LIGAND FREE ENERGY PREDICTED BY IDOCK:   -2.47 KCAL/MOL
REMARK 924 INTRA-LIGAND FREE ENERGY PREDICTED BY IDOCK:   -0.33 KCAL/MOL
REMARK 927      BINDING AFFINITY PREDICTED BY RF-SCORE:    0.00 PKD
ROOT
HETATM    1  C   UNL     1      -6.005   9.047  67.190  1.00  0.00    -0.057 C  
HETATM    2  C   UNL     1      -6.930  10.208  67.517  1.00  0.00    -0.085 C  
ENDROOT
BRANCH   2   3
HETATM    3  C   UNL     1      -8.317  10.030  66.894  1.00  0.00    -0.125 C  
BRANCH   3   4
HETATM    4  C   UNL     1      -9.106   8.954  67.647  1.00  0.00    -0.144 C  
BRANCH   4   5
HETATM    5  C   UNL     1      -9.694   9.426  68.984  1.00  0.00    -0.166 C  
BRANCH   5   6
HETATM    6  C   UNL     1      -9.542   8.460  70.131  1.00  0.00    -0.166 C  
HETATM    7  C   UNL     1      -8.664   8.660  71.134  1.00  0.00    -0.244 C  
HETATM    8  C   UNL     1     -10.382   7.226  70.085  1.00  0.00    -0.212 C  
HETATM    9  O   UNL     1     -11.033   6.908  69.099  1.00  0.00    -0.233 OA 
BRANCH   7  10
HETATM   10  C   UNL     1      -8.449   7.723  72.237  1.00  0.00    -0.165 A  
HETATM   11  C   UNL     1      -7.625   6.605  72.056  1.00  0.00    -0.096 A  
HETATM   12  C   UNL     1      -7.528   5.641  73.060  1.00  0.00    -0.092 A  
HETATM   13  C   UNL     1      -8.249   5.792  74.244  1.00  0.00    -0.103 A  
HETATM   14  C   UNL     1      -9.052   6.915  74.436  1.00  0.00    -0.237 A  
HETATM   15  C   UNL     1      -9.149   7.883  73.436  1.00  0.00    -0.347 A  
ENDBRANCH   7  10
ENDBRANCH   5   6
ENDBRANCH   4   5
ENDBRANCH   3   4
ENDBRANCH   2   3
TORSDOF 5
ENDMDL
MODEL      246
REMARK 921   NORMALIZED FREE ENERGY PREDICTED BY IDOCK:   -1.76 KCAL/MOL
REMARK 922        TOTAL FREE ENERGY PREDICTED BY IDOCK:   -2.71 KCAL/MOL
REMARK 923 INTER-LIGAND FREE ENERGY PREDICTED BY IDOCK:   -2.16 KCAL/MOL
REMARK 924 INTRA-LIGAND FREE ENERGY PREDICTED BY IDOCK:   -0.55 KCAL/MOL
REMARK 927      BINDING AFFINITY PREDICTED BY RF-SCORE:    0.00 PKD
ROOT
HETATM    1  C   UNL     1      -6.176   8.958  67.172  1.00  0.00    -0.059 C  
HETATM    2  C   UNL     1      -7.189  10.031  67.536  1.00  0.00    -0.089 C  
ENDROOT
BRANCH   2   3
HETATM    3  C   UNL     1      -8.506   9.861  66.775  1.00  0.00    -0.125 C  
BRANCH   3   4
HETATM    4  C   UNL     1      -9.486   9.011  67.588  1.00  0.00    -0.166 C  
BRANCH   4   5
HETATM    5  C   UNL     1      -9.132   8.895  69.078  1.00  0.00    -0.137 C  
BRANCH   5   6
HETATM    6  C   UNL     1      -9.339   7.531  69.685  1.00  0.00    -0.153 C  
HETATM    7  C   UNL     1      -8.442   6.535  69.550  1.00  0.00    -0.131 C  
HETATM    8  C   UNL     1     -10.626   7.308  70.411  1.00  0.00    -0.226 C  
HETATM    9  O   UNL     1     -11.548   8.111  70.380  1.00  0.00    -0.198 OA 
BRANCH   7  10
HETATM   10  C   UNL     1      -8.628   5.184  70.078  1.00  0.00    -0.109 A  
HETATM   11  C   UNL     1      -9.340   4.233  69.336  1.00  0.00    -0.236 A  
HETATM   12  C   UNL     1      -9.635   2.990  69.896  1.00  0.00    -0.124 A  
HETATM   13  C   UNL     1      -9.219   2.693  71.193  1.00  0.00    -0.196 A  
HETATM   14  C   UNL     1      -8.490   3.629  71.926  1.00  0.00    -0.097 A  
HETATM   15  C   UNL     1      -8.190   4.872  71.369  1.00  0.00    -0.112 A  
ENDBRANCH   7  10
ENDBRANCH   5   6
ENDBRANCH   4   5
ENDBRANCH   3   4
ENDBRANCH   2   3
TORSDOF 5
ENDMDL
MODEL      247
REMARK 921   NORMALIZED FREE ENERGY PREDICTED BY IDOCK:   -1.67 KCAL/MOL
REMARK 922        TOTAL FREE ENERGY PREDICTED BY IDOCK:   -2.59 KCAL/MOL
REMARK 923 INTER-LIGAND FREE ENERGY PREDICTED BY IDOCK:   -3.08 KCAL/MOL
REMARK 924 INTRA-LIGAND FREE ENERGY PREDICTED BY IDOCK:    0.49 KCAL/MOL
REMARK 927      BINDING AFFINITY PREDICTED BY RF-SCORE:    0.00 PKD
ROOT
HETATM    1  C   UNL     1     -12.979  12.059  71.744  1.00  0.00    -0.445 C  
HETATM    2  C   UNL     1     -12.940  10.618  71.263  1.00  0.00    -0.513 C  
ENDROOT
BRANCH   2   3
HETATM    3  C   UNL     1     -12.170  10.473  69.948  1.00  0.00    -0.289 C  
BRANCH   3   4
HETATM    4  C   UNL     1     -11.024   9.471  70.109  1.00  0.00    -0.302 C  
BRANCH   4   5
HETATM    5  C   UNL     1      -9.696   9.930  69.491  1.00  0.00    -0.238 C  
BRANCH   5   6
HETATM    6  C   UNL     1      -9.347   9.296  68.169  1.00  0.00    -0.143 C  
HETATM    7  C   UNL     1      -8.511   8.243  68.069  1.00  0.00    -0.132 C  
HETATM    8  C   UNL     1      -9.934   9.924  66.947  1.00  0.00    -0.212 C  
HETATM    9  O   UNL     1     -10.525  10.995  66.976  1.00  0.00    -0.217 OA 
BRANCH   7  10
HETATM   10  C   UNL     1      -8.106   7.632  66.804  1.00  0.00    -0.115 A  
HETATM   11  C   UNL     1      -7.615   6.320  66.784  1.00  0.00    -0.099 A  
HETATM   12  C   UNL     1      -7.103   5.786  65.602  1.00  0.00    -0.069 A  
HETATM   13  C   UNL     1      -7.081   6.556  64.440  1.00  0.00    -0.064 A  
HETATM   14  C   UNL     1      -7.589   7.855  64.451  1.00  0.00    -0.116 A  
HETATM   15  C   UNL     1      -8.106   8.392  65.630  1.00  0.00    -0.125 A  
ENDBRANCH   7  10
ENDBRANCH   5   6
ENDBRANCH   4   5
ENDBRANCH   3   4
ENDBRANCH   2   3
TORSDOF 5
ENDMDL
MODEL      248
REMARK 921   NORMALIZED FREE ENERGY PREDICTED BY IDOCK:   -1.37 KCAL/MOL
REMARK 922        TOTAL FREE ENERGY PREDICTED BY IDOCK:   -2.21 KCAL/MOL
REMARK 923 INTER-LIGAND FREE ENERGY PREDICTED BY IDOCK:   -1.85 KCAL/MOL
REMARK 924 INTRA-LIGAND FREE ENERGY PREDICTED BY IDOCK:   -0.36 KCAL/MOL
REMARK 927      BINDING AFFINITY PREDICTED BY RF-SCORE:    0.00 PKD
ROOT
HETATM    1  C   UNL     1      -8.247   9.167  70.749  1.00  0.00    -0.226 C  
HETATM    2  C   UNL     1      -8.807   7.777  70.500  1.00  0.00    -0.145 C  
ENDROOT
BRANCH   2   3
HETATM    3  C   UNL     1      -8.890   7.450  69.007  1.00  0.00    -0.132 C  
BRANCH   3   4
HETATM    4  C   UNL     1      -8.482   5.996  68.755  1.00  0.00    -0.113 C  
BRANCH   4   5
HETATM    5  C   UNL     1      -7.485   5.813  67.603  1.00  0.00    -0.078 C  
BRANCH   5   6
HETATM    6  C   UNL     1      -7.940   4.895  66.496  1.00  0.00    -0.107 C  
HETATM    7  C   UNL     1      -8.712   5.318  65.476  1.00  0.00    -0.149 C  
HETATM    8  C   UNL     1      -7.536   3.461  66.606  1.00  0.00    -0.077 C  
HETATM    9  O   UNL     1      -7.017   2.996  67.612  1.00  0.00    -0.048 OA 
BRANCH   7  10
HETATM   10  C   UNL     1      -9.217   4.451  64.413  1.00  0.00    -0.149 A  
HETATM   11  C   UNL     1     -10.439   3.785  64.573  1.00  0.00    -0.193 A  
HETATM   12  C   UNL     1     -10.854   2.854  63.621  1.00  0.00    -0.154 A  
HETATM   13  C   UNL     1     -10.057   2.588  62.509  1.00  0.00    -0.094 A  
HETATM   14  C   UNL     1      -8.851   3.267  62.335  1.00  0.00    -0.084 A  
HETATM   15  C   UNL     1      -8.433   4.201  63.283  1.00  0.00    -0.099 A  
ENDBRANCH   7  10
ENDBRANCH   5   6
ENDBRANCH   4   5
ENDBRANCH   3   4
ENDBRANCH   2   3
TORSDOF 5
ENDMDL
MODEL      249
REMARK 921   NORMALIZED FREE ENERGY PREDICTED BY IDOCK:   -0.61 KCAL/MOL
REMARK 922        TOTAL FREE ENERGY PREDICTED BY IDOCK:   -1.22 KCAL/MOL
REMARK 923 INTER-LIGAND FREE ENERGY PREDICTED BY IDOCK:   -1.66 KCAL/MOL
REMARK 924 INTRA-LIGAND FREE ENERGY PREDICTED BY IDOCK:    0.44 KCAL/MOL
REMARK 927      BINDING AFFINITY PREDICTED BY RF-SCORE:    0.00 PKD
ROOT
HETATM    1  C   UNL     1      -7.448  16.260  66.882  1.00  0.00    -0.271 C  
HETATM    2  C   UNL     1      -7.462  14.873  67.503  1.00  0.00    -0.224 C  
ENDROOT
BRANCH   2   3
HETATM    3  C   UNL     1      -6.079  14.217  67.474  1.00  0.00     0.048 C  
BRANCH   3   4
HETATM    4  C   UNL     1      -5.935  13.221  68.628  1.00  0.00    -0.083 C  
BRANCH   4   5
HETATM    5  C   UNL     1      -7.170  12.336  68.852  1.00  0.00    -0.069 C  
BRANCH   5   6
HETATM    6  C   UNL     1      -7.455  11.340  67.756  1.00  0.00    -0.095 C  
HETATM    7  C   UNL     1      -6.489  10.592  67.189  1.00  0.00    -0.073 C  
HETATM    8  C   UNL     1      -8.869  11.251  67.282  1.00  0.00    -0.150 C  
HETATM    9  O   UNL     1      -9.730  12.051  67.622  1.00  0.00    -0.181 OA 
BRANCH   7  10
HETATM   10  C   UNL     1      -6.714   9.654  66.089  1.00  0.00    -0.083 A  
HETATM   11  C   UNL     1      -5.643   9.245  65.285  1.00  0.00    -0.053 A  
HETATM   12  C   UNL     1      -5.880   8.461  64.156  1.00  0.00    -0.065 A  
HETATM   13  C   UNL     1      -7.180   8.081  63.830  1.00  0.00    -0.092 A  
HETATM   14  C   UNL     1      -8.246   8.466  64.642  1.00  0.00    -0.157 A  
HETATM   15  C   UNL     1      -8.014   9.248  65.774  1.00  0.00    -0.109 A  
ENDBRANCH   7  10
ENDBRANCH   5   6
ENDBRANCH   4   5
ENDBRANCH   3   4
ENDBRANCH   2   3
TORSDOF 5
ENDMDL
MODEL      250
REMARK 921   NORMALIZED FREE ENERGY PREDICTED BY IDOCK:    0.95 KCAL/MOL
REMARK 922        TOTAL FREE ENERGY PREDICTED BY IDOCK:    0.79 KCAL/MOL
REMARK 923 INTER-LIGAND FREE ENERGY PREDICTED BY IDOCK:    0.14 KCAL/MOL
REMARK 924 INTRA-LIGAND FREE ENERGY PREDICTED BY IDOCK:    0.66 KCAL/MOL
REMARK 927      BINDING AFFINITY PREDICTED BY RF-SCORE:    0.00 PKD
ROOT
HETATM    1  C   UNL     1      -8.251  12.224  67.699  1.00  0.00    -0.166 C  
HETATM    2  C   UNL     1      -9.405  13.187  67.923  1.00  0.00    -0.215 C  
ENDROOT
BRANCH   2   3
HETATM    3  C   UNL     1      -9.112  14.183  69.047  1.00  0.00     0.105 C  
BRANCH   3   4
HETATM    4  C   UNL     1      -7.602  14.325  69.255  1.00  0.00     0.012 C  
BRANCH   4   5
HETATM    5  C   UNL     1      -7.212  15.153  70.487  1.00  0.00     0.576 C  
BRANCH   5   6
HETATM    6  C   UNL     1      -6.875  16.597  70.214  1.00  0.00     0.922 C  
HETATM    7  C   UNL     1      -7.339  17.256  69.134  1.00  0.00    -0.157 C  
HETATM    8  C   UNL     1      -5.949  17.264  71.177  1.00  0.00     1.076 C  
HETATM    9  O   UNL     1      -5.346  16.649  72.046  1.00  0.00     0.016 OA 
BRANCH   7  10
HETATM   10  C   UNL     1      -6.995  18.639  68.804  1.00  0.00    -0.311 A  
HETATM   11  C   UNL     1      -7.481  19.221  67.627  1.00  0.00    -0.271 A  
HETATM   12  C   UNL     1      -7.043  20.489  67.245  1.00  0.00    -0.362 A  
HETATM   13  C   UNL     1      -6.126  21.179  68.036  1.00  0.00    -0.373 A  
HETATM   14  C   UNL     1      -5.658  20.612  69.220  1.00  0.00    -0.405 A  
HETATM   15  C   UNL     1      -6.095  19.345  69.608  1.00  0.00    -0.308 A  
ENDBRANCH   7  10
ENDBRANCH   5   6
ENDBRANCH   4   5
ENDBRANCH   3   4
ENDBRANCH   2   3
TORSDOF 5
ENDMDL
MODEL      251
REMARK 921   NORMALIZED FREE ENERGY PREDICTED BY IDOCK:   25.47 KCAL/MOL
REMARK 922        TOTAL FREE ENERGY PREDICTED BY IDOCK:   32.48 KCAL/MOL
REMARK 923 INTER-LIGAND FREE ENERGY PREDICTED BY IDOCK:   21.50 KCAL/MOL
REMARK 924 INTRA-LIGAND FREE ENERGY PREDICTED BY IDOCK:   10.99 KCAL/MOL
REMARK 927      BINDING AFFINITY PREDICTED BY RF-SCORE:    0.00 PKD
ROOT
HETATM    1  C   UNL     1      -7.610  15.896  66.612  1.00  0.00    -0.150 C  
HETATM    2  C   UNL     1      -7.867  14.467  67.062  1.00  0.00     0.017 C  
ENDROOT
BRANCH   2   3
HETATM    3  C   UNL     1      -6.571  13.660  67.177  1.00  0.00     0.483 C  
BRANCH   3   4
HETATM    4  C   UNL     1      -5.770  13.749  65.875  1.00  0.00     7.254 C  
BRANCH   4   5
HETATM    5  C   UNL     1      -5.802  15.132  65.210  1.00  0.00    11.920 C  
BRANCH   5   6
HETATM    6  C   UNL     1      -5.751  16.304  66.158  1.00  0.00     1.752 C  
HETATM    7  C   UNL     1      -5.718  16.151  67.497  1.00  0.00    -0.173 C  
HETATM    8  C   UNL     1      -5.790  17.665  65.544  1.00  0.00     0.115 C  
HETATM    9  O   UNL     1      -6.027  17.847  64.358  1.00  0.00     0.454 OA 
BRANCH   7  10
HETATM   10  C   UNL     1      -5.720  17.260  68.451  1.00  0.00    -0.145 A  
HETATM   11  C   UNL     1      -6.250  17.079  69.735  1.00  0.00    -0.198 A  
HETATM   12  C   UNL     1      -6.377  18.168  70.596  1.00  0.00     0.847 A  
HETATM   13  C   UNL     1      -5.975  19.437  70.180  1.00  0.00    -0.282 A  
HETATM   14  C   UNL     1      -5.426  19.616  68.911  1.00  0.00    -0.226 A  
HETATM   15  C   UNL     1      -5.294  18.528  68.048  1.00  0.00    -0.170 A  
ENDBRANCH   7  10
ENDBRANCH   5   6
ENDBRANCH   4   5
ENDBRANCH   3   4
ENDBRANCH   2   3
TORSDOF 5
ENDMDL
