MODEL        1
REMARK 921   NORMALIZED FREE ENERGY PREDICTED BY IDOCK:   -7.31 KCAL/MOL
REMARK 922        TOTAL FREE ENERGY PREDICTED BY IDOCK:   -9.04 KCAL/MOL
REMARK 923 INTER-LIGAND FREE ENERGY PREDICTED BY IDOCK:   -8.60 KCAL/MOL
REMARK 924 INTRA-LIGAND FREE ENERGY PREDICTED BY IDOCK:   -0.45 KCAL/MOL
REMARK 927      BINDING AFFINITY PREDICTED BY RF-SCORE:    0.00 PKD
ROOT
HETATM    1  O   UNL     1     -11.510  16.394  63.847  1.00  0.00    -1.569 OA 
HETATM    2  C   UNL     1     -10.813  15.983  65.021  1.00  0.00    -0.404 C  
HETATM    3  H   UNL     1     -11.806  17.296  63.891  1.00  0.00     0.000 HD 
ENDROOT
BRANCH   2   4
HETATM    4  C   UNL     1     -10.331  14.521  64.948  1.00  0.00    -0.371 C  
HETATM    5  O   UNL     1      -9.939  14.022  66.237  1.00  0.00    -0.288 OA 
HETATM    6  C   UNL     1     -11.022  13.748  67.129  1.00  0.00    -0.290 C  
HETATM    7  O   UNL     1     -10.534  12.459  63.707  1.00  0.00    -0.406 OA 
HETATM    8  C   UNL     1     -11.861  12.597  66.529  1.00  0.00    -0.396 C  
HETATM    9  O   UNL     1     -11.040  11.419  66.360  1.00  0.00    -0.295 OA 
HETATM   10  C   UNL     1     -12.413  13.005  65.152  1.00  0.00    -0.496 C  
HETATM   11  H   UNL     1     -11.132  11.866  63.267  1.00  0.00     0.000 HD 
HETATM   12  H   UNL     1     -11.556  10.712  65.992  1.00  0.00     0.000 HD 
HETATM   13  O   UNL     1     -13.504  13.918  65.293  1.00  0.00    -0.612 OA 
HETATM   14  H   UNL     1     -13.845  14.170  64.443  1.00  0.00     0.000 HD 
HETATM   15  C   UNL     1     -11.301  13.559  64.234  1.00  0.00    -0.375 C  
BRANCH   6  16
HETATM   16  O   UNL     1     -10.527  13.332  68.422  1.00  0.00    -0.243 OA 
BRANCH  16  17
HETATM   17  C   UNL     1     -11.424  13.483  69.451  1.00  0.00    -0.282 A  
HETATM   18  C   UNL     1     -11.792  12.324  70.138  1.00  0.00    -0.352 A  
HETATM   19  C   UNL     1     -13.229  13.614  71.580  1.00  0.00    -0.367 A  
HETATM   20  C   UNL     1     -12.703  12.386  71.202  1.00  0.00    -0.336 A  
HETATM   21  C   UNL     1     -12.849  14.778  70.931  1.00  0.00    -0.423 A  
HETATM   22  O   UNL     1     -14.127  13.733  72.600  1.00  0.00    -0.715 OA 
HETATM   23  C   UNL     1     -11.941  14.711  69.874  1.00  0.00    -0.381 A  
HETATM   24  H   UNL     1     -14.487  14.574  72.859  1.00  0.00     0.000 HD 
ENDBRANCH  16  17
ENDBRANCH   6  16
ENDBRANCH   2   4
TORSDOF 3
ENDMDL
MODEL        2
REMARK 921   NORMALIZED FREE ENERGY PREDICTED BY IDOCK:   -6.82 KCAL/MOL
REMARK 922        TOTAL FREE ENERGY PREDICTED BY IDOCK:   -8.46 KCAL/MOL
REMARK 923 INTER-LIGAND FREE ENERGY PREDICTED BY IDOCK:   -8.06 KCAL/MOL
REMARK 924 INTRA-LIGAND FREE ENERGY PREDICTED BY IDOCK:   -0.41 KCAL/MOL
REMARK 927      BINDING AFFINITY PREDICTED BY RF-SCORE:    0.00 PKD
ROOT
HETATM    1  O   UNL     1     -13.381  12.367  64.646  1.00  0.00    -0.778 OA 
HETATM    2  C   UNL     1     -12.163  12.780  65.261  1.00  0.00    -0.483 C  
HETATM    3  H   UNL     1     -13.454  11.422  64.571  1.00  0.00     0.000 HD 
ENDROOT
BRANCH   2   4
HETATM    4  C   UNL     1     -12.046  14.312  65.383  1.00  0.00    -0.396 C  
HETATM    5  O   UNL     1     -12.408  14.773  66.694  1.00  0.00    -0.156 OA 
HETATM    6  C   UNL     1     -11.446  14.497  67.715  1.00  0.00    -0.340 C  
HETATM    7  O   UNL     1     -10.907  16.257  64.519  1.00  0.00    -0.867 OA 
HETATM    8  C   UNL     1     -10.159  15.288  67.390  1.00  0.00    -0.232 C  
HETATM    9  O   UNL     1     -10.445  16.704  67.341  1.00  0.00    -0.309 OA 
HETATM   10  C   UNL     1      -9.603  14.857  66.022  1.00  0.00    -0.313 C  
HETATM   11  H   UNL     1     -10.072  16.616  64.238  1.00  0.00     0.000 HD 
HETATM   12  H   UNL     1      -9.654  17.191  67.141  1.00  0.00     0.000 HD 
HETATM   13  O   UNL     1      -8.967  13.581  66.111  1.00  0.00    -0.460 OA 
HETATM   14  H   UNL     1      -8.623  13.315  65.266  1.00  0.00     0.000 HD 
HETATM   15  C   UNL     1     -10.693  14.893  64.928  1.00  0.00    -0.405 C  
BRANCH   6  16
HETATM   16  O   UNL     1     -11.934  14.922  69.007  1.00  0.00    -0.308 OA 
BRANCH  16  17
HETATM   17  C   UNL     1     -12.276  13.895  69.853  1.00  0.00    -0.333 A  
HETATM   18  C   UNL     1     -11.843  12.617  69.494  1.00  0.00    -0.376 A  
HETATM   19  C   UNL     1     -12.872  11.694  71.469  1.00  0.00    -0.364 A  
HETATM   20  C   UNL     1     -12.148  11.510  70.298  1.00  0.00    -0.444 A  
HETATM   21  C   UNL     1     -13.280  12.960  71.857  1.00  0.00    -0.521 A  
HETATM   22  O   UNL     1     -13.206  10.654  72.284  1.00  0.00    -0.594 OA 
HETATM   23  C   UNL     1     -12.973  14.059  71.054  1.00  0.00    -0.378 A  
HETATM   24  H   UNL     1     -13.702  10.780  73.085  1.00  0.00     0.000 HD 
ENDBRANCH  16  17
ENDBRANCH   6  16
ENDBRANCH   2   4
TORSDOF 3
ENDMDL
MODEL        3
REMARK 921   NORMALIZED FREE ENERGY PREDICTED BY IDOCK:   -6.69 KCAL/MOL
REMARK 922        TOTAL FREE ENERGY PREDICTED BY IDOCK:   -8.31 KCAL/MOL
REMARK 923 INTER-LIGAND FREE ENERGY PREDICTED BY IDOCK:   -7.71 KCAL/MOL
REMARK 924 INTRA-LIGAND FREE ENERGY PREDICTED BY IDOCK:   -0.60 KCAL/MOL
REMARK 927      BINDING AFFINITY PREDICTED BY RF-SCORE:    0.00 PKD
ROOT
HETATM    1  O   UNL     1      -9.362  12.177  63.379  1.00  0.00    -0.651 OA 
HETATM    2  C   UNL     1     -10.492  11.508  63.934  1.00  0.00    -0.385 C  
HETATM    3  H   UNL     1      -8.656  11.582  63.154  1.00  0.00     0.000 HD 
ENDROOT
BRANCH   2   4
HETATM    4  C   UNL     1     -11.637  12.472  64.297  1.00  0.00    -0.371 C  
HETATM    5  O   UNL     1     -12.260  12.118  65.543  1.00  0.00    -0.549 OA 
HETATM    6  C   UNL     1     -11.482  12.410  66.707  1.00  0.00    -0.362 C  
HETATM    7  O   UNL     1     -12.459  14.725  64.006  1.00  0.00    -0.910 OA 
HETATM    8  C   UNL     1     -11.315  13.943  66.803  1.00  0.00    -0.333 C  
HETATM    9  O   UNL     1     -12.610  14.580  66.893  1.00  0.00    -0.492 OA 
HETATM   10  C   UNL     1     -10.597  14.478  65.552  1.00  0.00    -0.351 C  
HETATM   11  H   UNL     1     -12.226  15.646  63.979  1.00  0.00     0.000 HD 
HETATM   12  H   UNL     1     -12.507  15.522  66.952  1.00  0.00     0.000 HD 
HETATM   13  O   UNL     1      -9.201  14.178  65.601  1.00  0.00    -0.487 OA 
HETATM   14  H   UNL     1      -8.757  14.508  64.828  1.00  0.00     0.000 HD 
HETATM   15  C   UNL     1     -11.260  13.966  64.253  1.00  0.00    -0.262 C  
BRANCH   6  16
HETATM   16  O   UNL     1     -12.154  11.944  67.900  1.00  0.00    -0.558 OA 
BRANCH  16  17
HETATM   17  C   UNL     1     -11.515  10.913  68.545  1.00  0.00    -0.310 A  
HETATM   18  C   UNL     1     -10.800  10.019  67.746  1.00  0.00    -0.337 A  
HETATM   19  C   UNL     1     -10.147   8.766  69.699  1.00  0.00    -0.204 A  
HETATM   20  C   UNL     1     -10.119   8.937  68.321  1.00  0.00    -0.219 A  
HETATM   21  C   UNL     1     -10.824   9.664  70.510  1.00  0.00    -0.371 A  
HETATM   22  O   UNL     1      -9.512   7.727  70.313  1.00  0.00    -0.160 OA 
HETATM   23  C   UNL     1     -11.499  10.740  69.932  1.00  0.00    -0.398 A  
HETATM   24  H   UNL     1      -9.532   7.611  71.256  1.00  0.00     0.000 HD 
ENDBRANCH  16  17
ENDBRANCH   6  16
ENDBRANCH   2   4
TORSDOF 3
ENDMDL
MODEL        4
REMARK 921   NORMALIZED FREE ENERGY PREDICTED BY IDOCK:   -6.66 KCAL/MOL
REMARK 922        TOTAL FREE ENERGY PREDICTED BY IDOCK:   -8.27 KCAL/MOL
REMARK 923 INTER-LIGAND FREE ENERGY PREDICTED BY IDOCK:   -7.67 KCAL/MOL
REMARK 924 INTRA-LIGAND FREE ENERGY PREDICTED BY IDOCK:   -0.61 KCAL/MOL
REMARK 927      BINDING AFFINITY PREDICTED BY RF-SCORE:    0.00 PKD
ROOT
HETATM    1  O   UNL     1      -9.476  12.042  63.200  1.00  0.00    -0.637 OA 
HETATM    2  C   UNL     1     -10.603  11.364  63.749  1.00  0.00    -0.403 C  
HETATM    3  H   UNL     1      -8.760  11.455  62.989  1.00  0.00     0.000 HD 
ENDROOT
BRANCH   2   4
HETATM    4  C   UNL     1     -11.766  12.317  64.089  1.00  0.00    -0.402 C  
HETATM    5  O   UNL     1     -12.384  11.980  65.342  1.00  0.00    -0.457 OA 
HETATM    6  C   UNL     1     -11.613  12.312  66.500  1.00  0.00    -0.377 C  
HETATM    7  O   UNL     1     -12.626  14.547  63.745  1.00  0.00    -0.972 OA 
HETATM    8  C   UNL     1     -11.473  13.850  66.560  1.00  0.00    -0.348 C  
HETATM    9  O   UNL     1     -12.778  14.466  66.634  1.00  0.00    -0.485 OA 
HETATM   10  C   UNL     1     -10.762  14.368  65.298  1.00  0.00    -0.375 C  
HETATM   11  H   UNL     1     -12.409  15.471  63.697  1.00  0.00     0.000 HD 
HETATM   12  H   UNL     1     -12.692  15.411  66.672  1.00  0.00     0.000 HD 
HETATM   13  O   UNL     1      -9.361  14.094  65.356  1.00  0.00    -0.488 OA 
HETATM   14  H   UNL     1      -8.922  14.414  64.576  1.00  0.00     0.000 HD 
HETATM   15  C   UNL     1     -11.414  13.815  64.011  1.00  0.00    -0.216 C  
BRANCH   6  16
HETATM   16  O   UNL     1     -12.277  11.862  67.702  1.00  0.00    -0.510 OA 
BRANCH  16  17
HETATM   17  C   UNL     1     -11.601  10.887  68.395  1.00  0.00    -0.276 A  
HETATM   18  C   UNL     1     -11.820  10.831  69.773  1.00  0.00    -0.409 A  
HETATM   19  C   UNL     1     -10.316   8.956  69.953  1.00  0.00    -0.206 A  
HETATM   20  C   UNL     1     -11.170   9.868  70.558  1.00  0.00    -0.399 A  
HETATM   21  C   UNL     1     -10.114   8.976  68.582  1.00  0.00    -0.207 A  
HETATM   22  O   UNL     1      -9.649   8.004  70.667  1.00  0.00    -0.165 OA 
HETATM   23  C   UNL     1     -10.764   9.936  67.805  1.00  0.00    -0.332 A  
HETATM   24  H   UNL     1      -9.065   7.380  70.253  1.00  0.00     0.000 HD 
ENDBRANCH  16  17
ENDBRANCH   6  16
ENDBRANCH   2   4
TORSDOF 3
ENDMDL
MODEL        5
REMARK 921   NORMALIZED FREE ENERGY PREDICTED BY IDOCK:   -6.56 KCAL/MOL
REMARK 922        TOTAL FREE ENERGY PREDICTED BY IDOCK:   -8.16 KCAL/MOL
REMARK 923 INTER-LIGAND FREE ENERGY PREDICTED BY IDOCK:   -8.02 KCAL/MOL
REMARK 924 INTRA-LIGAND FREE ENERGY PREDICTED BY IDOCK:   -0.14 KCAL/MOL
REMARK 927      BINDING AFFINITY PREDICTED BY RF-SCORE:    0.00 PKD
ROOT
HETATM    1  O   UNL     1     -11.225  16.473  63.969  1.00  0.00    -1.409 OA 
HETATM    2  C   UNL     1     -11.323  15.219  64.642  1.00  0.00    -0.358 C  
HETATM    3  H   UNL     1     -11.971  16.648  63.407  1.00  0.00     0.000 HD 
ENDROOT
BRANCH   2   4
HETATM    4  C   UNL     1     -10.114  14.936  65.554  1.00  0.00    -0.370 C  
HETATM    5  O   UNL     1     -10.016  15.890  66.624  1.00  0.00    -0.239 OA 
HETATM    6  C   UNL     1     -10.989  15.733  67.660  1.00  0.00    -0.302 C  
HETATM    7  O   UNL     1      -8.642  13.200  66.361  1.00  0.00    -0.419 OA 
HETATM    8  C   UNL     1     -10.736  14.375  68.355  1.00  0.00    -0.245 C  
HETATM    9  O   UNL     1      -9.403  14.341  68.910  1.00  0.00    -0.333 OA 
HETATM   10  C   UNL     1     -10.869  13.227  67.339  1.00  0.00    -0.267 C  
HETATM   11  H   UNL     1      -8.586  12.307  66.681  1.00  0.00     0.000 HD 
HETATM   12  H   UNL     1      -9.248  13.507  69.337  1.00  0.00     0.000 HD 
HETATM   13  O   UNL     1     -12.242  12.978  67.031  1.00  0.00    -0.341 OA 
HETATM   14  H   UNL     1     -12.324  12.269  66.404  1.00  0.00     0.000 HD 
HETATM   15  C   UNL     1     -10.023  13.487  66.073  1.00  0.00    -0.299 C  
BRANCH   6  16
HETATM   16  O   UNL     1     -10.863  16.784  68.644  1.00  0.00    -0.336 OA 
BRANCH  16  17
HETATM   17  C   UNL     1     -10.181  17.894  68.207  1.00  0.00    -0.388 A  
HETATM   18  C   UNL     1      -8.837  17.990  68.575  1.00  0.00    -0.304 A  
HETATM   19  C   UNL     1      -8.643  20.080  67.389  1.00  0.00    -0.341 A  
HETATM   20  C   UNL     1      -8.065  19.089  68.173  1.00  0.00    -0.347 A  
HETATM   21  C   UNL     1      -9.965  19.983  66.987  1.00  0.00    -0.582 A  
HETATM   22  O   UNL     1      -7.945  21.176  66.978  1.00  0.00    -0.625 OA 
HETATM   23  C   UNL     1     -10.729  18.886  67.388  1.00  0.00    -0.519 A  
HETATM   24  H   UNL     1      -8.340  21.854  66.441  1.00  0.00     0.000 HD 
ENDBRANCH  16  17
ENDBRANCH   6  16
ENDBRANCH   2   4
TORSDOF 3
ENDMDL
MODEL        6
REMARK 921   NORMALIZED FREE ENERGY PREDICTED BY IDOCK:   -6.54 KCAL/MOL
REMARK 922        TOTAL FREE ENERGY PREDICTED BY IDOCK:   -8.14 KCAL/MOL
REMARK 923 INTER-LIGAND FREE ENERGY PREDICTED BY IDOCK:   -7.77 KCAL/MOL
REMARK 924 INTRA-LIGAND FREE ENERGY PREDICTED BY IDOCK:   -0.37 KCAL/MOL
REMARK 927      BINDING AFFINITY PREDICTED BY RF-SCORE:    0.00 PKD
ROOT
HETATM    1  O   UNL     1     -12.827  12.944  71.313  1.00  0.00    -0.356 OA 
HETATM    2  C   UNL     1     -11.853  12.492  70.374  1.00  0.00    -0.160 C  
HETATM    3  H   UNL     1     -12.642  13.815  71.645  1.00  0.00     0.000 HD 
ENDROOT
BRANCH   2   4
HETATM    4  C   UNL     1     -12.154  11.080  69.835  1.00  0.00    -0.361 C  
HETATM    5  O   UNL     1     -12.379  11.086  68.416  1.00  0.00    -0.528 OA 
HETATM    6  C   UNL     1     -11.204  11.271  67.623  1.00  0.00    -0.292 C  
HETATM    7  O   UNL     1     -11.796   8.724  70.226  1.00  0.00    -0.476 OA 
HETATM    8  C   UNL     1     -10.279  10.052  67.843  1.00  0.00    -0.188 C  
HETATM    9  O   UNL     1     -10.958   8.836  67.457  1.00  0.00    -0.482 OA 
HETATM   10  C   UNL     1      -9.891   9.942  69.327  1.00  0.00    -0.207 C  
HETATM   11  H   UNL     1     -11.165   8.060  70.479  1.00  0.00     0.000 HD 
HETATM   12  H   UNL     1     -10.390   8.087  67.593  1.00  0.00     0.000 HD 
HETATM   13  O   UNL     1      -8.914  10.927  69.671  1.00  0.00    -0.379 OA 
HETATM   14  H   UNL     1      -8.675  10.860  70.588  1.00  0.00     0.000 HD 
HETATM   15  C   UNL     1     -11.132  10.002  70.246  1.00  0.00    -0.318 C  
BRANCH   6  16
HETATM   16  O   UNL     1     -11.542  11.345  66.219  1.00  0.00    -0.331 OA 
BRANCH  16  17
HETATM   17  C   UNL     1     -11.454  12.605  65.679  1.00  0.00    -0.350 A  
HETATM   18  C   UNL     1     -12.493  12.999  64.834  1.00  0.00    -0.512 A  
HETATM   19  C   UNL     1     -11.439  15.142  64.507  1.00  0.00    -0.316 A  
HETATM   20  C   UNL     1     -12.485  14.268  64.238  1.00  0.00    -0.304 A  
HETATM   21  C   UNL     1     -10.417  14.779  65.370  1.00  0.00    -0.401 A  
HETATM   22  O   UNL     1     -11.372  16.384  63.948  1.00  0.00    -1.510 OA 
HETATM   23  C   UNL     1     -10.431  13.515  65.961  1.00  0.00    -0.299 A  
HETATM   24  H   UNL     1     -10.657  16.982  64.132  1.00  0.00     0.000 HD 
ENDBRANCH  16  17
ENDBRANCH   6  16
ENDBRANCH   2   4
TORSDOF 3
ENDMDL
MODEL        7
REMARK 921   NORMALIZED FREE ENERGY PREDICTED BY IDOCK:   -6.52 KCAL/MOL
REMARK 922        TOTAL FREE ENERGY PREDICTED BY IDOCK:   -8.11 KCAL/MOL
REMARK 923 INTER-LIGAND FREE ENERGY PREDICTED BY IDOCK:   -7.70 KCAL/MOL
REMARK 924 INTRA-LIGAND FREE ENERGY PREDICTED BY IDOCK:   -0.41 KCAL/MOL
REMARK 927      BINDING AFFINITY PREDICTED BY RF-SCORE:    0.00 PKD
ROOT
HETATM    1  O   UNL     1     -12.024  16.099  63.680  1.00  0.00    -1.375 OA 
HETATM    2  C   UNL     1     -12.045  14.894  64.442  1.00  0.00    -0.401 C  
HETATM    3  H   UNL     1     -12.871  16.528  63.647  1.00  0.00     0.000 HD 
ENDROOT
BRANCH   2   4
HETATM    4  C   UNL     1     -10.671  14.199  64.497  1.00  0.00    -0.303 C  
HETATM    5  O   UNL     1      -9.763  14.879  65.380  1.00  0.00    -0.313 OA 
HETATM    6  C   UNL     1     -10.040  14.710  66.773  1.00  0.00    -0.265 C  
HETATM    7  O   UNL     1      -9.542  12.081  64.233  1.00  0.00    -0.464 OA 
HETATM    8  C   UNL     1      -9.845  13.217  67.124  1.00  0.00    -0.237 C  
HETATM    9  O   UNL     1      -8.491  12.809  66.829  1.00  0.00    -0.362 OA 
HETATM   10  C   UNL     1     -10.806  12.348  66.295  1.00  0.00    -0.266 C  
HETATM   11  H   UNL     1      -9.575  11.148  64.413  1.00  0.00     0.000 HD 
HETATM   12  H   UNL     1      -8.371  11.892  67.046  1.00  0.00     0.000 HD 
HETATM   13  O   UNL     1     -12.140  12.441  66.799  1.00  0.00    -0.578 OA 
HETATM   14  H   UNL     1     -12.733  11.904  66.287  1.00  0.00     0.000 HD 
HETATM   15  C   UNL     1     -10.724  12.687  64.790  1.00  0.00    -0.308 C  
BRANCH   6  16
HETATM   16  O   UNL     1      -9.128  15.495  67.574  1.00  0.00    -0.189 OA 
BRANCH  16  17
HETATM   17  C   UNL     1      -9.226  16.852  67.383  1.00  0.00    -0.222 A  
HETATM   18  C   UNL     1     -10.423  17.455  67.777  1.00  0.00    -0.376 A  
HETATM   19  C   UNL     1      -9.589  19.606  67.078  1.00  0.00    -0.353 A  
HETATM   20  C   UNL     1     -10.610  18.835  67.618  1.00  0.00    -0.481 A  
HETATM   21  C   UNL     1      -8.383  19.028  66.714  1.00  0.00    -0.298 A  
HETATM   22  O   UNL     1      -9.718  20.950  66.890  1.00  0.00    -0.664 OA 
HETATM   23  C   UNL     1      -8.201  17.654  66.875  1.00  0.00    -0.248 A  
HETATM   24  H   UNL     1      -9.019  21.478  66.521  1.00  0.00     0.000 HD 
ENDBRANCH  16  17
ENDBRANCH   6  16
ENDBRANCH   2   4
TORSDOF 3
ENDMDL
MODEL        8
REMARK 921   NORMALIZED FREE ENERGY PREDICTED BY IDOCK:   -6.46 KCAL/MOL
REMARK 922        TOTAL FREE ENERGY PREDICTED BY IDOCK:   -8.04 KCAL/MOL
REMARK 923 INTER-LIGAND FREE ENERGY PREDICTED BY IDOCK:   -7.74 KCAL/MOL
REMARK 924 INTRA-LIGAND FREE ENERGY PREDICTED BY IDOCK:   -0.30 KCAL/MOL
REMARK 927      BINDING AFFINITY PREDICTED BY RF-SCORE:    0.00 PKD
ROOT
HETATM    1  O   UNL     1     -12.461  10.959  68.601  1.00  0.00    -0.772 OA 
HETATM    2  C   UNL     1     -11.152  11.361  68.205  1.00  0.00    -0.248 C  
HETATM    3  H   UNL     1     -12.452  10.269  69.254  1.00  0.00     0.000 HD 
ENDROOT
BRANCH   2   4
HETATM    4  C   UNL     1     -11.167  12.481  67.146  1.00  0.00    -0.300 C  
HETATM    5  O   UNL     1     -11.990  13.587  67.549  1.00  0.00    -0.361 OA 
HETATM    6  C   UNL     1     -11.433  14.405  68.582  1.00  0.00    -0.287 C  
HETATM    7  O   UNL     1      -9.902  13.489  65.353  1.00  0.00    -0.481 OA 
HETATM    8  C   UNL     1     -10.157  15.079  68.026  1.00  0.00    -0.223 C  
HETATM    9  O   UNL     1     -10.483  15.884  66.871  1.00  0.00    -0.301 OA 
HETATM   10  C   UNL     1      -9.135  14.011  67.602  1.00  0.00    -0.192 C  
HETATM   11  H   UNL     1      -9.042  13.776  65.066  1.00  0.00     0.000 HD 
HETATM   12  H   UNL     1      -9.699  16.298  66.529  1.00  0.00     0.000 HD 
HETATM   13  O   UNL     1      -8.504  13.429  68.745  1.00  0.00    -0.346 OA 
HETATM   14  H   UNL     1      -7.872  12.770  68.483  1.00  0.00     0.000 HD 
HETATM   15  C   UNL     1      -9.773  12.947  66.681  1.00  0.00    -0.254 C  
BRANCH   6  16
HETATM   16  O   UNL     1     -12.365  15.437  68.975  1.00  0.00    -0.176 OA 
BRANCH  16  17
HETATM   17  C   UNL     1     -12.581  15.523  70.329  1.00  0.00    -0.323 A  
HETATM   18  C   UNL     1     -11.541  16.050  71.098  1.00  0.00    -0.492 A  
HETATM   19  C   UNL     1     -12.859  15.780  73.098  1.00  0.00    -0.522 A  
HETATM   20  C   UNL     1     -11.675  16.173  72.488  1.00  0.00    -0.525 A  
HETATM   21  C   UNL     1     -13.913  15.286  72.346  1.00  0.00    -0.642 A  
HETATM   22  O   UNL     1     -13.041  15.866  74.447  1.00  0.00    -0.847 OA 
HETATM   23  C   UNL     1     -13.775  15.167  70.962  1.00  0.00    -0.450 A  
HETATM   24  H   UNL     1     -13.852  15.597  74.864  1.00  0.00     0.000 HD 
ENDBRANCH  16  17
ENDBRANCH   6  16
ENDBRANCH   2   4
TORSDOF 3
ENDMDL
MODEL        9
REMARK 921   NORMALIZED FREE ENERGY PREDICTED BY IDOCK:   -6.46 KCAL/MOL
REMARK 922        TOTAL FREE ENERGY PREDICTED BY IDOCK:   -8.04 KCAL/MOL
REMARK 923 INTER-LIGAND FREE ENERGY PREDICTED BY IDOCK:   -7.45 KCAL/MOL
REMARK 924 INTRA-LIGAND FREE ENERGY PREDICTED BY IDOCK:   -0.59 KCAL/MOL
REMARK 927      BINDING AFFINITY PREDICTED BY RF-SCORE:    0.00 PKD
ROOT
HETATM    1  O   UNL     1     -10.591  12.260  67.628  1.00  0.00    -0.209 OA 
HETATM    2  C   UNL     1     -10.837  13.640  67.891  1.00  0.00    -0.250 C  
HETATM    3  H   UNL     1      -9.949  11.882  68.218  1.00  0.00     0.000 HD 
ENDROOT
BRANCH   2   4
HETATM    4  C   UNL     1     -11.878  14.253  66.934  1.00  0.00    -0.433 C  
HETATM    5  O   UNL     1     -11.644  15.653  66.716  1.00  0.00    -0.000 OA 
HETATM    6  C   UNL     1     -10.522  15.952  65.881  1.00  0.00    -0.359 C  
HETATM    7  O   UNL     1     -13.388  13.758  65.116  1.00  0.00    -0.688 OA 
HETATM    8  C   UNL     1     -10.817  15.403  64.466  1.00  0.00    -0.116 C  
HETATM    9  O   UNL     1     -12.013  16.015  63.934  1.00  0.00    -1.267 OA 
HETATM   10  C   UNL     1     -11.032  13.881  64.521  1.00  0.00    -0.369 C  
HETATM   11  H   UNL     1     -13.500  13.288  64.297  1.00  0.00     0.000 HD 
HETATM   12  H   UNL     1     -12.194  15.678  63.065  1.00  0.00     0.000 HD 
HETATM   13  O   UNL     1      -9.787  13.198  64.684  1.00  0.00    -0.583 OA 
HETATM   14  H   UNL     1      -9.920  12.258  64.718  1.00  0.00     0.000 HD 
HETATM   15  C   UNL     1     -12.060  13.491  65.607  1.00  0.00    -0.430 C  
BRANCH   6  16
HETATM   16  O   UNL     1     -10.320  17.380  65.788  1.00  0.00    -0.543 OA 
BRANCH  16  17
HETATM   17  C   UNL     1      -9.482  17.899  66.746  1.00  0.00    -0.287 A  
HETATM   18  C   UNL     1      -8.126  17.587  66.628  1.00  0.00    -0.289 A  
HETATM   19  C   UNL     1      -7.639  18.883  68.602  1.00  0.00    -0.331 A  
HETATM   20  C   UNL     1      -7.200  18.073  67.562  1.00  0.00    -0.202 A  
HETATM   21  C   UNL     1      -8.976  19.230  68.713  1.00  0.00    -0.399 A  
HETATM   22  O   UNL     1      -6.786  19.376  69.545  1.00  0.00    -0.319 OA 
HETATM   23  C   UNL     1      -9.893  18.744  67.780  1.00  0.00    -0.375 A  
HETATM   24  H   UNL     1      -7.086  19.930  70.256  1.00  0.00     0.000 HD 
ENDBRANCH  16  17
ENDBRANCH   6  16
ENDBRANCH   2   4
TORSDOF 3
ENDMDL
MODEL       10
REMARK 921   NORMALIZED FREE ENERGY PREDICTED BY IDOCK:   -6.43 KCAL/MOL
REMARK 922        TOTAL FREE ENERGY PREDICTED BY IDOCK:   -8.00 KCAL/MOL
REMARK 923 INTER-LIGAND FREE ENERGY PREDICTED BY IDOCK:   -7.49 KCAL/MOL
REMARK 924 INTRA-LIGAND FREE ENERGY PREDICTED BY IDOCK:   -0.51 KCAL/MOL
REMARK 927      BINDING AFFINITY PREDICTED BY RF-SCORE:    0.00 PKD
ROOT
HETATM    1  O   UNL     1      -7.015  18.146  69.411  1.00  0.00    -0.202 OA 
HETATM    2  C   UNL     1      -7.289  17.629  68.110  1.00  0.00    -0.228 C  
HETATM    3  H   UNL     1      -6.749  17.472  70.026  1.00  0.00     0.000 HD 
ENDROOT
BRANCH   2   4
HETATM    4  C   UNL     1      -7.719  18.721  67.112  1.00  0.00    -0.232 C  
HETATM    5  O   UNL     1      -8.486  18.179  66.025  1.00  0.00    -0.496 OA 
HETATM    6  C   UNL     1      -9.820  17.793  66.364  1.00  0.00    -0.324 C  
HETATM    7  O   UNL     1      -8.216  21.074  66.888  1.00  0.00    -0.560 OA 
HETATM    8  C   UNL     1     -10.601  19.065  66.767  1.00  0.00    -0.425 C  
HETATM    9  O   UNL     1     -10.616  20.007  65.672  1.00  0.00    -0.460 OA 
HETATM   10  C   UNL     1      -9.932  19.737  67.978  1.00  0.00    -0.433 C  
HETATM   11  H   UNL     1      -8.646  21.824  67.282  1.00  0.00     0.000 HD 
HETATM   12  H   UNL     1     -11.096  20.789  65.919  1.00  0.00     0.000 HD 
HETATM   13  O   UNL     1     -10.208  19.013  69.178  1.00  0.00    -0.537 OA 
HETATM   14  H   UNL     1      -9.795  19.428  69.926  1.00  0.00     0.000 HD 
HETATM   15  C   UNL     1      -8.417  19.938  67.751  1.00  0.00    -0.310 C  
BRANCH   6  16
HETATM   16  O   UNL     1     -10.481  17.186  65.230  1.00  0.00    -0.655 OA 
BRANCH  16  17
HETATM   17  C   UNL     1     -10.900  15.895  65.441  1.00  0.00    -0.349 A  
HETATM   18  C   UNL     1     -11.621  15.294  64.407  1.00  0.00    -0.265 A  
HETATM   19  C   UNL     1     -11.817  13.268  65.698  1.00  0.00    -0.380 A  
HETATM   20  C   UNL     1     -12.089  13.978  64.536  1.00  0.00    -0.484 A  
HETATM   21  C   UNL     1     -11.074  13.838  66.719  1.00  0.00    -0.316 A  
HETATM   22  O   UNL     1     -12.255  11.990  65.884  1.00  0.00    -0.531 OA 
HETATM   23  C   UNL     1     -10.609  15.147  66.585  1.00  0.00    -0.304 A  
HETATM   24  H   UNL     1     -12.069  11.504  66.679  1.00  0.00     0.000 HD 
ENDBRANCH  16  17
ENDBRANCH   6  16
ENDBRANCH   2   4
TORSDOF 3
ENDMDL
MODEL       11
REMARK 921   NORMALIZED FREE ENERGY PREDICTED BY IDOCK:   -6.40 KCAL/MOL
REMARK 922        TOTAL FREE ENERGY PREDICTED BY IDOCK:   -7.97 KCAL/MOL
REMARK 923 INTER-LIGAND FREE ENERGY PREDICTED BY IDOCK:   -7.57 KCAL/MOL
REMARK 924 INTRA-LIGAND FREE ENERGY PREDICTED BY IDOCK:   -0.41 KCAL/MOL
REMARK 927      BINDING AFFINITY PREDICTED BY RF-SCORE:    0.00 PKD
ROOT
HETATM    1  O   UNL     1      -7.569  14.599  69.865  1.00  0.00    -0.396 OA 
HETATM    2  C   UNL     1      -7.998  15.186  68.637  1.00  0.00    -0.151 C  
HETATM    3  H   UNL     1      -7.091  15.208  70.416  1.00  0.00     0.000 HD 
ENDROOT
BRANCH   2   4
HETATM    4  C   UNL     1      -8.774  14.199  67.744  1.00  0.00    -0.182 C  
HETATM    5  O   UNL     1      -9.810  13.520  68.472  1.00  0.00    -0.232 OA 
HETATM    6  C   UNL     1     -10.951  14.323  68.785  1.00  0.00    -0.255 C  
HETATM    7  O   UNL     1      -9.442  13.735  65.470  1.00  0.00    -0.508 OA 
HETATM    8  C   UNL     1     -11.636  14.723  67.458  1.00  0.00    -0.361 C  
HETATM    9  O   UNL     1     -12.040  13.541  66.731  1.00  0.00    -0.389 OA 
HETATM   10  C   UNL     1     -10.661  15.525  66.578  1.00  0.00    -0.304 C  
HETATM   11  H   UNL     1      -9.769  14.107  64.659  1.00  0.00     0.000 HD 
HETATM   12  H   UNL     1     -12.461  13.786  65.916  1.00  0.00     0.000 HD 
HETATM   13  O   UNL     1     -10.513  16.858  67.070  1.00  0.00    -0.314 OA 
HETATM   14  H   UNL     1      -9.911  17.353  66.527  1.00  0.00     0.000 HD 
HETATM   15  C   UNL     1      -9.304  14.802  66.428  1.00  0.00    -0.291 C  
BRANCH   6  16
HETATM   16  O   UNL     1     -11.896  13.579  69.586  1.00  0.00    -0.300 OA 
BRANCH  16  17
HETATM   17  C   UNL     1     -12.259  14.197  70.758  1.00  0.00    -0.365 A  
HETATM   18  C   UNL     1     -11.646  15.420  71.038  1.00  0.00    -0.410 A  
HETATM   19  C   UNL     1     -12.893  15.594  73.094  1.00  0.00    -0.509 A  
HETATM   20  C   UNL     1     -11.957  16.120  72.213  1.00  0.00    -0.637 A  
HETATM   21  C   UNL     1     -13.535  14.398  72.815  1.00  0.00    -0.582 A  
HETATM   22  O   UNL     1     -13.226  16.225  74.256  1.00  0.00    -0.934 OA 
HETATM   23  C   UNL     1     -13.223  13.706  71.643  1.00  0.00    -0.447 A  
HETATM   24  H   UNL     1     -13.867  15.865  74.859  1.00  0.00     0.000 HD 
ENDBRANCH  16  17
ENDBRANCH   6  16
ENDBRANCH   2   4
TORSDOF 3
ENDMDL
MODEL       12
REMARK 921   NORMALIZED FREE ENERGY PREDICTED BY IDOCK:   -6.40 KCAL/MOL
REMARK 922        TOTAL FREE ENERGY PREDICTED BY IDOCK:   -7.97 KCAL/MOL
REMARK 923 INTER-LIGAND FREE ENERGY PREDICTED BY IDOCK:   -7.39 KCAL/MOL
REMARK 924 INTRA-LIGAND FREE ENERGY PREDICTED BY IDOCK:   -0.58 KCAL/MOL
REMARK 927      BINDING AFFINITY PREDICTED BY RF-SCORE:    0.00 PKD
ROOT
HETATM    1  O   UNL     1     -10.153  12.356  67.312  1.00  0.00    -0.207 OA 
HETATM    2  C   UNL     1     -10.453  13.706  67.656  1.00  0.00    -0.238 C  
HETATM    3  H   UNL     1      -9.411  12.010  67.794  1.00  0.00     0.000 HD 
ENDROOT
BRANCH   2   4
HETATM    4  C   UNL     1     -11.657  14.267  66.875  1.00  0.00    -0.387 C  
HETATM    5  O   UNL     1     -11.532  15.679  66.639  1.00  0.00    -0.068 OA 
HETATM    6  C   UNL     1     -10.566  16.038  65.647  1.00  0.00    -0.377 C  
HETATM    7  O   UNL     1     -13.398  13.699  65.300  1.00  0.00    -0.669 OA 
HETATM    8  C   UNL     1     -11.044  15.479  64.287  1.00  0.00     0.027 C  
HETATM    9  O   UNL     1     -12.337  16.029  63.949  1.00  0.00    -1.085 OA 
HETATM   10  C   UNL     1     -11.170  13.948  64.357  1.00  0.00    -0.329 C  
HETATM   11  H   UNL     1     -13.610  13.227  64.503  1.00  0.00     0.000 HD 
HETATM   12  H   UNL     1     -12.630  15.686  63.114  1.00  0.00     0.000 HD 
HETATM   13  O   UNL     1      -9.881  13.330  64.322  1.00  0.00    -0.676 OA 
HETATM   14  H   UNL     1      -9.959  12.384  64.366  1.00  0.00     0.000 HD 
HETATM   15  C   UNL     1     -12.000  13.501  65.581  1.00  0.00    -0.397 C  
BRANCH   6  16
HETATM   16  O   UNL     1     -10.454  17.475  65.541  1.00  0.00    -0.628 OA 
BRANCH  16  17
HETATM   17  C   UNL     1      -9.606  18.049  66.457  1.00  0.00    -0.315 A  
HETATM   18  C   UNL     1     -10.199  18.768  67.496  1.00  0.00    -0.444 A  
HETATM   19  C   UNL     1      -8.027  19.267  68.415  1.00  0.00    -0.341 A  
HETATM   20  C   UNL     1      -9.410  19.387  68.476  1.00  0.00    -0.446 A  
HETATM   21  C   UNL     1      -7.424  18.529  67.410  1.00  0.00    -0.223 A  
HETATM   22  O   UNL     1      -7.209  19.856  69.333  1.00  0.00    -0.301 OA 
HETATM   23  C   UNL     1      -8.215  17.914  66.438  1.00  0.00    -0.287 A  
HETATM   24  H   UNL     1      -6.263  19.774  69.292  1.00  0.00     0.000 HD 
ENDBRANCH  16  17
ENDBRANCH   6  16
ENDBRANCH   2   4
TORSDOF 3
ENDMDL
MODEL       13
REMARK 921   NORMALIZED FREE ENERGY PREDICTED BY IDOCK:   -6.35 KCAL/MOL
REMARK 922        TOTAL FREE ENERGY PREDICTED BY IDOCK:   -7.91 KCAL/MOL
REMARK 923 INTER-LIGAND FREE ENERGY PREDICTED BY IDOCK:   -7.28 KCAL/MOL
REMARK 924 INTRA-LIGAND FREE ENERGY PREDICTED BY IDOCK:   -0.63 KCAL/MOL
REMARK 927      BINDING AFFINITY PREDICTED BY RF-SCORE:    0.00 PKD
ROOT
HETATM    1  O   UNL     1      -7.455  19.155  69.058  1.00  0.00    -0.345 OA 
HETATM    2  C   UNL     1      -7.161  18.334  67.930  1.00  0.00    -0.228 C  
HETATM    3  H   UNL     1      -6.989  18.886  69.841  1.00  0.00     0.000 HD 
ENDROOT
BRANCH   2   4
HETATM    4  C   UNL     1      -7.916  18.771  66.660  1.00  0.00    -0.266 C  
HETATM    5  O   UNL     1      -8.300  17.647  65.852  1.00  0.00    -0.536 OA 
HETATM    6  C   UNL     1      -9.382  16.873  66.375  1.00  0.00    -0.276 C  
HETATM    7  O   UNL     1      -9.313  20.502  65.719  1.00  0.00    -0.593 OA 
HETATM    8  C   UNL     1     -10.646  17.762  66.391  1.00  0.00    -0.218 C  
HETATM    9  O   UNL     1     -10.954  18.213  65.053  1.00  0.00    -0.726 OA 
HETATM   10  C   UNL     1     -10.415  18.996  67.279  1.00  0.00    -0.451 C  
HETATM   11  H   UNL     1     -10.044  21.089  65.874  1.00  0.00     0.000 HD 
HETATM   12  H   UNL     1     -11.731  18.759  65.063  1.00  0.00     0.000 HD 
HETATM   13  O   UNL     1     -10.470  18.644  68.663  1.00  0.00    -0.407 OA 
HETATM   14  H   UNL     1     -10.327  19.407  69.212  1.00  0.00     0.000 HD 
HETATM   15  C   UNL     1      -9.102  19.724  66.912  1.00  0.00    -0.347 C  
BRANCH   6  16
HETATM   16  O   UNL     1      -9.638  15.722  65.538  1.00  0.00    -0.331 OA 
BRANCH  16  17
HETATM   17  C   UNL     1     -10.252  14.676  66.182  1.00  0.00    -0.301 A  
HETATM   18  C   UNL     1     -11.286  14.035  65.494  1.00  0.00    -0.311 A  
HETATM   19  C   UNL     1     -11.600  12.519  67.342  1.00  0.00    -0.370 A  
HETATM   20  C   UNL     1     -11.968  12.958  66.077  1.00  0.00    -0.505 A  
HETATM   21  C   UNL     1     -10.555  13.122  68.024  1.00  0.00    -0.246 A  
HETATM   22  O   UNL     1     -12.234  11.484  67.962  1.00  0.00    -0.582 OA 
HETATM   23  C   UNL     1      -9.877  14.193  67.439  1.00  0.00    -0.239 A  
HETATM   24  H   UNL     1     -11.982  11.184  68.828  1.00  0.00     0.000 HD 
ENDBRANCH  16  17
ENDBRANCH   6  16
ENDBRANCH   2   4
TORSDOF 3
ENDMDL
MODEL       14
REMARK 921   NORMALIZED FREE ENERGY PREDICTED BY IDOCK:   -6.32 KCAL/MOL
REMARK 922        TOTAL FREE ENERGY PREDICTED BY IDOCK:   -7.88 KCAL/MOL
REMARK 923 INTER-LIGAND FREE ENERGY PREDICTED BY IDOCK:   -7.57 KCAL/MOL
REMARK 924 INTRA-LIGAND FREE ENERGY PREDICTED BY IDOCK:   -0.31 KCAL/MOL
REMARK 927      BINDING AFFINITY PREDICTED BY RF-SCORE:    0.00 PKD
ROOT
HETATM    1  O   UNL     1     -11.022  11.902  67.895  1.00  0.00    -0.200 OA 
HETATM    2  C   UNL     1     -10.868  13.305  68.099  1.00  0.00    -0.251 C  
HETATM    3  H   UNL     1     -10.466  11.384  68.466  1.00  0.00     0.000 HD 
ENDROOT
BRANCH   2   4
HETATM    4  C   UNL     1     -11.770  14.144  67.173  1.00  0.00    -0.403 C  
HETATM    5  O   UNL     1     -11.142  15.377  66.789  1.00  0.00    -0.312 OA 
HETATM    6  C   UNL     1     -10.084  15.241  65.836  1.00  0.00    -0.334 C  
HETATM    7  O   UNL     1     -13.554  14.021  65.551  1.00  0.00    -0.673 OA 
HETATM    8  C   UNL     1     -10.692  14.711  64.517  1.00  0.00    -0.131 C  
HETATM    9  O   UNL     1     -11.693  15.630  64.026  1.00  0.00    -0.899 OA 
HETATM   10  C   UNL     1     -11.358  13.345  64.751  1.00  0.00    -0.337 C  
HETATM   11  H   UNL     1     -13.898  13.552  64.798  1.00  0.00     0.000 HD 
HETATM   12  H   UNL     1     -12.066  15.304  63.215  1.00  0.00     0.000 HD 
HETATM   13  O   UNL     1     -10.375  12.315  64.880  1.00  0.00    -0.276 OA 
HETATM   14  H   UNL     1     -10.787  11.471  65.025  1.00  0.00     0.000 HD 
HETATM   15  C   UNL     1     -12.327  13.383  65.954  1.00  0.00    -0.437 C  
BRANCH   6  16
HETATM   16  O   UNL     1      -9.463  16.520  65.576  1.00  0.00    -0.473 OA 
BRANCH  16  17
HETATM   17  C   UNL     1      -9.731  17.484  66.517  1.00  0.00    -0.295 A  
HETATM   18  C   UNL     1      -9.140  17.318  67.771  1.00  0.00    -0.235 A  
HETATM   19  C   UNL     1     -10.161  19.361  68.543  1.00  0.00    -0.437 A  
HETATM   20  C   UNL     1      -9.360  18.254  68.792  1.00  0.00    -0.273 A  
HETATM   21  C   UNL     1     -10.727  19.558  67.293  1.00  0.00    -0.604 A  
HETATM   22  O   UNL     1     -10.419  20.298  69.500  1.00  0.00    -0.528 OA 
HETATM   23  C   UNL     1     -10.504  18.625  66.281  1.00  0.00    -0.468 A  
HETATM   24  H   UNL     1     -10.966  21.055  69.329  1.00  0.00     0.000 HD 
ENDBRANCH  16  17
ENDBRANCH   6  16
ENDBRANCH   2   4
TORSDOF 3
ENDMDL
MODEL       15
REMARK 921   NORMALIZED FREE ENERGY PREDICTED BY IDOCK:   -6.23 KCAL/MOL
REMARK 922        TOTAL FREE ENERGY PREDICTED BY IDOCK:   -7.77 KCAL/MOL
REMARK 923 INTER-LIGAND FREE ENERGY PREDICTED BY IDOCK:   -7.36 KCAL/MOL
REMARK 924 INTRA-LIGAND FREE ENERGY PREDICTED BY IDOCK:   -0.41 KCAL/MOL
REMARK 927      BINDING AFFINITY PREDICTED BY RF-SCORE:    0.00 PKD
ROOT
HETATM    1  O   UNL     1      -7.585  14.640  69.503  1.00  0.00    -0.305 OA 
HETATM    2  C   UNL     1      -8.288  14.969  68.307  1.00  0.00    -0.145 C  
HETATM    3  H   UNL     1      -7.174  15.395  69.907  1.00  0.00     0.000 HD 
ENDROOT
BRANCH   2   4
HETATM    4  C   UNL     1      -8.957  13.745  67.652  1.00  0.00    -0.194 C  
HETATM    5  O   UNL     1      -9.966  13.171  68.497  1.00  0.00    -0.232 OA 
HETATM    6  C   UNL     1     -11.174  13.931  68.593  1.00  0.00    -0.270 C  
HETATM    7  O   UNL     1      -9.503  12.719  65.535  1.00  0.00    -0.461 OA 
HETATM    8  C   UNL     1     -11.836  13.959  67.197  1.00  0.00    -0.412 C  
HETATM    9  O   UNL     1     -12.125  12.613  66.756  1.00  0.00    -0.504 OA 
HETATM   10  C   UNL     1     -10.891  14.612  66.174  1.00  0.00    -0.321 C  
HETATM   11  H   UNL     1      -9.826  12.867  64.653  1.00  0.00     0.000 HD 
HETATM   12  H   UNL     1     -12.533  12.630  65.898  1.00  0.00     0.000 HD 
HETATM   13  O   UNL     1     -10.859  16.031  66.346  1.00  0.00    -0.269 OA 
HETATM   14  H   UNL     1     -10.275  16.435  65.714  1.00  0.00     0.000 HD 
HETATM   15  C   UNL     1      -9.480  13.985  66.222  1.00  0.00    -0.227 C  
BRANCH   6  16
HETATM   16  O   UNL     1     -12.091  13.317  69.526  1.00  0.00    -0.303 OA 
BRANCH  16  17
HETATM   17  C   UNL     1     -12.321  14.052  70.664  1.00  0.00    -0.375 A  
HETATM   18  C   UNL     1     -13.375  13.633  71.479  1.00  0.00    -0.372 A  
HETATM   19  C   UNL     1     -12.916  15.426  73.024  1.00  0.00    -0.488 A  
HETATM   20  C   UNL     1     -13.681  14.325  72.660  1.00  0.00    -0.555 A  
HETATM   21  C   UNL     1     -11.846  15.834  72.244  1.00  0.00    -0.598 A  
HETATM   22  O   UNL     1     -13.174  16.144  74.155  1.00  0.00    -0.936 OA 
HETATM   23  C   UNL     1     -11.545  15.141  71.071  1.00  0.00    -0.390 A  
HETATM   24  H   UNL     1     -12.650  16.897  74.404  1.00  0.00     0.000 HD 
ENDBRANCH  16  17
ENDBRANCH   6  16
ENDBRANCH   2   4
TORSDOF 3
ENDMDL
MODEL       16
REMARK 921   NORMALIZED FREE ENERGY PREDICTED BY IDOCK:   -6.21 KCAL/MOL
REMARK 922        TOTAL FREE ENERGY PREDICTED BY IDOCK:   -7.75 KCAL/MOL
REMARK 923 INTER-LIGAND FREE ENERGY PREDICTED BY IDOCK:   -7.39 KCAL/MOL
REMARK 924 INTRA-LIGAND FREE ENERGY PREDICTED BY IDOCK:   -0.36 KCAL/MOL
REMARK 927      BINDING AFFINITY PREDICTED BY RF-SCORE:    0.00 PKD
ROOT
HETATM    1  O   UNL     1     -11.148   8.676  69.417  1.00  0.00    -0.430 OA 
HETATM    2  C   UNL     1     -11.156  10.094  69.571  1.00  0.00    -0.250 C  
HETATM    3  H   UNL     1     -11.005   8.218  70.237  1.00  0.00     0.000 HD 
ENDROOT
BRANCH   2   4
HETATM    4  C   UNL     1     -11.388  10.836  68.241  1.00  0.00    -0.309 C  
HETATM    5  O   UNL     1     -12.154  12.037  68.425  1.00  0.00    -0.412 OA 
HETATM    6  C   UNL     1     -11.444  13.114  69.042  1.00  0.00    -0.296 C  
HETATM    7  O   UNL     1     -10.488  11.210  66.031  1.00  0.00    -0.251 OA 
HETATM    8  C   UNL     1     -10.305  13.547  68.090  1.00  0.00    -0.247 C  
HETATM    9  O   UNL     1     -10.852  13.970  66.821  1.00  0.00    -0.290 OA 
HETATM   10  C   UNL     1      -9.347  12.370  67.839  1.00  0.00    -0.195 C  
HETATM   11  H   UNL     1      -9.701  11.370  65.522  1.00  0.00     0.000 HD 
HETATM   12  H   UNL     1     -10.153  14.237  66.236  1.00  0.00     0.000 HD 
HETATM   13  O   UNL     1      -8.508  12.147  68.974  1.00  0.00    -0.354 OA 
HETATM   14  H   UNL     1      -7.917  11.420  68.819  1.00  0.00     0.000 HD 
HETATM   15  C   UNL     1     -10.111  11.096  67.416  1.00  0.00    -0.185 C  
BRANCH   6  16
HETATM   16  O   UNL     1     -12.318  14.245  69.260  1.00  0.00    -0.293 OA 
BRANCH  16  17
HETATM   17  C   UNL     1     -12.466  14.604  70.577  1.00  0.00    -0.347 A  
HETATM   18  C   UNL     1     -11.819  15.772  70.986  1.00  0.00    -0.460 A  
HETATM   19  C   UNL     1     -12.674  15.486  73.221  1.00  0.00    -0.509 A  
HETATM   20  C   UNL     1     -11.915  16.213  72.313  1.00  0.00    -0.637 A  
HETATM   21  C   UNL     1     -13.350  14.343  72.824  1.00  0.00    -0.606 A  
HETATM   22  O   UNL     1     -12.795  15.860  74.527  1.00  0.00    -0.897 OA 
HETATM   23  C   UNL     1     -13.252  13.910  71.502  1.00  0.00    -0.425 A  
HETATM   24  H   UNL     1     -13.314  15.363  75.148  1.00  0.00     0.000 HD 
ENDBRANCH  16  17
ENDBRANCH   6  16
ENDBRANCH   2   4
TORSDOF 3
ENDMDL
MODEL       17
REMARK 921   NORMALIZED FREE ENERGY PREDICTED BY IDOCK:   -6.20 KCAL/MOL
REMARK 922        TOTAL FREE ENERGY PREDICTED BY IDOCK:   -7.74 KCAL/MOL
REMARK 923 INTER-LIGAND FREE ENERGY PREDICTED BY IDOCK:   -7.23 KCAL/MOL
REMARK 924 INTRA-LIGAND FREE ENERGY PREDICTED BY IDOCK:   -0.51 KCAL/MOL
REMARK 927      BINDING AFFINITY PREDICTED BY RF-SCORE:    0.00 PKD
ROOT
HETATM    1  O   UNL     1      -9.234   8.556  64.904  1.00  0.00    -0.402 OA 
HETATM    2  C   UNL     1      -9.465   9.959  65.003  1.00  0.00    -0.280 C  
HETATM    3  H   UNL     1      -9.485   8.201  64.059  1.00  0.00     0.000 HD 
ENDROOT
BRANCH   2   4
HETATM    4  C   UNL     1      -9.057  10.536  66.373  1.00  0.00    -0.162 C  
HETATM    5  O   UNL     1      -9.896  11.635  66.762  1.00  0.00    -0.196 OA 
HETATM    6  C   UNL     1     -11.215  11.267  67.174  1.00  0.00    -0.275 C  
HETATM    7  O   UNL     1      -8.005  10.001  68.480  1.00  0.00    -0.097 OA 
HETATM    8  C   UNL     1     -11.098  10.420  68.462  1.00  0.00    -0.266 C  
HETATM    9  O   UNL     1     -10.443  11.182  69.501  1.00  0.00    -0.410 OA 
HETATM   10  C   UNL     1     -10.267   9.154  68.190  1.00  0.00    -0.207 C  
HETATM   11  H   UNL     1      -7.926   9.357  69.174  1.00  0.00     0.000 HD 
HETATM   12  H   UNL     1     -10.371  10.662  70.292  1.00  0.00     0.000 HD 
HETATM   13  O   UNL     1     -11.030   8.194  67.456  1.00  0.00    -0.509 OA 
HETATM   14  H   UNL     1     -10.517   7.412  67.288  1.00  0.00     0.000 HD 
HETATM   15  C   UNL     1      -8.927   9.490  67.499  1.00  0.00    -0.124 C  
BRANCH   6  16
HETATM   16  O   UNL     1     -12.005  12.442  67.466  1.00  0.00    -0.482 OA 
BRANCH  16  17
HETATM   17  C   UNL     1     -11.848  13.470  66.568  1.00  0.00    -0.399 A  
HETATM   18  C   UNL     1     -12.487  13.328  65.334  1.00  0.00    -0.543 A  
HETATM   19  C   UNL     1     -11.644  15.474  64.631  1.00  0.00    -0.281 A  
HETATM   20  C   UNL     1     -12.379  14.328  64.357  1.00  0.00    -0.417 A  
HETATM   21  C   UNL     1     -11.032  15.646  65.862  1.00  0.00    -0.231 A  
HETATM   22  O   UNL     1     -11.496  16.475  63.716  1.00  0.00    -1.615 OA 
HETATM   23  C   UNL     1     -11.143  14.648  66.831  1.00  0.00    -0.333 A  
HETATM   24  H   UNL     1     -10.993  17.259  63.903  1.00  0.00     0.000 HD 
ENDBRANCH  16  17
ENDBRANCH   6  16
ENDBRANCH   2   4
TORSDOF 3
ENDMDL
MODEL       18
REMARK 921   NORMALIZED FREE ENERGY PREDICTED BY IDOCK:   -6.20 KCAL/MOL
REMARK 922        TOTAL FREE ENERGY PREDICTED BY IDOCK:   -7.74 KCAL/MOL
REMARK 923 INTER-LIGAND FREE ENERGY PREDICTED BY IDOCK:   -7.51 KCAL/MOL
REMARK 924 INTRA-LIGAND FREE ENERGY PREDICTED BY IDOCK:   -0.22 KCAL/MOL
REMARK 927      BINDING AFFINITY PREDICTED BY RF-SCORE:    0.00 PKD
ROOT
HETATM    1  O   UNL     1     -12.528  14.375  63.771  1.00  0.00    -1.002 OA 
HETATM    2  C   UNL     1     -12.405  13.708  65.026  1.00  0.00    -0.427 C  
HETATM    3  H   UNL     1     -13.406  14.321  63.410  1.00  0.00     0.000 HD 
ENDROOT
BRANCH   2   4
HETATM    4  C   UNL     1     -10.983  13.798  65.612  1.00  0.00    -0.288 C  
HETATM    5  O   UNL     1     -10.863  14.869  66.562  1.00  0.00    -0.310 OA 
HETATM    6  C   UNL     1     -11.498  14.628  67.821  1.00  0.00    -0.340 C  
HETATM    7  O   UNL     1      -8.995  12.523  66.114  1.00  0.00    -0.415 OA 
HETATM    8  C   UNL     1     -10.774  13.445  68.506  1.00  0.00    -0.262 C  
HETATM    9  O   UNL     1      -9.378  13.762  68.702  1.00  0.00    -0.317 OA 
HETATM   10  C   UNL     1     -10.869  12.186  67.628  1.00  0.00    -0.233 C  
HETATM   11  H   UNL     1      -8.655  11.705  66.461  1.00  0.00     0.000 HD 
HETATM   12  H   UNL     1      -8.934  13.036  69.122  1.00  0.00     0.000 HD 
HETATM   13  O   UNL     1     -12.177  11.614  67.698  1.00  0.00    -0.544 OA 
HETATM   14  H   UNL     1     -12.235  10.836  67.156  1.00  0.00     0.000 HD 
HETATM   15  C   UNL     1     -10.433  12.472  66.174  1.00  0.00    -0.249 C  
BRANCH   6  16
HETATM   16  O   UNL     1     -11.394  15.789  68.676  1.00  0.00    -0.328 OA 
BRANCH  16  17
HETATM   17  C   UNL     1     -11.996  15.647  69.903  1.00  0.00    -0.360 A  
HETATM   18  C   UNL     1     -11.329  16.202  70.997  1.00  0.00    -0.381 A  
HETATM   19  C   UNL     1     -13.089  15.462  72.469  1.00  0.00    -0.422 A  
HETATM   20  C   UNL     1     -11.871  16.104  72.287  1.00  0.00    -0.631 A  
HETATM   21  C   UNL     1     -13.780  14.936  71.389  1.00  0.00    -0.527 A  
HETATM   22  O   UNL     1     -13.659  15.327  73.700  1.00  0.00    -0.573 OA 
HETATM   23  C   UNL     1     -13.237  15.037  70.108  1.00  0.00     0.095 A  
HETATM   24  H   UNL     1     -14.492  14.888  73.825  1.00  0.00     0.000 HD 
ENDBRANCH  16  17
ENDBRANCH   6  16
ENDBRANCH   2   4
TORSDOF 3
ENDMDL
MODEL       19
REMARK 921   NORMALIZED FREE ENERGY PREDICTED BY IDOCK:   -6.18 KCAL/MOL
REMARK 922        TOTAL FREE ENERGY PREDICTED BY IDOCK:   -7.71 KCAL/MOL
REMARK 923 INTER-LIGAND FREE ENERGY PREDICTED BY IDOCK:   -7.16 KCAL/MOL
REMARK 924 INTRA-LIGAND FREE ENERGY PREDICTED BY IDOCK:   -0.55 KCAL/MOL
REMARK 927      BINDING AFFINITY PREDICTED BY RF-SCORE:    0.00 PKD
ROOT
HETATM    1  O   UNL     1      -9.704  11.787  66.669  1.00  0.00    -0.194 OA 
HETATM    2  C   UNL     1     -10.486  12.738  67.388  1.00  0.00    -0.228 C  
HETATM    3  H   UNL     1      -8.940  11.497  67.153  1.00  0.00     0.000 HD 
ENDROOT
BRANCH   2   4
HETATM    4  C   UNL     1     -11.726  13.207  66.603  1.00  0.00    -0.375 C  
HETATM    5  O   UNL     1     -11.810  14.640  66.541  1.00  0.00    -0.373 OA 
HETATM    6  C   UNL     1     -10.868  15.259  65.661  1.00  0.00    -0.363 C  
HETATM    7  O   UNL     1     -13.285  12.588  64.866  1.00  0.00    -0.787 OA 
HETATM    8  C   UNL     1     -11.191  14.810  64.217  1.00  0.00    -0.012 C  
HETATM    9  O   UNL     1     -12.538  15.199  63.865  1.00  0.00    -0.947 OA 
HETATM   10  C   UNL     1     -11.082  13.280  64.102  1.00  0.00    -0.365 C  
HETATM   11  H   UNL     1     -13.385  12.193  64.007  1.00  0.00     0.000 HD 
HETATM   12  H   UNL     1     -12.736  14.923  62.978  1.00  0.00     0.000 HD 
HETATM   13  O   UNL     1      -9.713  12.869  64.077  1.00  0.00    -0.680 OA 
HETATM   14  H   UNL     1      -9.645  11.924  64.005  1.00  0.00     0.000 HD 
HETATM   15  C   UNL     1     -11.887  12.566  65.210  1.00  0.00    -0.413 C  
BRANCH   6  16
HETATM   16  O   UNL     1     -10.975  16.699  65.730  1.00  0.00    -0.148 OA 
BRANCH  16  17
HETATM   17  C   UNL     1     -10.085  17.295  66.591  1.00  0.00    -0.302 A  
HETATM   18  C   UNL     1     -10.629  18.074  67.614  1.00  0.00    -0.413 A  
HETATM   19  C   UNL     1      -8.417  18.566  68.438  1.00  0.00    -0.328 A  
HETATM   20  C   UNL     1      -9.794  18.719  68.538  1.00  0.00    -0.444 A  
HETATM   21  C   UNL     1      -7.863  17.770  67.449  1.00  0.00    -0.217 A  
HETATM   22  O   UNL     1      -7.557  19.178  69.301  1.00  0.00    -0.275 OA 
HETATM   23  C   UNL     1      -8.698  17.129  66.533  1.00  0.00    -0.293 A  
HETATM   24  H   UNL     1      -6.615  19.074  69.233  1.00  0.00     0.000 HD 
ENDBRANCH  16  17
ENDBRANCH   6  16
ENDBRANCH   2   4
TORSDOF 3
ENDMDL
MODEL       20
REMARK 921   NORMALIZED FREE ENERGY PREDICTED BY IDOCK:   -6.15 KCAL/MOL
REMARK 922        TOTAL FREE ENERGY PREDICTED BY IDOCK:   -7.67 KCAL/MOL
REMARK 923 INTER-LIGAND FREE ENERGY PREDICTED BY IDOCK:   -7.28 KCAL/MOL
REMARK 924 INTRA-LIGAND FREE ENERGY PREDICTED BY IDOCK:   -0.39 KCAL/MOL
REMARK 927      BINDING AFFINITY PREDICTED BY RF-SCORE:    0.00 PKD
ROOT
HETATM    1  O   UNL     1      -8.331  13.840  66.602  1.00  0.00    -0.425 OA 
HETATM    2  C   UNL     1      -9.526  14.617  66.607  1.00  0.00    -0.278 C  
HETATM    3  H   UNL     1      -8.009  13.655  67.477  1.00  0.00     0.000 HD 
ENDROOT
BRANCH   2   4
HETATM    4  C   UNL     1     -10.049  14.915  65.188  1.00  0.00    -0.319 C  
HETATM    5  O   UNL     1      -9.962  13.764  64.333  1.00  0.00    -0.250 OA 
HETATM    6  C   UNL     1     -10.925  12.742  64.604  1.00  0.00    -0.327 C  
HETATM    7  O   UNL     1     -11.554  16.311  63.916  1.00  0.00    -1.489 OA 
HETATM    8  C   UNL     1     -12.330  13.314  64.309  1.00  0.00    -0.340 C  
HETATM    9  O   UNL     1     -12.418  13.731  62.928  1.00  0.00    -1.009 OA 
HETATM   10  C   UNL     1     -12.604  14.535  65.204  1.00  0.00    -0.238 C  
HETATM   11  H   UNL     1     -12.417  16.707  63.886  1.00  0.00     0.000 HD 
HETATM   12  H   UNL     1     -13.281  14.083  62.747  1.00  0.00     0.000 HD 
HETATM   13  O   UNL     1     -12.893  14.128  66.543  1.00  0.00    -0.472 OA 
HETATM   14  H   UNL     1     -13.062  14.882  67.096  1.00  0.00     0.000 HD 
HETATM   15  C   UNL     1     -11.449  15.558  65.139  1.00  0.00    -0.156 C  
BRANCH   6  16
HETATM   16  O   UNL     1     -10.706  11.595  63.751  1.00  0.00    -0.346 OA 
BRANCH  16  17
HETATM   17  C   UNL     1     -10.033  10.559  64.352  1.00  0.00    -0.343 A  
HETATM   18  C   UNL     1      -9.077   9.899  63.578  1.00  0.00    -0.289 A  
HETATM   19  C   UNL     1      -8.563   8.438  65.425  1.00  0.00    -0.167 A  
HETATM   20  C   UNL     1      -8.343   8.830  64.111  1.00  0.00    -0.155 A  
HETATM   21  C   UNL     1      -9.484   9.105  66.218  1.00  0.00    -0.299 A  
HETATM   22  O   UNL     1      -7.887   7.399  65.994  1.00  0.00    -0.094 OA 
HETATM   23  C   UNL     1     -10.210  10.169  65.683  1.00  0.00    -0.288 A  
HETATM   24  H   UNL     1      -8.038   7.131  66.893  1.00  0.00     0.000 HD 
ENDBRANCH  16  17
ENDBRANCH   6  16
ENDBRANCH   2   4
TORSDOF 3
ENDMDL
MODEL       21
REMARK 921   NORMALIZED FREE ENERGY PREDICTED BY IDOCK:   -6.11 KCAL/MOL
REMARK 922        TOTAL FREE ENERGY PREDICTED BY IDOCK:   -7.63 KCAL/MOL
REMARK 923 INTER-LIGAND FREE ENERGY PREDICTED BY IDOCK:   -7.02 KCAL/MOL
REMARK 924 INTRA-LIGAND FREE ENERGY PREDICTED BY IDOCK:   -0.61 KCAL/MOL
REMARK 927      BINDING AFFINITY PREDICTED BY RF-SCORE:    0.00 PKD
ROOT
HETATM    1  O   UNL     1      -9.486   6.507  69.929  1.00  0.00    -0.155 OA 
HETATM    2  C   UNL     1      -9.335   7.782  70.551  1.00  0.00    -0.163 C  
HETATM    3  H   UNL     1      -9.008   6.438  69.112  1.00  0.00     0.000 HD 
ENDROOT
BRANCH   2   4
HETATM    4  C   UNL     1     -10.111   7.894  71.878  1.00  0.00    -0.194 C  
HETATM    5  O   UNL     1     -10.676   9.202  72.057  1.00  0.00    -0.341 OA 
HETATM    6  C   UNL     1     -11.809   9.485  71.231  1.00  0.00    -0.373 C  
HETATM    7  O   UNL     1     -11.344   6.637  73.530  1.00  0.00    -0.434 OA 
HETATM    8  C   UNL     1     -12.954   8.530  71.641  1.00  0.00    -0.343 C  
HETATM    9  O   UNL     1     -13.289   8.724  73.033  1.00  0.00    -0.846 OA 
HETATM   10  C   UNL     1     -12.520   7.068  71.444  1.00  0.00    -0.384 C  
HETATM   11  H   UNL     1     -11.989   5.953  73.673  1.00  0.00     0.000 HD 
HETATM   12  H   UNL     1     -13.992   8.137  73.285  1.00  0.00     0.000 HD 
HETATM   13  O   UNL     1     -12.530   6.717  70.058  1.00  0.00    -0.546 OA 
HETATM   14  H   UNL     1     -12.262   5.814  69.937  1.00  0.00     0.000 HD 
HETATM   15  C   UNL     1     -11.155   6.784  72.110  1.00  0.00    -0.250 C  
BRANCH   6  16
HETATM   16  O   UNL     1     -12.254  10.847  71.423  1.00  0.00    -0.315 OA 
BRANCH  16  17
HETATM   17  C   UNL     1     -12.125  11.649  70.316  1.00  0.00    -0.358 A  
HETATM   18  C   UNL     1     -12.263  13.024  70.517  1.00  0.00    -0.392 A  
HETATM   19  C   UNL     1     -11.877  13.425  68.172  1.00  0.00    -0.361 A  
HETATM   20  C   UNL     1     -12.147  13.917  69.442  1.00  0.00    -0.384 A  
HETATM   21  C   UNL     1     -11.703  12.067  67.961  1.00  0.00    -0.398 A  
HETATM   22  O   UNL     1     -11.764  14.245  67.088  1.00  0.00    -0.366 OA 
HETATM   23  C   UNL     1     -11.818  11.182  69.034  1.00  0.00    -0.418 A  
HETATM   24  H   UNL     1     -11.579  13.908  66.219  1.00  0.00     0.000 HD 
ENDBRANCH  16  17
ENDBRANCH   6  16
ENDBRANCH   2   4
TORSDOF 3
ENDMDL
MODEL       22
REMARK 921   NORMALIZED FREE ENERGY PREDICTED BY IDOCK:   -6.11 KCAL/MOL
REMARK 922        TOTAL FREE ENERGY PREDICTED BY IDOCK:   -7.62 KCAL/MOL
REMARK 923 INTER-LIGAND FREE ENERGY PREDICTED BY IDOCK:   -7.22 KCAL/MOL
REMARK 924 INTRA-LIGAND FREE ENERGY PREDICTED BY IDOCK:   -0.41 KCAL/MOL
REMARK 927      BINDING AFFINITY PREDICTED BY RF-SCORE:    0.00 PKD
ROOT
HETATM    1  O   UNL     1     -12.463  14.318  63.503  1.00  0.00    -1.095 OA 
HETATM    2  C   UNL     1     -12.665  13.824  64.826  1.00  0.00    -0.215 C  
HETATM    3  H   UNL     1     -13.220  14.781  63.164  1.00  0.00     0.000 HD 
ENDROOT
BRANCH   2   4
HETATM    4  C   UNL     1     -11.437  13.074  65.376  1.00  0.00    -0.312 C  
HETATM    5  O   UNL     1     -10.247  13.875  65.310  1.00  0.00    -0.336 OA 
HETATM    6  C   UNL     1     -10.181  14.934  66.270  1.00  0.00    -0.294 C  
HETATM    7  O   UNL     1     -10.731  11.341  66.903  1.00  0.00    -0.247 OA 
HETATM    8  C   UNL     1     -10.122  14.301  67.679  1.00  0.00    -0.229 C  
HETATM    9  O   UNL     1      -8.960  13.450  67.794  1.00  0.00    -0.184 OA 
HETATM   10  C   UNL     1     -11.377  13.449  67.932  1.00  0.00    -0.289 C  
HETATM   11  H   UNL     1     -10.851  10.961  67.765  1.00  0.00     0.000 HD 
HETATM   12  H   UNL     1      -8.923  13.061  68.660  1.00  0.00     0.000 HD 
HETATM   13  O   UNL     1     -12.510  14.278  68.194  1.00  0.00    -0.560 OA 
HETATM   14  H   UNL     1     -13.285  13.751  68.350  1.00  0.00     0.000 HD 
HETATM   15  C   UNL     1     -11.632  12.457  66.775  1.00  0.00    -0.379 C  
BRANCH   6  16
HETATM   16  O   UNL     1      -8.992  15.731  66.072  1.00  0.00    -0.333 OA 
BRANCH  16  17
HETATM   17  C   UNL     1      -9.160  17.073  66.314  1.00  0.00    -0.246 A  
HETATM   18  C   UNL     1      -8.007  17.807  66.602  1.00  0.00    -0.283 A  
HETATM   19  C   UNL     1      -9.320  19.817  66.820  1.00  0.00    -0.374 A  
HETATM   20  C   UNL     1      -8.085  19.182  66.863  1.00  0.00    -0.277 A  
HETATM   21  C   UNL     1     -10.469  19.109  66.503  1.00  0.00    -0.534 A  
HETATM   22  O   UNL     1      -9.459  21.149  67.076  1.00  0.00    -0.668 OA 
HETATM   23  C   UNL     1     -10.385  17.741  66.242  1.00  0.00    -0.358 A  
HETATM   24  H   UNL     1     -10.304  21.583  67.046  1.00  0.00     0.000 HD 
ENDBRANCH  16  17
ENDBRANCH   6  16
ENDBRANCH   2   4
TORSDOF 3
ENDMDL
MODEL       23
REMARK 921   NORMALIZED FREE ENERGY PREDICTED BY IDOCK:   -6.09 KCAL/MOL
REMARK 922        TOTAL FREE ENERGY PREDICTED BY IDOCK:   -7.61 KCAL/MOL
REMARK 923 INTER-LIGAND FREE ENERGY PREDICTED BY IDOCK:   -7.05 KCAL/MOL
REMARK 924 INTRA-LIGAND FREE ENERGY PREDICTED BY IDOCK:   -0.56 KCAL/MOL
REMARK 927      BINDING AFFINITY PREDICTED BY RF-SCORE:    0.00 PKD
ROOT
HETATM    1  O   UNL     1     -12.061  15.660  68.498  1.00  0.00    -0.533 OA 
HETATM    2  C   UNL     1     -11.027  14.941  69.166  1.00  0.00    -0.260 C  
HETATM    3  H   UNL     1     -12.625  16.134  69.097  1.00  0.00     0.000 HD 
ENDROOT
BRANCH   2   4
HETATM    4  C   UNL     1     -10.110  14.172  68.195  1.00  0.00    -0.239 C  
HETATM    5  O   UNL     1      -9.959  12.796  68.579  1.00  0.00    -0.222 OA 
HETATM    6  C   UNL     1     -11.105  11.976  68.338  1.00  0.00    -0.245 C  
HETATM    7  O   UNL     1      -9.300  14.099  65.921  1.00  0.00    -0.507 OA 
HETATM    8  C   UNL     1     -11.336  11.908  66.811  1.00  0.00    -0.330 C  
HETATM    9  O   UNL     1     -10.175  11.350  66.157  1.00  0.00    -0.224 OA 
HETATM   10  C   UNL     1     -11.580  13.319  66.249  1.00  0.00    -0.346 C  
HETATM   11  H   UNL     1      -9.533  14.184  65.004  1.00  0.00     0.000 HD 
HETATM   12  H   UNL     1     -10.317  11.308  65.219  1.00  0.00     0.000 HD 
HETATM   13  O   UNL     1     -12.896  13.774  66.573  1.00  0.00    -0.341 OA 
HETATM   14  H   UNL     1     -13.047  14.646  66.226  1.00  0.00     0.000 HD 
HETATM   15  C   UNL     1     -10.488  14.311  66.707  1.00  0.00    -0.273 C  
BRANCH   6  16
HETATM   16  O   UNL     1     -10.886  10.634  68.831  1.00  0.00    -0.200 OA 
BRANCH  16  17
HETATM   17  C   UNL     1     -11.647  10.299  69.925  1.00  0.00    -0.256 A  
HETATM   18  C   UNL     1     -11.557   8.979  70.370  1.00  0.00    -0.145 A  
HETATM   19  C   UNL     1     -13.117   9.453  72.146  1.00  0.00    -0.442 A  
HETATM   20  C   UNL     1     -12.300   8.549  71.480  1.00  0.00    -0.354 A  
HETATM   21  C   UNL     1     -13.191  10.775  71.738  1.00  0.00    -0.523 A  
HETATM   22  O   UNL     1     -13.870   9.090  73.224  1.00  0.00    -1.159 OA 
HETATM   23  C   UNL     1     -12.449  11.198  70.634  1.00  0.00    -0.448 A  
HETATM   24  H   UNL     1     -14.429   9.708  73.679  1.00  0.00     0.000 HD 
ENDBRANCH  16  17
ENDBRANCH   6  16
ENDBRANCH   2   4
TORSDOF 3
ENDMDL
MODEL       24
REMARK 921   NORMALIZED FREE ENERGY PREDICTED BY IDOCK:   -6.08 KCAL/MOL
REMARK 922        TOTAL FREE ENERGY PREDICTED BY IDOCK:   -7.59 KCAL/MOL
REMARK 923 INTER-LIGAND FREE ENERGY PREDICTED BY IDOCK:   -7.84 KCAL/MOL
REMARK 924 INTRA-LIGAND FREE ENERGY PREDICTED BY IDOCK:    0.24 KCAL/MOL
REMARK 927      BINDING AFFINITY PREDICTED BY RF-SCORE:    0.00 PKD
ROOT
HETATM    1  O   UNL     1      -8.004  10.858  63.657  1.00  0.00    -0.360 OA 
HETATM    2  C   UNL     1      -8.817  10.932  64.826  1.00  0.00    -0.100 C  
HETATM    3  H   UNL     1      -7.076  10.924  63.849  1.00  0.00     0.000 HD 
ENDROOT
BRANCH   2   4
HETATM    4  C   UNL     1     -10.322  10.824  64.514  1.00  0.00    -0.331 C  
HETATM    5  O   UNL     1     -11.120  10.854  65.708  1.00  0.00    -0.057 OA 
HETATM    6  C   UNL     1     -11.218  12.137  66.332  1.00  0.00    -0.331 C  
HETATM    7  O   UNL     1     -12.004  11.259  62.836  1.00  0.00    -0.862 OA 
HETATM    8  C   UNL     1     -11.966  13.085  65.366  1.00  0.00    -0.414 C  
HETATM    9  O   UNL     1     -13.283  12.566  65.080  1.00  0.00    -0.700 OA 
HETATM   10  C   UNL     1     -11.193  13.210  64.042  1.00  0.00    -0.379 C  
HETATM   11  H   UNL     1     -12.320  11.877  62.186  1.00  0.00     0.000 HD 
HETATM   12  H   UNL     1     -13.743  13.148  64.487  1.00  0.00     0.000 HD 
HETATM   13  O   UNL     1     -10.044  14.044  64.201  1.00  0.00    -0.617 OA 
HETATM   14  H   UNL     1      -9.567  14.122  63.383  1.00  0.00     0.000 HD 
HETATM   15  C   UNL     1     -10.835  11.825  63.459  1.00  0.00    -0.426 C  
BRANCH   6  16
HETATM   16  O   UNL     1     -11.968  12.050  67.565  1.00  0.00    -0.572 OA 
BRANCH  16  17
HETATM   17  C   UNL     1     -11.883  13.165  68.362  1.00  0.00    -0.351 A  
HETATM   18  C   UNL     1     -11.949  12.956  69.742  1.00  0.00    -0.365 A  
HETATM   19  C   UNL     1     -11.713  15.324  70.129  1.00  0.00    -0.312 A  
HETATM   20  C   UNL     1     -11.871  14.038  70.630  1.00  0.00    -0.310 A  
HETATM   21  C   UNL     1     -11.613  15.545  68.765  1.00  0.00    -0.390 A  
HETATM   22  O   UNL     1     -11.642  16.415  70.944  1.00  0.00    -0.571 OA 
HETATM   23  C   UNL     1     -11.689  14.464  67.885  1.00  0.00    -0.388 A  
HETATM   24  H   UNL     1     -11.534  17.294  70.601  1.00  0.00     0.000 HD 
ENDBRANCH  16  17
ENDBRANCH   6  16
ENDBRANCH   2   4
TORSDOF 3
ENDMDL
MODEL       25
REMARK 921   NORMALIZED FREE ENERGY PREDICTED BY IDOCK:   -6.08 KCAL/MOL
REMARK 922        TOTAL FREE ENERGY PREDICTED BY IDOCK:   -7.59 KCAL/MOL
REMARK 923 INTER-LIGAND FREE ENERGY PREDICTED BY IDOCK:   -6.95 KCAL/MOL
REMARK 924 INTRA-LIGAND FREE ENERGY PREDICTED BY IDOCK:   -0.64 KCAL/MOL
REMARK 927      BINDING AFFINITY PREDICTED BY RF-SCORE:    0.00 PKD
ROOT
HETATM    1  O   UNL     1      -7.746  12.169  66.495  1.00  0.00    -0.383 OA 
HETATM    2  C   UNL     1      -8.181  13.006  67.564  1.00  0.00    -0.181 C  
HETATM    3  H   UNL     1      -6.810  12.225  66.341  1.00  0.00     0.000 HD 
ENDROOT
BRANCH   2   4
HETATM    4  C   UNL     1      -9.699  12.914  67.813  1.00  0.00    -0.214 C  
HETATM    5  O   UNL     1     -10.251  14.177  68.218  1.00  0.00    -0.230 OA 
HETATM    6  C   UNL     1     -10.359  15.148  67.173  1.00  0.00    -0.263 C  
HETATM    7  O   UNL     1     -11.706  11.713  67.214  1.00  0.00    -0.568 OA 
HETATM    8  C   UNL     1     -11.371  14.621  66.129  1.00  0.00    -0.350 C  
HETATM    9  O   UNL     1     -12.659  14.407  66.749  1.00  0.00    -0.540 OA 
HETATM   10  C   UNL     1     -10.884  13.283  65.547  1.00  0.00    -0.284 C  
HETATM   11  H   UNL     1     -12.203  11.324  66.503  1.00  0.00     0.000 HD 
HETATM   12  H   UNL     1     -13.280  14.083  66.108  1.00  0.00     0.000 HD 
HETATM   13  O   UNL     1      -9.816  13.491  64.620  1.00  0.00    -0.622 OA 
HETATM   14  H   UNL     1      -9.516  12.665  64.260  1.00  0.00     0.000 HD 
HETATM   15  C   UNL     1     -10.504  12.282  66.661  1.00  0.00    -0.222 C  
BRANCH   6  16
HETATM   16  O   UNL     1     -10.846  16.406  67.692  1.00  0.00    -0.327 OA 
BRANCH  16  17
HETATM   17  C   UNL     1     -10.117  17.503  67.301  1.00  0.00    -0.327 A  
HETATM   18  C   UNL     1      -8.789  17.274  66.933  1.00  0.00    -0.259 A  
HETATM   19  C   UNL     1      -8.496  19.621  66.466  1.00  0.00    -0.345 A  
HETATM   20  C   UNL     1      -7.972  18.337  66.521  1.00  0.00    -0.294 A  
HETATM   21  C   UNL     1      -9.821  19.860  66.796  1.00  0.00    -0.550 A  
HETATM   22  O   UNL     1      -7.746  20.694  66.084  1.00  0.00    -0.503 OA 
HETATM   23  C   UNL     1     -10.631  18.799  67.203  1.00  0.00    -0.491 A  
HETATM   24  H   UNL     1      -8.105  21.573  66.047  1.00  0.00     0.000 HD 
ENDBRANCH  16  17
ENDBRANCH   6  16
ENDBRANCH   2   4
TORSDOF 3
ENDMDL
MODEL       26
REMARK 921   NORMALIZED FREE ENERGY PREDICTED BY IDOCK:   -6.07 KCAL/MOL
REMARK 922        TOTAL FREE ENERGY PREDICTED BY IDOCK:   -7.58 KCAL/MOL
REMARK 923 INTER-LIGAND FREE ENERGY PREDICTED BY IDOCK:   -6.99 KCAL/MOL
REMARK 924 INTRA-LIGAND FREE ENERGY PREDICTED BY IDOCK:   -0.60 KCAL/MOL
REMARK 927      BINDING AFFINITY PREDICTED BY RF-SCORE:    0.00 PKD
ROOT
HETATM    1  O   UNL     1      -8.857  11.234  64.707  1.00  0.00    -0.378 OA 
HETATM    2  C   UNL     1      -9.932  10.792  65.533  1.00  0.00    -0.263 C  
HETATM    3  H   UNL     1      -8.102  10.659  64.748  1.00  0.00     0.000 HD 
ENDROOT
BRANCH   2   4
HETATM    4  C   UNL     1     -11.158  11.725  65.467  1.00  0.00    -0.280 C  
HETATM    5  O   UNL     1     -11.888  11.737  66.703  1.00  0.00    -0.569 OA 
HETATM    6  C   UNL     1     -11.253  12.449  67.769  1.00  0.00    -0.275 C  
HETATM    7  O   UNL     1     -12.059  13.688  64.389  1.00  0.00    -0.404 OA 
HETATM    8  C   UNL     1     -11.176  13.941  67.371  1.00  0.00    -0.312 C  
HETATM    9  O   UNL     1     -12.504  14.464  67.142  1.00  0.00    -0.590 OA 
HETATM   10  C   UNL     1     -10.359  14.105  66.078  1.00  0.00    -0.309 C  
HETATM   11  H   UNL     1     -11.873  14.569  64.082  1.00  0.00     0.000 HD 
HETATM   12  H   UNL     1     -12.457  15.380  66.898  1.00  0.00     0.000 HD 
HETATM   13  O   UNL     1      -8.962  13.953  66.338  1.00  0.00    -0.452 OA 
HETATM   14  H   UNL     1      -8.457  14.054  65.539  1.00  0.00     0.000 HD 
HETATM   15  C   UNL     1     -10.855  13.152  64.968  1.00  0.00    -0.315 C  
BRANCH   6  16
HETATM   16  O   UNL     1     -12.020  12.336  68.988  1.00  0.00    -0.300 OA 
BRANCH  16  17
HETATM   17  C   UNL     1     -11.672  11.271  69.783  1.00  0.00    -0.349 A  
HETATM   18  C   UNL     1     -12.607  10.869  70.739  1.00  0.00    -0.470 A  
HETATM   19  C   UNL     1     -11.129   9.111  71.472  1.00  0.00    -0.365 A  
HETATM   20  C   UNL     1     -12.334   9.791  71.593  1.00  0.00    -0.495 A  
HETATM   21  C   UNL     1     -10.204   9.476  70.506  1.00  0.00    -0.349 A  
HETATM   22  O   UNL     1     -10.805   8.063  72.281  1.00  0.00    -0.257 OA 
HETATM   23  C   UNL     1     -10.481  10.549  69.658  1.00  0.00    -0.257 A  
HETATM   24  H   UNL     1      -9.980   7.598  72.199  1.00  0.00     0.000 HD 
ENDBRANCH  16  17
ENDBRANCH   6  16
ENDBRANCH   2   4
TORSDOF 3
ENDMDL
MODEL       27
REMARK 921   NORMALIZED FREE ENERGY PREDICTED BY IDOCK:   -6.05 KCAL/MOL
REMARK 922        TOTAL FREE ENERGY PREDICTED BY IDOCK:   -7.56 KCAL/MOL
REMARK 923 INTER-LIGAND FREE ENERGY PREDICTED BY IDOCK:   -7.16 KCAL/MOL
REMARK 924 INTRA-LIGAND FREE ENERGY PREDICTED BY IDOCK:   -0.40 KCAL/MOL
REMARK 927      BINDING AFFINITY PREDICTED BY RF-SCORE:    0.00 PKD
ROOT
HETATM    1  O   UNL     1      -8.525   8.722  72.615  1.00  0.00    -0.413 OA 
HETATM    2  C   UNL     1      -9.481   8.094  71.763  1.00  0.00    -0.188 C  
HETATM    3  H   UNL     1      -7.784   9.078  72.137  1.00  0.00     0.000 HD 
ENDROOT
BRANCH   2   4
HETATM    4  C   UNL     1     -10.681   7.517  72.538  1.00  0.00    -0.285 C  
HETATM    5  O   UNL     1     -11.643   8.532  72.867  1.00  0.00    -0.213 OA 
HETATM    6  C   UNL     1     -12.425   8.999  71.764  1.00  0.00    -0.368 C  
HETATM    7  O   UNL     1     -11.986   5.520  72.911  1.00  0.00    -0.537 OA 
HETATM    8  C   UNL     1     -13.290   7.823  71.256  1.00  0.00    -0.187 C  
HETATM    9  O   UNL     1     -14.151   7.346  72.313  1.00  0.00    -0.553 OA 
HETATM   10  C   UNL     1     -12.390   6.661  70.800  1.00  0.00    -0.156 C  
HETATM   11  H   UNL     1     -12.397   4.765  72.503  1.00  0.00     0.000 HD 
HETATM   12  H   UNL     1     -14.683   6.624  72.001  1.00  0.00     0.000 HD 
HETATM   13  O   UNL     1     -11.787   6.950  69.538  1.00  0.00    -0.602 OA 
HETATM   14  H   UNL     1     -11.231   6.232  69.256  1.00  0.00     0.000 HD 
HETATM   15  C   UNL     1     -11.346   6.293  71.878  1.00  0.00    -0.299 C  
BRANCH   6  16
HETATM   16  O   UNL     1     -13.301  10.072  72.176  1.00  0.00    -0.444 OA 
BRANCH  16  17
HETATM   17  C   UNL     1     -12.975  11.302  71.660  1.00  0.00    -0.432 A  
HETATM   18  C   UNL     1     -12.213  11.310  70.490  1.00  0.00    -0.474 A  
HETATM   19  C   UNL     1     -12.235  13.720  70.470  1.00  0.00    -0.369 A  
HETATM   20  C   UNL     1     -11.833  12.522  69.895  1.00  0.00    -0.373 A  
HETATM   21  C   UNL     1     -13.019  13.730  71.613  1.00  0.00    -0.448 A  
HETATM   22  O   UNL     1     -11.887  14.929  69.943  1.00  0.00    -0.275 OA 
HETATM   23  C   UNL     1     -13.395  12.521  72.200  1.00  0.00    -0.540 A  
HETATM   24  H   UNL     1     -12.161  15.749  70.336  1.00  0.00     0.000 HD 
ENDBRANCH  16  17
ENDBRANCH   6  16
ENDBRANCH   2   4
TORSDOF 3
ENDMDL
MODEL       28
REMARK 921   NORMALIZED FREE ENERGY PREDICTED BY IDOCK:   -6.00 KCAL/MOL
REMARK 922        TOTAL FREE ENERGY PREDICTED BY IDOCK:   -7.49 KCAL/MOL
REMARK 923 INTER-LIGAND FREE ENERGY PREDICTED BY IDOCK:   -7.02 KCAL/MOL
REMARK 924 INTRA-LIGAND FREE ENERGY PREDICTED BY IDOCK:   -0.47 KCAL/MOL
REMARK 927      BINDING AFFINITY PREDICTED BY RF-SCORE:    0.00 PKD
ROOT
HETATM    1  O   UNL     1      -9.372  13.597  66.016  1.00  0.00    -0.480 OA 
HETATM    2  C   UNL     1     -10.509  14.170  66.658  1.00  0.00    -0.278 C  
HETATM    3  H   UNL     1      -9.381  12.647  66.029  1.00  0.00     0.000 HD 
ENDROOT
BRANCH   2   4
HETATM    4  C   UNL     1     -10.493  15.711  66.635  1.00  0.00    -0.301 C  
HETATM    5  O   UNL     1     -11.062  16.269  67.831  1.00  0.00    -0.332 OA 
HETATM    6  C   UNL     1     -10.240  16.157  68.996  1.00  0.00    -0.250 C  
HETATM    7  O   UNL     1      -9.349  17.639  65.737  1.00  0.00    -0.511 OA 
HETATM    8  C   UNL     1      -8.965  17.000  68.767  1.00  0.00    -0.249 C  
HETATM    9  O   UNL     1      -9.317  18.382  68.534  1.00  0.00    -0.318 OA 
HETATM   10  C   UNL     1      -8.198  16.480  67.539  1.00  0.00    -0.154 C  
HETATM   11  H   UNL     1      -8.504  18.025  65.536  1.00  0.00     0.000 HD 
HETATM   12  H   UNL     1      -8.533  18.900  68.394  1.00  0.00     0.000 HD 
HETATM   13  O   UNL     1      -7.513  15.263  67.846  1.00  0.00    -0.122 OA 
HETATM   14  H   UNL     1      -7.040  14.942  67.088  1.00  0.00     0.000 HD 
HETATM   15  C   UNL     1      -9.123  16.337  66.310  1.00  0.00    -0.331 C  
BRANCH   6  16
HETATM   16  O   UNL     1     -10.929  16.669  70.159  1.00  0.00    -0.321 OA 
BRANCH  16  17
HETATM   17  C   UNL     1     -11.643  15.727  70.858  1.00  0.00    -0.405 A  
HETATM   18  C   UNL     1     -11.691  14.443  70.311  1.00  0.00    -0.355 A  
HETATM   19  C   UNL     1     -13.039  13.685  72.160  1.00  0.00    -0.396 A  
HETATM   20  C   UNL     1     -12.397  13.419  70.957  1.00  0.00    -0.401 A  
HETATM   21  C   UNL     1     -12.973  14.945  72.734  1.00  0.00    -0.542 A  
HETATM   22  O   UNL     1     -13.749  12.732  72.828  1.00  0.00    -0.696 OA 
HETATM   23  C   UNL     1     -12.267  15.960  72.087  1.00  0.00    -0.578 A  
HETATM   24  H   UNL     1     -14.188  12.915  73.651  1.00  0.00     0.000 HD 
ENDBRANCH  16  17
ENDBRANCH   6  16
ENDBRANCH   2   4
TORSDOF 3
ENDMDL
MODEL       29
REMARK 921   NORMALIZED FREE ENERGY PREDICTED BY IDOCK:   -5.96 KCAL/MOL
REMARK 922        TOTAL FREE ENERGY PREDICTED BY IDOCK:   -7.45 KCAL/MOL
REMARK 923 INTER-LIGAND FREE ENERGY PREDICTED BY IDOCK:   -7.39 KCAL/MOL
REMARK 924 INTRA-LIGAND FREE ENERGY PREDICTED BY IDOCK:   -0.07 KCAL/MOL
REMARK 927      BINDING AFFINITY PREDICTED BY RF-SCORE:    0.00 PKD
ROOT
HETATM    1  O   UNL     1      -8.337  14.915  66.566  1.00  0.00    -0.405 OA 
HETATM    2  C   UNL     1      -8.439  16.337  66.575  1.00  0.00    -0.303 C  
HETATM    3  H   UNL     1      -7.526  14.607  66.179  1.00  0.00     0.000 HD 
ENDROOT
BRANCH   2   4
HETATM    4  C   UNL     1      -9.754  16.837  67.205  1.00  0.00    -0.251 C  
HETATM    5  O   UNL     1     -10.880  16.047  66.790  1.00  0.00    -0.294 OA 
HETATM    6  C   UNL     1     -10.950  14.746  67.380  1.00  0.00    -0.313 C  
HETATM    7  O   UNL     1     -10.690  17.997  69.105  1.00  0.00    -0.315 OA 
HETATM    8  C   UNL     1     -11.162  14.919  68.901  1.00  0.00    -0.269 C  
HETATM    9  O   UNL     1     -12.383  15.650  69.154  1.00  0.00    -0.598 OA 
HETATM   10  C   UNL     1      -9.990  15.703  69.514  1.00  0.00    -0.285 C  
HETATM   11  H   UNL     1     -10.663  18.102  70.049  1.00  0.00     0.000 HD 
HETATM   12  H   UNL     1     -12.514  15.755  70.088  1.00  0.00     0.000 HD 
HETATM   13  O   UNL     1      -8.828  14.878  69.624  1.00  0.00    -0.430 OA 
HETATM   14  H   UNL     1      -8.104  15.363  70.003  1.00  0.00     0.000 HD 
HETATM   15  C   UNL     1      -9.710  17.008  68.736  1.00  0.00    -0.273 C  
BRANCH   6  16
HETATM   16  O   UNL     1     -12.065  14.001  66.840  1.00  0.00    -0.424 OA 
BRANCH  16  17
HETATM   17  C   UNL     1     -11.754  13.217  65.756  1.00  0.00    -0.374 A  
HETATM   18  C   UNL     1     -10.891  12.142  65.986  1.00  0.00    -0.318 A  
HETATM   19  C   UNL     1     -11.028  11.513  63.663  1.00  0.00    -0.404 A  
HETATM   20  C   UNL     1     -10.519  11.291  64.936  1.00  0.00    -0.375 A  
HETATM   21  C   UNL     1     -11.911  12.554  63.425  1.00  0.00    -0.602 A  
HETATM   22  O   UNL     1     -10.693  10.725  62.602  1.00  0.00    -0.703 OA 
HETATM   23  C   UNL     1     -12.280  13.398  64.474  1.00  0.00    -0.450 A  
HETATM   24  H   UNL     1     -11.041  10.877  61.731  1.00  0.00     0.000 HD 
ENDBRANCH  16  17
ENDBRANCH   6  16
ENDBRANCH   2   4
TORSDOF 3
ENDMDL
MODEL       30
REMARK 921   NORMALIZED FREE ENERGY PREDICTED BY IDOCK:   -5.96 KCAL/MOL
REMARK 922        TOTAL FREE ENERGY PREDICTED BY IDOCK:   -7.45 KCAL/MOL
REMARK 923 INTER-LIGAND FREE ENERGY PREDICTED BY IDOCK:   -6.93 KCAL/MOL
REMARK 924 INTRA-LIGAND FREE ENERGY PREDICTED BY IDOCK:   -0.51 KCAL/MOL
REMARK 927      BINDING AFFINITY PREDICTED BY RF-SCORE:    0.00 PKD
ROOT
HETATM    1  O   UNL     1     -10.208   8.887  71.460  1.00  0.00    -0.270 OA 
HETATM    2  C   UNL     1     -11.367   9.699  71.292  1.00  0.00    -0.388 C  
HETATM    3  H   UNL     1      -9.989   8.743  72.374  1.00  0.00     0.000 HD 
ENDROOT
BRANCH   2   4
HETATM    4  C   UNL     1     -11.722   9.932  69.810  1.00  0.00    -0.021 C  
HETATM    5  O   UNL     1     -12.312  11.225  69.599  1.00  0.00    -0.276 OA 
HETATM    6  C   UNL     1     -11.398  12.322  69.678  1.00  0.00    -0.137 C  
HETATM    7  O   UNL     1     -11.146   9.322  67.546  1.00  0.00    -0.455 OA 
HETATM    8  C   UNL     1     -10.383  12.187  68.520  1.00  0.00    -0.221 C  
HETATM    9  O   UNL     1     -11.072  12.200  67.250  1.00  0.00    -0.255 OA 
HETATM   10  C   UNL     1      -9.613  10.861  68.641  1.00  0.00    -0.190 C  
HETATM   11  H   UNL     1     -10.436   9.155  66.936  1.00  0.00     0.000 HD 
HETATM   12  H   UNL     1     -10.448  12.118  66.538  1.00  0.00     0.000 HD 
HETATM   13  O   UNL     1      -8.636  10.934  69.682  1.00  0.00    -0.370 OA 
HETATM   14  H   UNL     1      -8.160  10.115  69.757  1.00  0.00     0.000 HD 
HETATM   15  C   UNL     1     -10.571   9.662  68.822  1.00  0.00    -0.216 C  
BRANCH   6  16
HETATM   16  O   UNL     1     -12.096  13.580  69.534  1.00  0.00    -0.316 OA 
BRANCH  16  17
HETATM   17  C   UNL     1     -12.283  14.264  70.711  1.00  0.00    -0.353 A  
HETATM   18  C   UNL     1     -13.138  13.679  71.647  1.00  0.00    -0.455 A  
HETATM   19  C   UNL     1     -12.763  15.516  73.163  1.00  0.00    -0.478 A  
HETATM   20  C   UNL     1     -13.387  14.309  72.875  1.00  0.00    -0.561 A  
HETATM   21  C   UNL     1     -11.886  16.093  72.259  1.00  0.00    -0.631 A  
HETATM   22  O   UNL     1     -12.976  16.179  74.336  1.00  0.00    -0.930 OA 
HETATM   23  C   UNL     1     -11.640  15.461  71.039  1.00  0.00    -0.410 A  
HETATM   24  H   UNL     1     -12.549  17.004  74.533  1.00  0.00     0.000 HD 
ENDBRANCH  16  17
ENDBRANCH   6  16
ENDBRANCH   2   4
TORSDOF 3
ENDMDL
MODEL       31
REMARK 921   NORMALIZED FREE ENERGY PREDICTED BY IDOCK:   -5.91 KCAL/MOL
REMARK 922        TOTAL FREE ENERGY PREDICTED BY IDOCK:   -7.39 KCAL/MOL
REMARK 923 INTER-LIGAND FREE ENERGY PREDICTED BY IDOCK:   -7.03 KCAL/MOL
REMARK 924 INTRA-LIGAND FREE ENERGY PREDICTED BY IDOCK:   -0.37 KCAL/MOL
REMARK 927      BINDING AFFINITY PREDICTED BY RF-SCORE:    0.00 PKD
ROOT
HETATM    1  O   UNL     1     -14.244   8.852  73.444  1.00  0.00    -1.241 OA 
HETATM    2  C   UNL     1     -13.023   9.159  72.774  1.00  0.00    -0.082 C  
HETATM    3  H   UNL     1     -14.258   9.161  74.343  1.00  0.00     0.000 HD 
ENDROOT
BRANCH   2   4
HETATM    4  C   UNL     1     -13.001   8.658  71.317  1.00  0.00    -0.182 C  
HETATM    5  O   UNL     1     -13.103   9.741  70.378  1.00  0.00    -0.004 OA 
HETATM    6  C   UNL     1     -11.922  10.537  70.250  1.00  0.00    -0.325 C  
HETATM    7  O   UNL     1     -12.232   6.880  69.875  1.00  0.00    -0.626 OA 
HETATM    8  C   UNL     1     -10.802   9.646  69.664  1.00  0.00    -0.244 C  
HETATM    9  O   UNL     1     -11.201   9.130  68.374  1.00  0.00    -0.464 OA 
HETATM   10  C   UNL     1     -10.527   8.457  70.600  1.00  0.00    -0.200 C  
HETATM   11  H   UNL     1     -11.509   6.299  69.665  1.00  0.00     0.000 HD 
HETATM   12  H   UNL     1     -10.513   8.583  68.014  1.00  0.00     0.000 HD 
HETATM   13  O   UNL     1      -9.790   8.876  71.751  1.00  0.00    -0.298 OA 
HETATM   14  H   UNL     1      -9.620   8.141  72.328  1.00  0.00     0.000 HD 
HETATM   15  C   UNL     1     -11.830   7.716  70.976  1.00  0.00    -0.285 C  
BRANCH   6  16
HETATM   16  O   UNL     1     -12.148  11.645  69.349  1.00  0.00    -0.306 OA 
BRANCH  16  17
HETATM   17  C   UNL     1     -12.105  12.881  69.946  1.00  0.00    -0.265 A  
HETATM   18  C   UNL     1     -11.521  13.914  69.210  1.00  0.00    -0.348 A  
HETATM   19  C   UNL     1     -11.949  15.462  71.007  1.00  0.00    -0.359 A  
HETATM   20  C   UNL     1     -11.435  15.208  69.742  1.00  0.00    -0.321 A  
HETATM   21  C   UNL     1     -12.561  14.456  71.738  1.00  0.00    -0.427 A  
HETATM   22  O   UNL     1     -11.883  16.698  71.581  1.00  0.00    -0.645 OA 
HETATM   23  C   UNL     1     -12.646  13.170  71.202  1.00  0.00    -0.403 A  
HETATM   24  H   UNL     1     -12.235  16.871  72.446  1.00  0.00     0.000 HD 
ENDBRANCH  16  17
ENDBRANCH   6  16
ENDBRANCH   2   4
TORSDOF 3
ENDMDL
MODEL       32
REMARK 921   NORMALIZED FREE ENERGY PREDICTED BY IDOCK:   -5.82 KCAL/MOL
REMARK 922        TOTAL FREE ENERGY PREDICTED BY IDOCK:   -7.29 KCAL/MOL
REMARK 923 INTER-LIGAND FREE ENERGY PREDICTED BY IDOCK:   -6.90 KCAL/MOL
REMARK 924 INTRA-LIGAND FREE ENERGY PREDICTED BY IDOCK:   -0.39 KCAL/MOL
REMARK 927      BINDING AFFINITY PREDICTED BY RF-SCORE:    0.00 PKD
ROOT
HETATM    1  O   UNL     1     -10.035  10.146  65.744  1.00  0.00    -0.247 OA 
HETATM    2  C   UNL     1     -10.207  10.747  67.026  1.00  0.00    -0.217 C  
HETATM    3  H   UNL     1      -9.370   9.468  65.742  1.00  0.00     0.000 HD 
ENDROOT
BRANCH   2   4
HETATM    4  C   UNL     1     -11.286  11.847  67.029  1.00  0.00    -0.323 C  
HETATM    5  O   UNL     1     -12.151  11.744  68.171  1.00  0.00    -0.556 OA 
HETATM    6  C   UNL     1     -11.562  12.150  69.410  1.00  0.00    -0.317 C  
HETATM    7  O   UNL     1     -11.794  14.086  66.278  1.00  0.00    -0.372 OA 
HETATM    8  C   UNL     1     -11.248  13.661  69.321  1.00  0.00    -0.233 C  
HETATM    9  O   UNL     1     -12.461  14.407  69.076  1.00  0.00    -0.561 OA 
HETATM   10  C   UNL     1     -10.268  13.932  68.167  1.00  0.00    -0.249 C  
HETATM   11  H   UNL     1     -11.461  14.969  66.168  1.00  0.00     0.000 HD 
HETATM   12  H   UNL     1     -12.269  15.336  69.022  1.00  0.00     0.000 HD 
HETATM   13  O   UNL     1      -8.943  13.531  68.521  1.00  0.00    -0.278 OA 
HETATM   14  H   UNL     1      -8.338  13.699  67.808  1.00  0.00     0.000 HD 
HETATM   15  C   UNL     1     -10.746  13.280  66.850  1.00  0.00    -0.271 C  
BRANCH   6  16
HETATM   16  O   UNL     1     -12.478  11.933  70.507  1.00  0.00    -0.287 OA 
BRANCH  16  17
HETATM   17  C   UNL     1     -12.327  10.725  71.143  1.00  0.00    -0.393 A  
HETATM   18  C   UNL     1     -11.094  10.086  70.992  1.00  0.00    -0.341 A  
HETATM   19  C   UNL     1     -11.845   8.267  72.383  1.00  0.00    -0.396 A  
HETATM   20  C   UNL     1     -10.852   8.849  71.606  1.00  0.00    -0.420 A  
HETATM   21  C   UNL     1     -13.062   8.903  72.571  1.00  0.00    -0.426 A  
HETATM   22  O   UNL     1     -11.671   7.061  72.995  1.00  0.00    -0.523 OA 
HETATM   23  C   UNL     1     -13.297  10.135  71.959  1.00  0.00    -0.492 A  
HETATM   24  H   UNL     1     -12.350   6.662  73.527  1.00  0.00     0.000 HD 
ENDBRANCH  16  17
ENDBRANCH   6  16
ENDBRANCH   2   4
TORSDOF 3
ENDMDL
MODEL       33
REMARK 921   NORMALIZED FREE ENERGY PREDICTED BY IDOCK:   -5.81 KCAL/MOL
REMARK 922        TOTAL FREE ENERGY PREDICTED BY IDOCK:   -7.27 KCAL/MOL
REMARK 923 INTER-LIGAND FREE ENERGY PREDICTED BY IDOCK:   -6.64 KCAL/MOL
REMARK 924 INTRA-LIGAND FREE ENERGY PREDICTED BY IDOCK:   -0.63 KCAL/MOL
REMARK 927      BINDING AFFINITY PREDICTED BY RF-SCORE:    0.00 PKD
ROOT
HETATM    1  O   UNL     1      -8.736  14.103  66.576  1.00  0.00    -0.447 OA 
HETATM    2  C   UNL     1     -10.120  13.830  66.785  1.00  0.00    -0.265 C  
HETATM    3  H   UNL     1      -8.266  13.361  66.213  1.00  0.00     0.000 HD 
ENDROOT
BRANCH   2   4
HETATM    4  C   UNL     1     -10.883  15.033  67.372  1.00  0.00    -0.305 C  
HETATM    5  O   UNL     1     -11.901  14.620  68.298  1.00  0.00    -0.322 OA 
HETATM    6  C   UNL     1     -11.413  14.158  69.561  1.00  0.00    -0.281 C  
HETATM    7  O   UNL     1     -10.710  17.381  67.908  1.00  0.00    -0.383 OA 
HETATM    8  C   UNL     1     -10.726  15.346  70.274  1.00  0.00    -0.298 C  
HETATM    9  O   UNL     1     -11.670  16.423  70.466  1.00  0.00    -0.482 OA 
HETATM   10  C   UNL     1      -9.556  15.869  69.425  1.00  0.00    -0.265 C  
HETATM   11  H   UNL     1     -10.157  18.062  68.274  1.00  0.00     0.000 HD 
HETATM   12  H   UNL     1     -11.248  17.153  70.904  1.00  0.00     0.000 HD 
HETATM   13  O   UNL     1      -8.435  14.986  69.505  1.00  0.00    -0.379 OA 
HETATM   14  H   UNL     1      -7.712  15.310  68.981  1.00  0.00     0.000 HD 
HETATM   15  C   UNL     1      -9.986  16.137  67.966  1.00  0.00    -0.238 C  
BRANCH   6  16
HETATM   16  O   UNL     1     -12.501  13.689  70.389  1.00  0.00    -0.326 OA 
BRANCH  16  17
HETATM   17  C   UNL     1     -12.427  12.360  70.726  1.00  0.00    -0.267 A  
HETATM   18  C   UNL     1     -11.549  11.571  69.979  1.00  0.00    -0.364 A  
HETATM   19  C   UNL     1     -12.143   9.637  71.289  1.00  0.00    -0.371 A  
HETATM   20  C   UNL     1     -11.410  10.203  70.254  1.00  0.00    -0.387 A  
HETATM   21  C   UNL     1     -12.993  10.412  72.062  1.00  0.00    -0.499 A  
HETATM   22  O   UNL     1     -12.058   8.311  71.595  1.00  0.00    -0.281 OA 
HETATM   23  C   UNL     1     -13.127  11.774  71.785  1.00  0.00    -0.480 A  
HETATM   24  H   UNL     1     -12.559   7.923  72.303  1.00  0.00     0.000 HD 
ENDBRANCH  16  17
ENDBRANCH   6  16
ENDBRANCH   2   4
TORSDOF 3
ENDMDL
MODEL       34
REMARK 921   NORMALIZED FREE ENERGY PREDICTED BY IDOCK:   -5.80 KCAL/MOL
REMARK 922        TOTAL FREE ENERGY PREDICTED BY IDOCK:   -7.26 KCAL/MOL
REMARK 923 INTER-LIGAND FREE ENERGY PREDICTED BY IDOCK:   -6.90 KCAL/MOL
REMARK 924 INTRA-LIGAND FREE ENERGY PREDICTED BY IDOCK:   -0.36 KCAL/MOL
REMARK 927      BINDING AFFINITY PREDICTED BY RF-SCORE:    0.00 PKD
ROOT
HETATM    1  O   UNL     1     -13.131  15.812  70.230  1.00  0.00    -0.685 OA 
HETATM    2  C   UNL     1     -11.965  15.064  69.895  1.00  0.00    -0.334 C  
HETATM    3  H   UNL     1     -13.051  16.268  71.060  1.00  0.00     0.000 HD 
ENDROOT
BRANCH   2   4
HETATM    4  C   UNL     1     -12.096  14.327  68.549  1.00  0.00    -0.260 C  
HETATM    5  O   UNL     1     -11.930  15.216  67.433  1.00  0.00    -0.200 OA 
HETATM    6  C   UNL     1     -10.586  15.648  67.204  1.00  0.00    -0.308 C  
HETATM    7  O   UNL     1     -11.833  12.186  67.462  1.00  0.00    -0.499 OA 
HETATM    8  C   UNL     1      -9.743  14.412  66.816  1.00  0.00    -0.270 C  
HETATM    9  O   UNL     1     -10.281  13.797  65.625  1.00  0.00    -0.296 OA 
HETATM   10  C   UNL     1      -9.768  13.376  67.953  1.00  0.00    -0.226 C  
HETATM   11  H   UNL     1     -11.288  11.412  67.378  1.00  0.00     0.000 HD 
HETATM   12  H   UNL     1      -9.763  13.037  65.386  1.00  0.00     0.000 HD 
HETATM   13  O   UNL     1      -8.930  13.787  69.035  1.00  0.00    -0.378 OA 
HETATM   14  H   UNL     1      -8.946  13.147  69.736  1.00  0.00     0.000 HD 
HETATM   15  C   UNL     1     -11.211  13.071  68.413  1.00  0.00    -0.269 C  
BRANCH   6  16
HETATM   16  O   UNL     1     -10.534  16.601  66.118  1.00  0.00    -0.319 OA 
BRANCH  16  17
HETATM   17  C   UNL     1      -9.944  17.799  66.440  1.00  0.00    -0.344 A  
HETATM   18  C   UNL     1      -8.558  17.878  66.285  1.00  0.00    -0.207 A  
HETATM   19  C   UNL     1      -8.587  20.168  67.038  1.00  0.00    -0.336 A  
HETATM   20  C   UNL     1      -7.874  19.063  66.592  1.00  0.00    -0.274 A  
HETATM   21  C   UNL     1      -9.966  20.117  67.166  1.00  0.00    -0.595 A  
HETATM   22  O   UNL     1      -7.974  21.342  67.361  1.00  0.00    -0.603 OA 
HETATM   23  C   UNL     1     -10.643  18.936  66.858  1.00  0.00    -0.495 A  
HETATM   24  H   UNL     1      -8.461  22.098  67.667  1.00  0.00     0.000 HD 
ENDBRANCH  16  17
ENDBRANCH   6  16
ENDBRANCH   2   4
TORSDOF 3
ENDMDL
MODEL       35
REMARK 921   NORMALIZED FREE ENERGY PREDICTED BY IDOCK:   -5.77 KCAL/MOL
REMARK 922        TOTAL FREE ENERGY PREDICTED BY IDOCK:   -7.23 KCAL/MOL
REMARK 923 INTER-LIGAND FREE ENERGY PREDICTED BY IDOCK:   -7.21 KCAL/MOL
REMARK 924 INTRA-LIGAND FREE ENERGY PREDICTED BY IDOCK:   -0.02 KCAL/MOL
REMARK 927      BINDING AFFINITY PREDICTED BY RF-SCORE:    0.00 PKD
ROOT
HETATM    1  O   UNL     1     -11.636  16.648  63.929  1.00  0.00    -1.582 OA 
HETATM    2  C   UNL     1     -12.033  15.348  64.362  1.00  0.00    -0.228 C  
HETATM    3  H   UNL     1     -12.318  17.299  64.045  1.00  0.00     0.000 HD 
ENDROOT
BRANCH   2   4
HETATM    4  C   UNL     1     -10.926  14.293  64.173  1.00  0.00     0.169 C  
HETATM    5  O   UNL     1     -10.235  14.018  65.402  1.00  0.00    -0.325 OA 
HETATM    6  C   UNL     1     -10.978  13.245  66.349  1.00  0.00    -0.289 C  
HETATM    7  O   UNL     1     -10.236  12.406  62.834  1.00  0.00    -0.442 OA 
HETATM    8  C   UNL     1     -11.221  11.844  65.742  1.00  0.00    -0.312 C  
HETATM    9  O   UNL     1      -9.959  11.202  65.452  1.00  0.00    -0.232 OA 
HETATM   10  C   UNL     1     -12.018  11.965  64.431  1.00  0.00    -0.223 C  
HETATM   11  H   UNL     1     -10.518  11.607  62.403  1.00  0.00     0.000 HD 
HETATM   12  H   UNL     1     -10.109  10.342  65.079  1.00  0.00     0.000 HD 
HETATM   13  O   UNL     1     -13.393  12.247  64.697  1.00  0.00    -0.717 OA 
HETATM   14  H   UNL     1     -13.885  12.322  63.888  1.00  0.00     0.000 HD 
HETATM   15  C   UNL     1     -11.383  12.998  63.473  1.00  0.00    -0.266 C  
BRANCH   6  16
HETATM   16  O   UNL     1     -10.235  13.092  67.579  1.00  0.00    -0.218 OA 
BRANCH  16  17
HETATM   17  C   UNL     1     -10.975  12.622  68.637  1.00  0.00    -0.256 A  
HETATM   18  C   UNL     1     -11.447  13.574  69.544  1.00  0.00    -0.318 A  
HETATM   19  C   UNL     1     -12.510  11.840  70.837  1.00  0.00    -0.318 A  
HETATM   20  C   UNL     1     -12.210  13.183  70.653  1.00  0.00    -0.402 A  
HETATM   21  C   UNL     1     -12.079  10.887  69.928  1.00  0.00    -0.428 A  
HETATM   22  O   UNL     1     -13.239  11.401  71.903  1.00  0.00    -0.484 OA 
HETATM   23  C   UNL     1     -11.320  11.281  68.825  1.00  0.00    -0.335 A  
HETATM   24  H   UNL     1     -13.445  10.481  72.029  1.00  0.00     0.000 HD 
ENDBRANCH  16  17
ENDBRANCH   6  16
ENDBRANCH   2   4
TORSDOF 3
ENDMDL
MODEL       36
REMARK 921   NORMALIZED FREE ENERGY PREDICTED BY IDOCK:   -5.72 KCAL/MOL
REMARK 922        TOTAL FREE ENERGY PREDICTED BY IDOCK:   -7.17 KCAL/MOL
REMARK 923 INTER-LIGAND FREE ENERGY PREDICTED BY IDOCK:   -6.61 KCAL/MOL
REMARK 924 INTRA-LIGAND FREE ENERGY PREDICTED BY IDOCK:   -0.56 KCAL/MOL
REMARK 927      BINDING AFFINITY PREDICTED BY RF-SCORE:    0.00 PKD
ROOT
HETATM    1  O   UNL     1      -8.139  17.278  67.729  1.00  0.00    -0.193 OA 
HETATM    2  C   UNL     1      -9.353  17.076  67.009  1.00  0.00    -0.241 C  
HETATM    3  H   UNL     1      -7.392  17.416  67.159  1.00  0.00     0.000 HD 
ENDROOT
BRANCH   2   4
HETATM    4  C   UNL     1     -10.566  16.854  67.934  1.00  0.00    -0.361 C  
HETATM    5  O   UNL     1     -11.536  15.975  67.343  1.00  0.00    -0.083 OA 
HETATM    6  C   UNL     1     -11.156  14.596  67.310  1.00  0.00    -0.328 C  
HETATM    7  O   UNL     1     -11.284  16.835  70.240  1.00  0.00    -0.466 OA 
HETATM    8  C   UNL     1     -11.043  14.094  68.768  1.00  0.00    -0.262 C  
HETATM    9  O   UNL     1     -12.310  14.248  69.446  1.00  0.00    -0.470 OA 
HETATM   10  C   UNL     1      -9.982  14.907  69.529  1.00  0.00    -0.077 C  
HETATM   11  H   UNL     1     -11.065  16.571  71.126  1.00  0.00     0.000 HD 
HETATM   12  H   UNL     1     -12.242  13.938  70.341  1.00  0.00     0.000 HD 
HETATM   13  O   UNL     1      -8.665  14.513  69.140  1.00  0.00    -0.345 OA 
HETATM   14  H   UNL     1      -8.010  15.015  69.610  1.00  0.00     0.000 HD 
HETATM   15  C   UNL     1     -10.210  16.427  69.372  1.00  0.00    -0.273 C  
BRANCH   6  16
HETATM   16  O   UNL     1     -12.155  13.807  66.626  1.00  0.00    -0.411 OA 
BRANCH  16  17
HETATM   17  C   UNL     1     -11.661  13.015  65.618  1.00  0.00    -0.354 A  
HETATM   18  C   UNL     1     -12.537  12.711  64.573  1.00  0.00    -0.491 A  
HETATM   19  C   UNL     1     -10.815  11.427  63.479  1.00  0.00    -0.353 A  
HETATM   20  C   UNL     1     -12.117  11.908  63.503  1.00  0.00    -0.575 A  
HETATM   21  C   UNL     1      -9.923  11.747  64.491  1.00  0.00    -0.273 A  
HETATM   22  O   UNL     1     -10.354  10.634  62.470  1.00  0.00    -0.751 OA 
HETATM   23  C   UNL     1     -10.345  12.548  65.553  1.00  0.00    -0.303 A  
HETATM   24  H   UNL     1      -9.463  10.304  62.454  1.00  0.00     0.000 HD 
ENDBRANCH  16  17
ENDBRANCH   6  16
ENDBRANCH   2   4
TORSDOF 3
ENDMDL
MODEL       37
REMARK 921   NORMALIZED FREE ENERGY PREDICTED BY IDOCK:   -5.65 KCAL/MOL
REMARK 922        TOTAL FREE ENERGY PREDICTED BY IDOCK:   -7.09 KCAL/MOL
REMARK 923 INTER-LIGAND FREE ENERGY PREDICTED BY IDOCK:   -6.52 KCAL/MOL
REMARK 924 INTRA-LIGAND FREE ENERGY PREDICTED BY IDOCK:   -0.58 KCAL/MOL
REMARK 927      BINDING AFFINITY PREDICTED BY RF-SCORE:    0.00 PKD
ROOT
HETATM    1  O   UNL     1     -11.398   7.312  68.618  1.00  0.00    -0.440 OA 
HETATM    2  C   UNL     1     -10.320   7.773  67.805  1.00  0.00    -0.221 C  
HETATM    3  H   UNL     1     -11.950   6.680  68.172  1.00  0.00     0.000 HD 
ENDROOT
BRANCH   2   4
HETATM    4  C   UNL     1      -9.424   8.797  68.528  1.00  0.00    -0.145 C  
HETATM    5  O   UNL     1      -8.904   9.785  67.624  1.00  0.00    -0.125 OA 
HETATM    6  C   UNL     1      -9.857  10.753  67.178  1.00  0.00    -0.185 C  
HETATM    7  O   UNL     1      -8.999   9.862  70.654  1.00  0.00    -0.343 OA 
HETATM    8  C   UNL     1     -10.312  11.579  68.403  1.00  0.00    -0.202 C  
HETATM    9  O   UNL     1      -9.177  12.237  69.009  1.00  0.00    -0.374 OA 
HETATM   10  C   UNL     1     -10.959  10.659  69.453  1.00  0.00    -0.255 C  
HETATM   11  H   UNL     1      -9.392  10.261  71.422  1.00  0.00     0.000 HD 
HETATM   12  H   UNL     1      -9.457  12.745  69.761  1.00  0.00     0.000 HD 
HETATM   13  O   UNL     1     -12.272  10.269  69.047  1.00  0.00    -0.643 OA 
HETATM   14  H   UNL     1     -12.672   9.701  69.695  1.00  0.00     0.000 HD 
HETATM   15  C   UNL     1     -10.061   9.444  69.775  1.00  0.00    -0.211 C  
BRANCH   6  16
HETATM   16  O   UNL     1      -9.262  11.649  66.213  1.00  0.00    -0.209 OA 
BRANCH  16  17
HETATM   17  C   UNL     1     -10.157  12.472  65.574  1.00  0.00    -0.265 A  
HETATM   18  C   UNL     1      -9.980  13.847  65.747  1.00  0.00    -0.304 A  
HETATM   19  C   UNL     1     -11.882  14.289  64.334  1.00  0.00    -0.426 A  
HETATM   20  C   UNL     1     -10.848  14.760  65.132  1.00  0.00    -0.417 A  
HETATM   21  C   UNL     1     -12.051  12.929  64.124  1.00  0.00    -0.503 A  
HETATM   22  O   UNL     1     -12.762  15.129  63.720  1.00  0.00    -0.877 OA 
HETATM   23  C   UNL     1     -11.184  12.024  64.737  1.00  0.00    -0.373 A  
HETATM   24  H   UNL     1     -13.470  14.807  63.173  1.00  0.00     0.000 HD 
ENDBRANCH  16  17
ENDBRANCH   6  16
ENDBRANCH   2   4
TORSDOF 3
ENDMDL
MODEL       38
REMARK 921   NORMALIZED FREE ENERGY PREDICTED BY IDOCK:   -5.65 KCAL/MOL
REMARK 922        TOTAL FREE ENERGY PREDICTED BY IDOCK:   -7.08 KCAL/MOL
REMARK 923 INTER-LIGAND FREE ENERGY PREDICTED BY IDOCK:   -6.76 KCAL/MOL
REMARK 924 INTRA-LIGAND FREE ENERGY PREDICTED BY IDOCK:   -0.32 KCAL/MOL
REMARK 927      BINDING AFFINITY PREDICTED BY RF-SCORE:    0.00 PKD
ROOT
HETATM    1  O   UNL     1     -12.506  13.757  63.136  1.00  0.00    -1.089 OA 
HETATM    2  C   UNL     1     -12.407  12.535  63.865  1.00  0.00    -0.485 C  
HETATM    3  H   UNL     1     -12.546  13.622  62.196  1.00  0.00     0.000 HD 
ENDROOT
BRANCH   2   4
HETATM    4  C   UNL     1     -12.342  12.753  65.389  1.00  0.00    -0.470 C  
HETATM    5  O   UNL     1     -11.335  11.935  66.004  1.00  0.00    -0.334 OA 
HETATM    6  C   UNL     1      -9.989  12.358  65.765  1.00  0.00    -0.254 C  
HETATM    7  O   UNL     1     -12.770  14.347  67.152  1.00  0.00    -0.446 OA 
HETATM    8  C   UNL     1      -9.795  13.742  66.427  1.00  0.00    -0.298 C  
HETATM    9  O   UNL     1     -10.047  13.653  67.848  1.00  0.00    -0.232 OA 
HETATM   10  C   UNL     1     -10.775  14.761  65.822  1.00  0.00    -0.326 C  
HETATM   11  H   UNL     1     -12.697  15.256  67.421  1.00  0.00     0.000 HD 
HETATM   12  H   UNL     1      -9.928  14.503  68.255  1.00  0.00     0.000 HD 
HETATM   13  O   UNL     1     -10.348  15.165  64.520  1.00  0.00    -0.454 OA 
HETATM   14  H   UNL     1     -10.954  15.795  64.146  1.00  0.00     0.000 HD 
HETATM   15  C   UNL     1     -12.225  14.228  65.824  1.00  0.00    -0.403 C  
BRANCH   6  16
HETATM   16  O   UNL     1      -9.050  11.430  66.353  1.00  0.00    -0.182 OA 
BRANCH  16  17
HETATM   17  C   UNL     1      -9.623  10.300  66.882  1.00  0.00    -0.173 A  
HETATM   18  C   UNL     1      -9.705   9.186  66.043  1.00  0.00    -0.358 A  
HETATM   19  C   UNL     1     -10.748   7.913  67.805  1.00  0.00    -0.119 A  
HETATM   20  C   UNL     1     -10.276   7.990  66.501  1.00  0.00    -0.228 A  
HETATM   21  C   UNL     1     -10.644   8.998  68.661  1.00  0.00    -0.194 A  
HETATM   22  O   UNL     1     -11.323   6.781  68.301  1.00  0.00    -0.543 OA 
HETATM   23  C   UNL     1     -10.073  10.186  68.201  1.00  0.00    -0.178 A  
HETATM   24  H   UNL     1     -11.646   6.728  69.193  1.00  0.00     0.000 HD 
ENDBRANCH  16  17
ENDBRANCH   6  16
ENDBRANCH   2   4
TORSDOF 3
ENDMDL
MODEL       39
REMARK 921   NORMALIZED FREE ENERGY PREDICTED BY IDOCK:   -5.56 KCAL/MOL
REMARK 922        TOTAL FREE ENERGY PREDICTED BY IDOCK:   -6.98 KCAL/MOL
REMARK 923 INTER-LIGAND FREE ENERGY PREDICTED BY IDOCK:   -6.42 KCAL/MOL
REMARK 924 INTRA-LIGAND FREE ENERGY PREDICTED BY IDOCK:   -0.56 KCAL/MOL
REMARK 927      BINDING AFFINITY PREDICTED BY RF-SCORE:    0.00 PKD
ROOT
HETATM    1  O   UNL     1      -7.039   9.631  66.448  1.00  0.00    -0.090 OA 
HETATM    2  C   UNL     1      -7.225  10.629  67.449  1.00  0.00    -0.092 C  
HETATM    3  H   UNL     1      -6.359   9.858  65.824  1.00  0.00     0.000 HD 
ENDROOT
BRANCH   2   4
HETATM    4  C   UNL     1      -8.327  10.260  68.461  1.00  0.00    -0.116 C  
HETATM    5  O   UNL     1      -9.196  11.371  68.735  1.00  0.00    -0.175 OA 
HETATM    6  C   UNL     1     -10.105  11.696  67.679  1.00  0.00    -0.188 C  
HETATM    7  O   UNL     1      -9.642   8.433  69.336  1.00  0.00    -0.168 OA 
HETATM    8  C   UNL     1     -11.075  10.507  67.497  1.00  0.00    -0.290 C  
HETATM    9  O   UNL     1     -11.799  10.263  68.724  1.00  0.00    -0.581 OA 
HETATM   10  C   UNL     1     -10.292   9.234  67.133  1.00  0.00    -0.260 C  
HETATM   11  H   UNL     1     -10.132   7.647  69.120  1.00  0.00     0.000 HD 
HETATM   12  H   UNL     1     -12.395   9.532  68.612  1.00  0.00     0.000 HD 
HETATM   13  O   UNL     1      -9.859   9.276  65.772  1.00  0.00    -0.332 OA 
HETATM   14  H   UNL     1      -9.375   8.490  65.547  1.00  0.00     0.000 HD 
HETATM   15  C   UNL     1      -9.123   8.986  68.112  1.00  0.00    -0.132 C  
BRANCH   6  16
HETATM   16  O   UNL     1     -10.876  12.873  68.013  1.00  0.00    -0.227 OA 
BRANCH  16  17
HETATM   17  C   UNL     1     -11.105  13.721  66.957  1.00  0.00    -0.302 A  
HETATM   18  C   UNL     1     -10.127  14.685  66.703  1.00  0.00    -0.277 A  
HETATM   19  C   UNL     1     -11.408  15.518  64.838  1.00  0.00    -0.335 A  
HETATM   20  C   UNL     1     -10.280  15.593  65.645  1.00  0.00    -0.402 A  
HETATM   21  C   UNL     1     -12.371  14.546  65.056  1.00  0.00    -0.353 A  
HETATM   22  O   UNL     1     -11.615  16.380  63.802  1.00  0.00    -1.605 OA 
HETATM   23  C   UNL     1     -12.214  13.644  66.109  1.00  0.00    -0.490 A  
HETATM   24  H   UNL     1     -12.386  16.329  63.250  1.00  0.00     0.000 HD 
ENDBRANCH  16  17
ENDBRANCH   6  16
ENDBRANCH   2   4
TORSDOF 3
ENDMDL
MODEL       40
REMARK 921   NORMALIZED FREE ENERGY PREDICTED BY IDOCK:   -5.53 KCAL/MOL
REMARK 922        TOTAL FREE ENERGY PREDICTED BY IDOCK:   -6.95 KCAL/MOL
REMARK 923 INTER-LIGAND FREE ENERGY PREDICTED BY IDOCK:   -6.41 KCAL/MOL
REMARK 924 INTRA-LIGAND FREE ENERGY PREDICTED BY IDOCK:   -0.54 KCAL/MOL
REMARK 927      BINDING AFFINITY PREDICTED BY RF-SCORE:    0.00 PKD
ROOT
HETATM    1  O   UNL     1     -11.987  15.115  63.976  1.00  0.00    -0.848 OA 
HETATM    2  C   UNL     1     -12.270  13.774  64.368  1.00  0.00    -0.399 C  
HETATM    3  H   UNL     1     -11.897  15.212  63.035  1.00  0.00     0.000 HD 
ENDROOT
BRANCH   2   4
HETATM    4  C   UNL     1     -12.417  13.616  65.894  1.00  0.00    -0.452 C  
HETATM    5  O   UNL     1     -12.140  12.273  66.321  1.00  0.00    -0.626 OA 
HETATM    6  C   UNL     1     -10.758  11.906  66.294  1.00  0.00    -0.271 C  
HETATM    7  O   UNL     1     -12.296  14.795  67.998  1.00  0.00    -0.592 OA 
HETATM    8  C   UNL     1     -10.008  12.782  67.324  1.00  0.00    -0.219 C  
HETATM    9  O   UNL     1     -10.555  12.575  68.646  1.00  0.00    -0.228 OA 
HETATM   10  C   UNL     1     -10.157  14.270  66.964  1.00  0.00    -0.260 C  
HETATM   11  H   UNL     1     -11.814  15.433  68.512  1.00  0.00     0.000 HD 
HETATM   12  H   UNL     1     -10.094  13.112  69.278  1.00  0.00     0.000 HD 
HETATM   13  O   UNL     1      -9.325  14.609  65.853  1.00  0.00    -0.478 OA 
HETATM   14  H   UNL     1      -9.417  15.528  65.631  1.00  0.00     0.000 HD 
HETATM   15  C   UNL     1     -11.635  14.652  66.726  1.00  0.00    -0.360 C  
BRANCH   6  16
HETATM   16  O   UNL     1     -10.591  10.518  66.661  1.00  0.00    -0.241 OA 
BRANCH  16  17
HETATM   17  C   UNL     1      -9.822   9.788  65.787  1.00  0.00    -0.290 A  
HETATM   18  C   UNL     1      -9.528  10.386  64.559  1.00  0.00    -0.342 A  
HETATM   19  C   UNL     1      -8.259   8.447  63.897  1.00  0.00    -0.104 A  
HETATM   20  C   UNL     1      -8.751   9.713  63.607  1.00  0.00    -0.240 A  
HETATM   21  C   UNL     1      -8.513   7.853  65.123  1.00  0.00    -0.096 A  
HETATM   22  O   UNL     1      -7.507   7.740  63.006  1.00  0.00    -0.097 OA 
HETATM   23  C   UNL     1      -9.287   8.528  66.069  1.00  0.00    -0.266 A  
HETATM   24  H   UNL     1      -7.171   6.874  63.205  1.00  0.00     0.000 HD 
ENDBRANCH  16  17
ENDBRANCH   6  16
ENDBRANCH   2   4
TORSDOF 3
ENDMDL
MODEL       41
REMARK 921   NORMALIZED FREE ENERGY PREDICTED BY IDOCK:   -5.52 KCAL/MOL
REMARK 922        TOTAL FREE ENERGY PREDICTED BY IDOCK:   -6.93 KCAL/MOL
REMARK 923 INTER-LIGAND FREE ENERGY PREDICTED BY IDOCK:   -6.32 KCAL/MOL
REMARK 924 INTRA-LIGAND FREE ENERGY PREDICTED BY IDOCK:   -0.61 KCAL/MOL
REMARK 927      BINDING AFFINITY PREDICTED BY RF-SCORE:    0.00 PKD
ROOT
HETATM    1  O   UNL     1     -12.001  15.574  68.045  1.00  0.00    -0.407 OA 
HETATM    2  C   UNL     1     -10.813  14.867  67.697  1.00  0.00    -0.286 C  
HETATM    3  H   UNL     1     -12.202  15.523  68.972  1.00  0.00     0.000 HD 
ENDROOT
BRANCH   2   4
HETATM    4  C   UNL     1     -10.487  14.951  66.194  1.00  0.00    -0.306 C  
HETATM    5  O   UNL     1      -9.904  13.733  65.704  1.00  0.00    -0.268 OA 
HETATM    6  C   UNL     1     -10.820  12.642  65.567  1.00  0.00    -0.279 C  
HETATM    7  O   UNL     1     -11.103  16.024  64.120  1.00  0.00    -1.021 OA 
HETATM    8  C   UNL     1     -11.856  13.017  64.483  1.00  0.00    -0.377 C  
HETATM    9  O   UNL     1     -11.190  13.272  63.226  1.00  0.00    -0.495 OA 
HETATM   10  C   UNL     1     -12.620  14.287  64.895  1.00  0.00    -0.324 C  
HETATM   11  H   UNL     1     -11.824  16.314  63.572  1.00  0.00     0.000 HD 
HETATM   12  H   UNL     1     -11.827  13.502  62.560  1.00  0.00     0.000 HD 
HETATM   13  O   UNL     1     -13.578  13.995  65.915  1.00  0.00    -0.437 OA 
HETATM   14  H   UNL     1     -14.049  14.779  66.170  1.00  0.00     0.000 HD 
HETATM   15  C   UNL     1     -11.656  15.422  65.306  1.00  0.00    -0.068 C  
BRANCH   6  16
HETATM   16  O   UNL     1     -10.128  11.444  65.149  1.00  0.00    -0.244 OA 
BRANCH  16  17
HETATM   17  C   UNL     1     -10.140  10.428  66.074  1.00  0.00    -0.243 A  
HETATM   18  C   UNL     1      -9.532   9.229  65.697  1.00  0.00    -0.324 A  
HETATM   19  C   UNL     1     -10.064   8.264  67.842  1.00  0.00    -0.202 A  
HETATM   20  C   UNL     1      -9.499   8.139  66.579  1.00  0.00    -0.286 A  
HETATM   21  C   UNL     1     -10.641   9.458  68.244  1.00  0.00    -0.256 A  
HETATM   22  O   UNL     1     -10.071   7.236  68.737  1.00  0.00    -0.166 OA 
HETATM   23  C   UNL     1     -10.670  10.540  67.363  1.00  0.00    -0.334 A  
HETATM   24  H   UNL     1     -10.457   7.321  69.600  1.00  0.00     0.000 HD 
ENDBRANCH  16  17
ENDBRANCH   6  16
ENDBRANCH   2   4
TORSDOF 3
ENDMDL
MODEL       42
REMARK 921   NORMALIZED FREE ENERGY PREDICTED BY IDOCK:   -5.45 KCAL/MOL
REMARK 922        TOTAL FREE ENERGY PREDICTED BY IDOCK:   -6.85 KCAL/MOL
REMARK 923 INTER-LIGAND FREE ENERGY PREDICTED BY IDOCK:   -6.41 KCAL/MOL
REMARK 924 INTRA-LIGAND FREE ENERGY PREDICTED BY IDOCK:   -0.44 KCAL/MOL
REMARK 927      BINDING AFFINITY PREDICTED BY RF-SCORE:    0.00 PKD
ROOT
HETATM    1  O   UNL     1     -11.008   5.857  66.212  1.00  0.00    -0.668 OA 
HETATM    2  C   UNL     1     -11.037   6.820  67.263  1.00  0.00    -0.324 C  
HETATM    3  H   UNL     1     -11.359   5.014  66.475  1.00  0.00     0.000 HD 
ENDROOT
BRANCH   2   4
HETATM    4  C   UNL     1     -10.468   8.187  66.836  1.00  0.00    -0.309 C  
HETATM    5  O   UNL     1     -10.522   9.146  67.904  1.00  0.00    -0.227 OA 
HETATM    6  C   UNL     1      -9.565   8.938  68.946  1.00  0.00    -0.160 C  
HETATM    7  O   UNL     1      -8.926   9.274  65.328  1.00  0.00    -0.191 OA 
HETATM    8  C   UNL     1      -8.153   9.131  68.349  1.00  0.00    -0.104 C  
HETATM    9  O   UNL     1      -8.020  10.464  67.807  1.00  0.00    -0.101 OA 
HETATM   10  C   UNL     1      -7.913   8.120  67.215  1.00  0.00    -0.113 C  
HETATM   11  H   UNL     1      -8.064   9.239  64.931  1.00  0.00     0.000 HD 
HETATM   12  H   UNL     1      -7.153  10.584  67.440  1.00  0.00     0.000 HD 
HETATM   13  O   UNL     1      -7.668   6.814  67.742  1.00  0.00    -0.107 OA 
HETATM   14  H   UNL     1      -7.520   6.189  67.042  1.00  0.00     0.000 HD 
HETATM   15  C   UNL     1      -9.070   8.129  66.190  1.00  0.00    -0.183 C  
BRANCH   6  16
HETATM   16  O   UNL     1      -9.751   9.899  70.010  1.00  0.00    -0.236 OA 
BRANCH  16  17
HETATM   17  C   UNL     1     -10.866   9.683  70.783  1.00  0.00    -0.330 A  
HETATM   18  C   UNL     1     -10.873   8.524  71.564  1.00  0.00    -0.332 A  
HETATM   19  C   UNL     1     -13.050   9.097  72.425  1.00  0.00    -0.423 A  
HETATM   20  C   UNL     1     -11.971   8.224  72.383  1.00  0.00    -0.447 A  
HETATM   21  C   UNL     1     -13.045  10.267  71.683  1.00  0.00    -0.553 A  
HETATM   22  O   UNL     1     -14.149   8.851  73.194  1.00  0.00    -1.125 OA 
HETATM   23  C   UNL     1     -11.949  10.562  70.870  1.00  0.00    -0.481 A  
HETATM   24  H   UNL     1     -14.888   9.448  73.223  1.00  0.00     0.000 HD 
ENDBRANCH  16  17
ENDBRANCH   6  16
ENDBRANCH   2   4
TORSDOF 3
ENDMDL
MODEL       43
REMARK 921   NORMALIZED FREE ENERGY PREDICTED BY IDOCK:   -5.41 KCAL/MOL
REMARK 922        TOTAL FREE ENERGY PREDICTED BY IDOCK:   -6.81 KCAL/MOL
REMARK 923 INTER-LIGAND FREE ENERGY PREDICTED BY IDOCK:   -6.50 KCAL/MOL
REMARK 924 INTRA-LIGAND FREE ENERGY PREDICTED BY IDOCK:   -0.30 KCAL/MOL
REMARK 927      BINDING AFFINITY PREDICTED BY RF-SCORE:    0.00 PKD
ROOT
HETATM    1  O   UNL     1      -7.061  10.794  70.386  1.00  0.00    -0.473 OA 
HETATM    2  C   UNL     1      -7.449  11.137  69.057  1.00  0.00    -0.124 C  
HETATM    3  H   UNL     1      -6.579  11.489  70.819  1.00  0.00     0.000 HD 
ENDROOT
BRANCH   2   4
HETATM    4  C   UNL     1      -8.233  10.012  68.355  1.00  0.00    -0.106 C  
HETATM    5  O   UNL     1      -9.581  10.407  68.053  1.00  0.00    -0.141 OA 
HETATM    6  C   UNL     1      -9.707  11.334  66.971  1.00  0.00    -0.186 C  
HETATM    7  O   UNL     1      -8.010   8.058  66.953  1.00  0.00    -0.101 OA 
HETATM    8  C   UNL     1      -9.231  10.632  65.679  1.00  0.00    -0.196 C  
HETATM    9  O   UNL     1     -10.033   9.457  65.426  1.00  0.00    -0.435 OA 
HETATM   10  C   UNL     1      -7.762  10.197  65.821  1.00  0.00    -0.136 C  
HETATM   11  H   UNL     1      -7.575   7.684  66.195  1.00  0.00     0.000 HD 
HETATM   12  H   UNL     1      -9.740   9.026  64.632  1.00  0.00     0.000 HD 
HETATM   13  O   UNL     1      -6.886  11.321  65.706  1.00  0.00    -0.368 OA 
HETATM   14  H   UNL     1      -5.979  11.052  65.794  1.00  0.00     0.000 HD 
HETATM   15  C   UNL     1      -7.528   9.404  67.126  1.00  0.00    -0.091 C  
BRANCH   6  16
HETATM   16  O   UNL     1     -11.085  11.733  66.798  1.00  0.00    -0.277 OA 
BRANCH  16  17
HETATM   17  C   UNL     1     -11.258  12.873  66.052  1.00  0.00    -0.293 A  
HETATM   18  C   UNL     1     -10.284  13.865  66.188  1.00  0.00    -0.307 A  
HETATM   19  C   UNL     1     -11.447  15.252  64.596  1.00  0.00    -0.354 A  
HETATM   20  C   UNL     1     -10.380  15.062  65.465  1.00  0.00    -0.397 A  
HETATM   21  C   UNL     1     -12.404  14.264  64.424  1.00  0.00    -0.417 A  
HETATM   22  O   UNL     1     -11.599  16.399  63.875  1.00  0.00    -1.564 OA 
HETATM   23  C   UNL     1     -12.303  13.073  65.145  1.00  0.00    -0.536 A  
HETATM   24  H   UNL     1     -12.329  16.528  63.281  1.00  0.00     0.000 HD 
ENDBRANCH  16  17
ENDBRANCH   6  16
ENDBRANCH   2   4
TORSDOF 3
ENDMDL
MODEL       44
REMARK 921   NORMALIZED FREE ENERGY PREDICTED BY IDOCK:   -5.39 KCAL/MOL
REMARK 922        TOTAL FREE ENERGY PREDICTED BY IDOCK:   -6.79 KCAL/MOL
REMARK 923 INTER-LIGAND FREE ENERGY PREDICTED BY IDOCK:   -6.38 KCAL/MOL
REMARK 924 INTRA-LIGAND FREE ENERGY PREDICTED BY IDOCK:   -0.40 KCAL/MOL
REMARK 927      BINDING AFFINITY PREDICTED BY RF-SCORE:    0.00 PKD
ROOT
HETATM    1  O   UNL     1      -7.873  13.207  69.260  1.00  0.00    -0.298 OA 
HETATM    2  C   UNL     1      -7.634  11.918  68.700  1.00  0.00    -0.119 C  
HETATM    3  H   UNL     1      -7.190  13.833  69.049  1.00  0.00     0.000 HD 
ENDROOT
BRANCH   2   4
HETATM    4  C   UNL     1      -8.743  10.904  69.040  1.00  0.00    -0.100 C  
HETATM    5  O   UNL     1     -10.038  11.368  68.625  1.00  0.00    -0.203 OA 
HETATM    6  C   UNL     1     -10.266  11.327  67.214  1.00  0.00    -0.194 C  
HETATM    7  O   UNL     1      -9.200   8.562  69.411  1.00  0.00    -0.152 OA 
HETATM    8  C   UNL     1     -10.245   9.848  66.766  1.00  0.00    -0.236 C  
HETATM    9  O   UNL     1     -11.270   9.103  67.461  1.00  0.00    -0.405 OA 
HETATM   10  C   UNL     1      -8.881   9.215  67.090  1.00  0.00    -0.119 C  
HETATM   11  H   UNL     1      -9.033   7.675  69.113  1.00  0.00     0.000 HD 
HETATM   12  H   UNL     1     -11.257   8.194  67.186  1.00  0.00     0.000 HD 
HETATM   13  O   UNL     1      -7.884   9.659  66.167  1.00  0.00    -0.100 OA 
HETATM   14  H   UNL     1      -7.041   9.268  66.366  1.00  0.00     0.000 HD 
HETATM   15  C   UNL     1      -8.471   9.465  68.558  1.00  0.00    -0.119 C  
BRANCH   6  16
HETATM   16  O   UNL     1     -11.558  11.888  66.889  1.00  0.00    -0.465 OA 
BRANCH  16  17
HETATM   17  C   UNL     1     -11.506  13.060  66.174  1.00  0.00    -0.340 A  
HETATM   18  C   UNL     1     -12.273  13.119  65.009  1.00  0.00    -0.488 A  
HETATM   19  C   UNL     1     -11.524  15.375  64.608  1.00  0.00    -0.337 A  
HETATM   20  C   UNL     1     -12.278  14.276  64.217  1.00  0.00    -0.451 A  
HETATM   21  C   UNL     1     -10.783  15.345  65.779  1.00  0.00    -0.360 A  
HETATM   22  O   UNL     1     -11.482  16.522  63.873  1.00  0.00    -1.608 OA 
HETATM   23  C   UNL     1     -10.783  14.191  66.564  1.00  0.00    -0.289 A  
HETATM   24  H   UNL     1     -10.966  17.274  64.140  1.00  0.00     0.000 HD 
ENDBRANCH  16  17
ENDBRANCH   6  16
ENDBRANCH   2   4
TORSDOF 3
ENDMDL
MODEL       45
REMARK 921   NORMALIZED FREE ENERGY PREDICTED BY IDOCK:   -5.39 KCAL/MOL
REMARK 922        TOTAL FREE ENERGY PREDICTED BY IDOCK:   -6.78 KCAL/MOL
REMARK 923 INTER-LIGAND FREE ENERGY PREDICTED BY IDOCK:   -6.69 KCAL/MOL
REMARK 924 INTRA-LIGAND FREE ENERGY PREDICTED BY IDOCK:   -0.10 KCAL/MOL
REMARK 927      BINDING AFFINITY PREDICTED BY RF-SCORE:    0.00 PKD
ROOT
HETATM    1  O   UNL     1      -7.490  14.411  67.067  1.00  0.00    -0.305 OA 
HETATM    2  C   UNL     1      -8.499  13.478  67.449  1.00  0.00    -0.200 C  
HETATM    3  H   UNL     1      -6.936  14.672  67.794  1.00  0.00     0.000 HD 
ENDROOT
BRANCH   2   4
HETATM    4  C   UNL     1      -9.397  13.054  66.271  1.00  0.00    -0.140 C  
HETATM    5  O   UNL     1     -10.345  12.047  66.656  1.00  0.00    -0.205 OA 
HETATM    6  C   UNL     1     -11.425  12.517  67.467  1.00  0.00    -0.336 C  
HETATM    7  O   UNL     1     -10.347  13.793  64.177  1.00  0.00    -0.639 OA 
HETATM    8  C   UNL     1     -12.262  13.507  66.625  1.00  0.00    -0.358 C  
HETATM    9  O   UNL     1     -12.773  12.849  65.445  1.00  0.00    -0.583 OA 
HETATM   10  C   UNL     1     -11.391  14.695  66.181  1.00  0.00    -0.350 C  
HETATM   11  H   UNL     1     -10.766  14.512  63.718  1.00  0.00     0.000 HD 
HETATM   12  H   UNL     1     -13.287  13.457  64.928  1.00  0.00     0.000 HD 
HETATM   13  O   UNL     1     -11.161  15.591  67.271  1.00  0.00    -0.319 OA 
HETATM   14  H   UNL     1     -10.623  16.325  66.996  1.00  0.00     0.000 HD 
HETATM   15  C   UNL     1     -10.075  14.221  65.525  1.00  0.00    -0.345 C  
BRANCH   6  16
HETATM   16  O   UNL     1     -12.276  11.421  67.871  1.00  0.00    -0.592 OA 
BRANCH  16  17
HETATM   17  C   UNL     1     -11.852  10.755  68.995  1.00  0.00    -0.254 A  
HETATM   18  C   UNL     1     -10.640  10.067  68.896  1.00  0.00    -0.239 A  
HETATM   19  C   UNL     1     -10.834   9.358  71.192  1.00  0.00    -0.357 A  
HETATM   20  C   UNL     1     -10.131   9.359  69.994  1.00  0.00    -0.259 A  
HETATM   21  C   UNL     1     -12.021  10.063  71.317  1.00  0.00    -0.483 A  
HETATM   22  O   UNL     1     -10.394   8.679  72.289  1.00  0.00    -0.327 OA 
HETATM   23  C   UNL     1     -12.522  10.768  70.221  1.00  0.00    -0.395 A  
HETATM   24  H   UNL     1     -10.875   8.679  73.108  1.00  0.00     0.000 HD 
ENDBRANCH  16  17
ENDBRANCH   6  16
ENDBRANCH   2   4
TORSDOF 3
ENDMDL
MODEL       46
REMARK 921   NORMALIZED FREE ENERGY PREDICTED BY IDOCK:   -5.36 KCAL/MOL
REMARK 922        TOTAL FREE ENERGY PREDICTED BY IDOCK:   -6.75 KCAL/MOL
REMARK 923 INTER-LIGAND FREE ENERGY PREDICTED BY IDOCK:   -6.32 KCAL/MOL
REMARK 924 INTRA-LIGAND FREE ENERGY PREDICTED BY IDOCK:   -0.43 KCAL/MOL
REMARK 927      BINDING AFFINITY PREDICTED BY RF-SCORE:    0.00 PKD
ROOT
HETATM    1  O   UNL     1     -12.694  10.504  69.212  1.00  0.00    -0.703 OA 
HETATM    2  C   UNL     1     -11.447  10.282  69.866  1.00  0.00    -0.273 C  
HETATM    3  H   UNL     1     -13.161  11.257  69.556  1.00  0.00     0.000 HD 
ENDROOT
BRANCH   2   4
HETATM    4  C   UNL     1     -10.689   9.063  69.306  1.00  0.00    -0.174 C  
HETATM    5  O   UNL     1     -10.698   9.040  67.870  1.00  0.00    -0.217 OA 
HETATM    6  C   UNL     1      -9.847  10.007  67.249  1.00  0.00    -0.181 C  
HETATM    7  O   UNL     1      -8.928   7.477  69.772  1.00  0.00    -0.141 OA 
HETATM    8  C   UNL     1      -8.384   9.664  67.612  1.00  0.00    -0.121 C  
HETATM    9  O   UNL     1      -8.055   8.335  67.149  1.00  0.00    -0.106 OA 
HETATM   10  C   UNL     1      -8.193   9.707  69.138  1.00  0.00    -0.120 C  
HETATM   11  H   UNL     1      -8.051   7.360  70.119  1.00  0.00     0.000 HD 
HETATM   12  H   UNL     1      -7.156   8.124  67.372  1.00  0.00     0.000 HD 
HETATM   13  O   UNL     1      -8.144  11.057  69.605  1.00  0.00    -0.369 OA 
HETATM   14  H   UNL     1      -8.025  11.084  70.548  1.00  0.00     0.000 HD 
HETATM   15  C   UNL     1      -9.267   8.873  69.870  1.00  0.00    -0.166 C  
BRANCH   6  16
HETATM   16  O   UNL     1      -9.986   9.962  65.810  1.00  0.00    -0.270 OA 
BRANCH  16  17
HETATM   17  C   UNL     1     -10.608  11.059  65.265  1.00  0.00    -0.214 A  
HETATM   18  C   UNL     1     -10.513  11.210  63.880  1.00  0.00    -0.445 A  
HETATM   19  C   UNL     1     -11.826  13.229  63.992  1.00  0.00    -0.455 A  
HETATM   20  C   UNL     1     -11.117  12.301  63.239  1.00  0.00    -0.389 A  
HETATM   21  C   UNL     1     -11.958  13.076  65.363  1.00  0.00    -0.457 A  
HETATM   22  O   UNL     1     -12.424  14.315  63.425  1.00  0.00    -1.125 OA 
HETATM   23  C   UNL     1     -11.356  11.987  65.996  1.00  0.00    -0.398 A  
HETATM   24  H   UNL     1     -12.909  14.949  63.940  1.00  0.00     0.000 HD 
ENDBRANCH  16  17
ENDBRANCH   6  16
ENDBRANCH   2   4
TORSDOF 3
ENDMDL
MODEL       47
REMARK 921   NORMALIZED FREE ENERGY PREDICTED BY IDOCK:   -5.32 KCAL/MOL
REMARK 922        TOTAL FREE ENERGY PREDICTED BY IDOCK:   -6.70 KCAL/MOL
REMARK 923 INTER-LIGAND FREE ENERGY PREDICTED BY IDOCK:   -6.09 KCAL/MOL
REMARK 924 INTRA-LIGAND FREE ENERGY PREDICTED BY IDOCK:   -0.61 KCAL/MOL
REMARK 927      BINDING AFFINITY PREDICTED BY RF-SCORE:    0.00 PKD
ROOT
HETATM    1  O   UNL     1     -10.895  14.859  64.429  1.00  0.00    -0.621 OA 
HETATM    2  C   UNL     1     -11.943  13.985  64.842  1.00  0.00    -0.404 C  
HETATM    3  H   UNL     1     -10.715  14.804  63.498  1.00  0.00     0.000 HD 
ENDROOT
BRANCH   2   4
HETATM    4  C   UNL     1     -12.236  14.076  66.352  1.00  0.00    -0.460 C  
HETATM    5  O   UNL     1     -12.406  12.777  66.943  1.00  0.00    -0.412 OA 
HETATM    6  C   UNL     1     -11.199  12.026  67.099  1.00  0.00    -0.316 C  
HETATM    7  O   UNL     1     -11.915  15.432  68.324  1.00  0.00    -0.500 OA 
HETATM    8  C   UNL     1     -10.294  12.773  68.106  1.00  0.00    -0.239 C  
HETATM    9  O   UNL     1     -10.969  12.907  69.377  1.00  0.00    -0.437 OA 
HETATM   10  C   UNL     1      -9.965  14.181  67.580  1.00  0.00    -0.233 C  
HETATM   11  H   UNL     1     -11.301  15.964  68.817  1.00  0.00     0.000 HD 
HETATM   12  H   UNL     1     -10.414  13.365  69.996  1.00  0.00     0.000 HD 
HETATM   13  O   UNL     1      -8.994  14.118  66.534  1.00  0.00    -0.415 OA 
HETATM   14  H   UNL     1      -8.791  14.988  66.210  1.00  0.00     0.000 HD 
HETATM   15  C   UNL     1     -11.241  14.940  67.151  1.00  0.00    -0.343 C  
BRANCH   6  16
HETATM   16  O   UNL     1     -11.481  10.709  67.623  1.00  0.00    -0.474 OA 
BRANCH  16  17
HETATM   17  C   UNL     1     -10.429   9.829  67.544  1.00  0.00    -0.251 A  
HETATM   18  C   UNL     1     -10.194   9.030  68.666  1.00  0.00    -0.226 A  
HETATM   19  C   UNL     1      -8.337   7.975  67.548  1.00  0.00    -0.123 A  
HETATM   20  C   UNL     1      -9.140   8.105  68.674  1.00  0.00    -0.143 A  
HETATM   21  C   UNL     1      -8.578   8.735  66.415  1.00  0.00    -0.138 A  
HETATM   22  O   UNL     1      -7.292   7.100  67.502  1.00  0.00    -0.087 OA 
HETATM   23  C   UNL     1      -9.628   9.654  66.412  1.00  0.00    -0.268 A  
HETATM   24  H   UNL     1      -6.743   7.011  66.732  1.00  0.00     0.000 HD 
ENDBRANCH  16  17
ENDBRANCH   6  16
ENDBRANCH   2   4
TORSDOF 3
ENDMDL
MODEL       48
REMARK 921   NORMALIZED FREE ENERGY PREDICTED BY IDOCK:   -5.30 KCAL/MOL
REMARK 922        TOTAL FREE ENERGY PREDICTED BY IDOCK:   -6.68 KCAL/MOL
REMARK 923 INTER-LIGAND FREE ENERGY PREDICTED BY IDOCK:   -6.24 KCAL/MOL
REMARK 924 INTRA-LIGAND FREE ENERGY PREDICTED BY IDOCK:   -0.44 KCAL/MOL
REMARK 927      BINDING AFFINITY PREDICTED BY RF-SCORE:    0.00 PKD
ROOT
HETATM    1  O   UNL     1      -5.472  17.721  67.330  1.00  0.00    -0.125 OA 
HETATM    2  C   UNL     1      -6.459  17.123  66.493  1.00  0.00    -0.233 C  
HETATM    3  H   UNL     1      -4.889  17.083  67.726  1.00  0.00     0.000 HD 
ENDROOT
BRANCH   2   4
HETATM    4  C   UNL     1      -7.403  18.157  65.850  1.00  0.00    -0.205 C  
HETATM    5  O   UNL     1      -8.749  17.665  65.752  1.00  0.00    -0.511 OA 
HETATM    6  C   UNL     1      -9.459  17.607  66.992  1.00  0.00    -0.266 C  
HETATM    7  O   UNL     1      -7.759  20.519  65.496  1.00  0.00    -0.526 OA 
HETATM    8  C   UNL     1      -9.634  19.051  67.514  1.00  0.00    -0.305 C  
HETATM    9  O   UNL     1     -10.368  19.842  66.553  1.00  0.00    -0.444 OA 
HETATM   10  C   UNL     1      -8.259  19.705  67.734  1.00  0.00    -0.302 C  
HETATM   11  H   UNL     1      -7.729  21.384  65.891  1.00  0.00     0.000 HD 
HETATM   12  H   UNL     1     -10.475  20.730  66.874  1.00  0.00     0.000 HD 
HETATM   13  O   UNL     1      -7.639  19.199  68.917  1.00  0.00    -0.339 OA 
HETATM   14  H   UNL     1      -6.790  19.603  69.053  1.00  0.00     0.000 HD 
HETATM   15  C   UNL     1      -7.354  19.559  66.490  1.00  0.00    -0.240 C  
BRANCH   6  16
HETATM   16  O   UNL     1     -10.768  17.023  66.804  1.00  0.00    -0.234 OA 
BRANCH  16  17
HETATM   17  C   UNL     1     -11.089  16.041  67.709  1.00  0.00    -0.273 A  
HETATM   18  C   UNL     1     -11.094  16.408  69.057  1.00  0.00    -0.315 A  
HETATM   19  C   UNL     1     -11.732  14.170  69.683  1.00  0.00    -0.316 A  
HETATM   20  C   UNL     1     -11.408  15.469  70.049  1.00  0.00    -0.332 A  
HETATM   21  C   UNL     1     -11.765  13.798  68.348  1.00  0.00    -0.393 A  
HETATM   22  O   UNL     1     -12.036  13.212  70.604  1.00  0.00    -0.502 OA 
HETATM   23  C   UNL     1     -11.452  14.736  67.364  1.00  0.00    -0.376 A  
HETATM   24  H   UNL     1     -12.257  12.323  70.353  1.00  0.00     0.000 HD 
ENDBRANCH  16  17
ENDBRANCH   6  16
ENDBRANCH   2   4
TORSDOF 3
ENDMDL
MODEL       49
REMARK 921   NORMALIZED FREE ENERGY PREDICTED BY IDOCK:   -5.29 KCAL/MOL
REMARK 922        TOTAL FREE ENERGY PREDICTED BY IDOCK:   -6.66 KCAL/MOL
REMARK 923 INTER-LIGAND FREE ENERGY PREDICTED BY IDOCK:   -6.28 KCAL/MOL
REMARK 924 INTRA-LIGAND FREE ENERGY PREDICTED BY IDOCK:   -0.38 KCAL/MOL
REMARK 927      BINDING AFFINITY PREDICTED BY RF-SCORE:    0.00 PKD
ROOT
HETATM    1  O   UNL     1     -13.956   8.859  73.364  1.00  0.00    -1.236 OA 
HETATM    2  C   UNL     1     -12.729   9.079  72.671  1.00  0.00    -0.208 C  
HETATM    3  H   UNL     1     -14.222   9.607  73.887  1.00  0.00     0.000 HD 
ENDROOT
BRANCH   2   4
HETATM    4  C   UNL     1     -12.297   7.867  71.823  1.00  0.00    -0.320 C  
HETATM    5  O   UNL     1     -12.007   8.239  70.467  1.00  0.00    -0.113 OA 
HETATM    6  C   UNL     1     -10.781   8.953  70.289  1.00  0.00    -0.221 C  
HETATM    7  O   UNL     1     -11.274   5.681  71.921  1.00  0.00    -0.249 OA 
HETATM    8  C   UNL     1      -9.616   8.010  70.669  1.00  0.00    -0.166 C  
HETATM    9  O   UNL     1      -9.636   6.833  69.831  1.00  0.00    -0.156 OA 
HETATM   10  C   UNL     1      -9.750   7.565  72.135  1.00  0.00    -0.164 C  
HETATM   11  H   UNL     1     -10.575   5.160  72.299  1.00  0.00     0.000 HD 
HETATM   12  H   UNL     1      -8.920   6.254  70.064  1.00  0.00     0.000 HD 
HETATM   13  O   UNL     1      -9.375   8.621  73.023  1.00  0.00    -0.213 OA 
HETATM   14  H   UNL     1      -9.458   8.346  73.928  1.00  0.00     0.000 HD 
HETATM   15  C   UNL     1     -11.164   7.021  72.438  1.00  0.00    -0.268 C  
BRANCH   6  16
HETATM   16  O   UNL     1     -10.618   9.355  68.910  1.00  0.00    -0.217 OA 
BRANCH  16  17
HETATM   17  C   UNL     1     -11.040  10.633  68.637  1.00  0.00    -0.263 A  
HETATM   18  C   UNL     1     -11.144  10.984  67.289  1.00  0.00    -0.359 A  
HETATM   19  C   UNL     1     -11.899  13.190  67.903  1.00  0.00    -0.348 A  
HETATM   20  C   UNL     1     -11.567  12.268  66.918  1.00  0.00    -0.427 A  
HETATM   21  C   UNL     1     -11.833  12.847  69.244  1.00  0.00    -0.363 A  
HETATM   22  O   UNL     1     -12.305  14.456  67.602  1.00  0.00    -0.619 OA 
HETATM   23  C   UNL     1     -11.413  11.566  69.608  1.00  0.00    -0.373 A  
HETATM   24  H   UNL     1     -12.532  15.086  68.276  1.00  0.00     0.000 HD 
ENDBRANCH  16  17
ENDBRANCH   6  16
ENDBRANCH   2   4
TORSDOF 3
ENDMDL
MODEL       50
REMARK 921   NORMALIZED FREE ENERGY PREDICTED BY IDOCK:   -5.26 KCAL/MOL
REMARK 922        TOTAL FREE ENERGY PREDICTED BY IDOCK:   -6.63 KCAL/MOL
REMARK 923 INTER-LIGAND FREE ENERGY PREDICTED BY IDOCK:   -6.00 KCAL/MOL
REMARK 924 INTRA-LIGAND FREE ENERGY PREDICTED BY IDOCK:   -0.62 KCAL/MOL
REMARK 927      BINDING AFFINITY PREDICTED BY RF-SCORE:    0.00 PKD
ROOT
HETATM    1  O   UNL     1     -11.149  11.108  70.324  1.00  0.00    -0.474 OA 
HETATM    2  C   UNL     1     -12.089  11.647  69.397  1.00  0.00    -0.263 C  
HETATM    3  H   UNL     1     -11.360  11.319  71.226  1.00  0.00     0.000 HD 
ENDROOT
BRANCH   2   4
HETATM    4  C   UNL     1     -11.748  11.303  67.934  1.00  0.00    -0.214 C  
HETATM    5  O   UNL     1     -11.943  12.426  67.061  1.00  0.00    -0.541 OA 
HETATM    6  C   UNL     1     -10.957  13.455  67.176  1.00  0.00    -0.280 C  
HETATM    7  O   UNL     1     -10.411   9.865  66.528  1.00  0.00    -0.209 OA 
HETATM    8  C   UNL     1      -9.598  12.872  66.725  1.00  0.00    -0.246 C  
HETATM    9  O   UNL     1      -9.684  12.411  65.358  1.00  0.00    -0.384 OA 
HETATM   10  C   UNL     1      -9.211  11.679  67.617  1.00  0.00    -0.178 C  
HETATM   11  H   UNL     1      -9.557   9.466  66.402  1.00  0.00     0.000 HD 
HETATM   12  H   UNL     1      -8.849  12.052  65.081  1.00  0.00     0.000 HD 
HETATM   13  O   UNL     1      -8.758  12.128  68.895  1.00  0.00    -0.368 OA 
HETATM   14  H   UNL     1      -8.518  11.392  69.446  1.00  0.00     0.000 HD 
HETATM   15  C   UNL     1     -10.363  10.656  67.730  1.00  0.00    -0.204 C  
BRANCH   6  16
HETATM   16  O   UNL     1     -11.284  14.575  66.321  1.00  0.00    -0.330 OA 
BRANCH  16  17
HETATM   17  C   UNL     1     -10.885  15.796  66.807  1.00  0.00    -0.254 A  
HETATM   18  C   UNL     1     -10.403  16.716  65.873  1.00  0.00    -0.355 A  
HETATM   19  C   UNL     1     -10.046  18.334  67.624  1.00  0.00    -0.356 A  
HETATM   20  C   UNL     1      -9.974  17.987  66.281  1.00  0.00    -0.338 A  
HETATM   21  C   UNL     1     -10.553  17.445  68.559  1.00  0.00    -0.340 A  
HETATM   22  O   UNL     1      -9.633  19.551  68.080  1.00  0.00    -0.332 OA 
HETATM   23  C   UNL     1     -10.980  16.182  68.148  1.00  0.00    -0.341 A  
HETATM   24  H   UNL     1      -9.682  19.788  68.999  1.00  0.00     0.000 HD 
ENDBRANCH  16  17
ENDBRANCH   6  16
ENDBRANCH   2   4
TORSDOF 3
ENDMDL
MODEL       51
REMARK 921   NORMALIZED FREE ENERGY PREDICTED BY IDOCK:   -5.25 KCAL/MOL
REMARK 922        TOTAL FREE ENERGY PREDICTED BY IDOCK:   -6.62 KCAL/MOL
REMARK 923 INTER-LIGAND FREE ENERGY PREDICTED BY IDOCK:   -6.25 KCAL/MOL
REMARK 924 INTRA-LIGAND FREE ENERGY PREDICTED BY IDOCK:   -0.37 KCAL/MOL
REMARK 927      BINDING AFFINITY PREDICTED BY RF-SCORE:    0.00 PKD
ROOT
HETATM    1  O   UNL     1     -12.408  13.724  63.331  1.00  0.00    -1.001 OA 
HETATM    2  C   UNL     1     -11.869  12.485  63.787  1.00  0.00    -0.496 C  
HETATM    3  H   UNL     1     -13.358  13.737  63.340  1.00  0.00     0.000 HD 
ENDROOT
BRANCH   2   4
HETATM    4  C   UNL     1     -10.329  12.464  63.774  1.00  0.00    -0.425 C  
HETATM    5  O   UNL     1      -9.774  13.311  64.793  1.00  0.00    -0.046 OA 
HETATM    6  C   UNL     1      -9.890  12.803  66.125  1.00  0.00    -0.267 C  
HETATM    7  O   UNL     1      -8.399  11.132  63.194  1.00  0.00    -0.400 OA 
HETATM    8  C   UNL     1      -9.048  11.511  66.223  1.00  0.00    -0.208 C  
HETATM    9  O   UNL     1      -7.665  11.794  65.914  1.00  0.00    -0.260 OA 
HETATM   10  C   UNL     1      -9.566  10.464  65.222  1.00  0.00    -0.259 C  
HETATM   11  H   UNL     1      -8.014  10.263  63.210  1.00  0.00     0.000 HD 
HETATM   12  H   UNL     1      -7.148  11.000  65.975  1.00  0.00     0.000 HD 
HETATM   13  O   UNL     1     -10.784   9.877  65.684  1.00  0.00     0.090 OA 
HETATM   14  H   UNL     1     -11.103   9.230  65.066  1.00  0.00     0.000 HD 
HETATM   15  C   UNL     1      -9.703  11.055  63.801  1.00  0.00    -0.309 C  
BRANCH   6  16
HETATM   16  O   UNL     1      -9.381  13.759  67.082  1.00  0.00    -0.222 OA 
BRANCH  16  17
HETATM   17  C   UNL     1     -10.311  14.209  67.987  1.00  0.00    -0.231 A  
HETATM   18  C   UNL     1     -10.487  15.592  68.072  1.00  0.00    -0.259 A  
HETATM   19  C   UNL     1     -12.174  15.292  69.767  1.00  0.00    -0.294 A  
HETATM   20  C   UNL     1     -11.415  16.139  68.969  1.00  0.00    -0.323 A  
HETATM   21  C   UNL     1     -12.036  13.917  69.672  1.00  0.00    -0.404 A  
HETATM   22  O   UNL     1     -13.084  15.767  70.665  1.00  0.00    -0.637 OA 
HETATM   23  C   UNL     1     -11.112  13.378  68.776  1.00  0.00    -0.297 A  
HETATM   24  H   UNL     1     -13.603  15.188  71.211  1.00  0.00     0.000 HD 
ENDBRANCH  16  17
ENDBRANCH   6  16
ENDBRANCH   2   4
TORSDOF 3
ENDMDL
MODEL       52
REMARK 921   NORMALIZED FREE ENERGY PREDICTED BY IDOCK:   -5.25 KCAL/MOL
REMARK 922        TOTAL FREE ENERGY PREDICTED BY IDOCK:   -6.62 KCAL/MOL
REMARK 923 INTER-LIGAND FREE ENERGY PREDICTED BY IDOCK:   -6.16 KCAL/MOL
REMARK 924 INTRA-LIGAND FREE ENERGY PREDICTED BY IDOCK:   -0.46 KCAL/MOL
REMARK 927      BINDING AFFINITY PREDICTED BY RF-SCORE:    0.00 PKD
ROOT
HETATM    1  O   UNL     1      -8.530  15.802  68.229  1.00  0.00    -0.159 OA 
HETATM    2  C   UNL     1      -8.307  14.628  67.450  1.00  0.00    -0.206 C  
HETATM    3  H   UNL     1      -7.923  15.882  68.956  1.00  0.00     0.000 HD 
ENDROOT
BRANCH   2   4
HETATM    4  C   UNL     1      -9.291  14.499  66.271  1.00  0.00    -0.247 C  
HETATM    5  O   UNL     1      -9.972  13.235  66.279  1.00  0.00    -0.279 OA 
HETATM    6  C   UNL     1     -10.976  13.099  67.288  1.00  0.00    -0.268 C  
HETATM    7  O   UNL     1     -10.678  15.751  64.741  1.00  0.00    -0.599 OA 
HETATM    8  C   UNL     1     -12.098  14.120  66.991  1.00  0.00    -0.414 C  
HETATM    9  O   UNL     1     -12.664  13.869  65.685  1.00  0.00    -0.521 OA 
HETATM   10  C   UNL     1     -11.533  15.550  67.009  1.00  0.00    -0.036 C  
HETATM   11  H   UNL     1     -11.285  16.476  64.648  1.00  0.00     0.000 HD 
HETATM   12  H   UNL     1     -13.354  14.496  65.502  1.00  0.00     0.000 HD 
HETATM   13  O   UNL     1     -11.296  15.985  68.350  1.00  0.00    -0.355 OA 
HETATM   14  H   UNL     1     -10.947  16.869  68.361  1.00  0.00     0.000 HD 
HETATM   15  C   UNL     1     -10.275  15.676  66.121  1.00  0.00    -0.311 C  
BRANCH   6  16
HETATM   16  O   UNL     1     -11.544  11.770  67.269  1.00  0.00    -0.461 OA 
BRANCH  16  17
HETATM   17  C   UNL     1     -11.471  11.103  68.468  1.00  0.00    -0.302 A  
HETATM   18  C   UNL     1     -12.278  11.581  69.502  1.00  0.00    -0.287 A  
HETATM   19  C   UNL     1     -11.454   9.854  70.968  1.00  0.00    -0.388 A  
HETATM   20  C   UNL     1     -12.265  10.961  70.760  1.00  0.00    -0.483 A  
HETATM   21  C   UNL     1     -10.672   9.346  69.942  1.00  0.00    -0.258 A  
HETATM   22  O   UNL     1     -11.393   9.217  72.172  1.00  0.00    -0.330 OA 
HETATM   23  C   UNL     1     -10.689   9.966  68.692  1.00  0.00    -0.256 A  
HETATM   24  H   UNL     1     -10.837   8.459  72.314  1.00  0.00     0.000 HD 
ENDBRANCH  16  17
ENDBRANCH   6  16
ENDBRANCH   2   4
TORSDOF 3
ENDMDL
MODEL       53
REMARK 921   NORMALIZED FREE ENERGY PREDICTED BY IDOCK:   -5.25 KCAL/MOL
REMARK 922        TOTAL FREE ENERGY PREDICTED BY IDOCK:   -6.62 KCAL/MOL
REMARK 923 INTER-LIGAND FREE ENERGY PREDICTED BY IDOCK:   -6.61 KCAL/MOL
REMARK 924 INTRA-LIGAND FREE ENERGY PREDICTED BY IDOCK:   -0.00 KCAL/MOL
REMARK 927      BINDING AFFINITY PREDICTED BY RF-SCORE:    0.00 PKD
ROOT
HETATM    1  O   UNL     1     -14.048  15.595  72.022  1.00  0.00    -0.492 OA 
HETATM    2  C   UNL     1     -13.767  14.492  71.163  1.00  0.00    -0.272 C  
HETATM    3  H   UNL     1     -14.971  15.818  72.044  1.00  0.00     0.000 HD 
ENDROOT
BRANCH   2   4
HETATM    4  C   UNL     1     -12.270  14.129  71.128  1.00  0.00    -0.358 C  
HETATM    5  O   UNL     1     -12.056  12.783  70.674  1.00  0.00    -0.353 OA 
HETATM    6  C   UNL     1     -12.262  12.582  69.273  1.00  0.00    -0.036 C  
HETATM    7  O   UNL     1     -10.046  15.042  70.900  1.00  0.00    -0.240 OA 
HETATM    8  C   UNL     1     -11.198  13.401  68.508  1.00  0.00    -0.283 C  
HETATM    9  O   UNL     1      -9.871  12.970  68.886  1.00  0.00    -0.416 OA 
HETATM   10  C   UNL     1     -11.337  14.896  68.843  1.00  0.00    -0.283 C  
HETATM   11  H   UNL     1      -9.498  15.662  70.431  1.00  0.00     0.000 HD 
HETATM   12  H   UNL     1      -9.217  13.473  68.416  1.00  0.00     0.000 HD 
HETATM   13  O   UNL     1     -12.465  15.463  68.173  1.00  0.00    -0.279 OA 
HETATM   14  H   UNL     1     -12.551  16.387  68.380  1.00  0.00     0.000 HD 
HETATM   15  C   UNL     1     -11.381  15.135  70.369  1.00  0.00    -0.290 C  
BRANCH   6  16
HETATM   16  O   UNL     1     -12.104  11.186  68.929  1.00  0.00    -0.475 OA 
BRANCH  16  17
HETATM   17  C   UNL     1     -12.004  10.342  70.008  1.00  0.00    -0.247 A  
HETATM   18  C   UNL     1     -13.160  10.158  70.770  1.00  0.00    -0.351 A  
HETATM   19  C   UNL     1     -11.978   8.648  72.230  1.00  0.00    -0.368 A  
HETATM   20  C   UNL     1     -13.148   9.314  71.890  1.00  0.00    -0.490 A  
HETATM   21  C   UNL     1     -10.832   8.793  71.466  1.00  0.00    -0.374 A  
HETATM   22  O   UNL     1     -11.904   7.823  73.314  1.00  0.00    -0.651 OA 
HETATM   23  C   UNL     1     -10.849   9.633  70.351  1.00  0.00    -0.353 A  
HETATM   24  H   UNL     1     -11.104   7.367  73.547  1.00  0.00     0.000 HD 
ENDBRANCH  16  17
ENDBRANCH   6  16
ENDBRANCH   2   4
TORSDOF 3
ENDMDL
MODEL       54
REMARK 921   NORMALIZED FREE ENERGY PREDICTED BY IDOCK:   -5.22 KCAL/MOL
REMARK 922        TOTAL FREE ENERGY PREDICTED BY IDOCK:   -6.58 KCAL/MOL
REMARK 923 INTER-LIGAND FREE ENERGY PREDICTED BY IDOCK:   -6.00 KCAL/MOL
REMARK 924 INTRA-LIGAND FREE ENERGY PREDICTED BY IDOCK:   -0.59 KCAL/MOL
REMARK 927      BINDING AFFINITY PREDICTED BY RF-SCORE:    0.00 PKD
ROOT
HETATM    1  O   UNL     1      -9.952  15.599  68.278  1.00  0.00    -0.211 OA 
HETATM    2  C   UNL     1      -9.197  14.591  67.608  1.00  0.00    -0.195 C  
HETATM    3  H   UNL     1      -9.665  15.739  69.173  1.00  0.00     0.000 HD 
ENDROOT
BRANCH   2   4
HETATM    4  C   UNL     1      -9.661  14.364  66.157  1.00  0.00    -0.312 C  
HETATM    5  O   UNL     1      -9.699  12.968  65.819  1.00  0.00    -0.240 OA 
HETATM    6  C   UNL     1     -10.778  12.237  66.406  1.00  0.00    -0.251 C  
HETATM    7  O   UNL     1     -10.974  15.300  64.358  1.00  0.00    -0.657 OA 
HETATM    8  C   UNL     1     -12.102  12.790  65.832  1.00  0.00    -0.426 C  
HETATM    9  O   UNL     1     -12.121  12.642  64.394  1.00  0.00    -0.369 OA 
HETATM   10  C   UNL     1     -12.244  14.285  66.168  1.00  0.00    -0.410 C  
HETATM   11  H   UNL     1     -11.785  15.739  64.127  1.00  0.00     0.000 HD 
HETATM   12  H   UNL     1     -12.935  12.982  64.041  1.00  0.00     0.000 HD 
HETATM   13  O   UNL     1     -12.597  14.465  67.541  1.00  0.00    -0.529 OA 
HETATM   14  H   UNL     1     -12.684  15.388  67.749  1.00  0.00     0.000 HD 
HETATM   15  C   UNL     1     -10.975  15.077  65.781  1.00  0.00    -0.350 C  
BRANCH   6  16
HETATM   16  O   UNL     1     -10.684  10.833  66.077  1.00  0.00    -0.196 OA 
BRANCH  16  17
HETATM   17  C   UNL     1     -10.613   9.997  67.165  1.00  0.00    -0.232 A  
HETATM   18  C   UNL     1     -10.921  10.557  68.407  1.00  0.00    -0.310 A  
HETATM   19  C   UNL     1     -10.532   8.434  69.480  1.00  0.00    -0.224 A  
HETATM   20  C   UNL     1     -10.874   9.777  69.571  1.00  0.00    -0.264 A  
HETATM   21  C   UNL     1     -10.256   7.855  68.251  1.00  0.00    -0.240 A  
HETATM   22  O   UNL     1     -10.459   7.629  70.579  1.00  0.00    -0.214 OA 
HETATM   23  C   UNL     1     -10.306   8.635  67.096  1.00  0.00    -0.369 A  
HETATM   24  H   UNL     1     -10.225   6.711  70.516  1.00  0.00     0.000 HD 
ENDBRANCH  16  17
ENDBRANCH   6  16
ENDBRANCH   2   4
TORSDOF 3
ENDMDL
MODEL       55
REMARK 921   NORMALIZED FREE ENERGY PREDICTED BY IDOCK:   -5.22 KCAL/MOL
REMARK 922        TOTAL FREE ENERGY PREDICTED BY IDOCK:   -6.58 KCAL/MOL
REMARK 923 INTER-LIGAND FREE ENERGY PREDICTED BY IDOCK:   -5.99 KCAL/MOL
REMARK 924 INTRA-LIGAND FREE ENERGY PREDICTED BY IDOCK:   -0.59 KCAL/MOL
REMARK 927      BINDING AFFINITY PREDICTED BY RF-SCORE:    0.00 PKD
ROOT
HETATM    1  O   UNL     1      -9.645  12.481  65.669  1.00  0.00    -0.398 OA 
HETATM    2  C   UNL     1      -8.818  13.173  66.602  1.00  0.00    -0.064 C  
HETATM    3  H   UNL     1      -9.381  12.624  64.767  1.00  0.00     0.000 HD 
ENDROOT
BRANCH   2   4
HETATM    4  C   UNL     1      -9.245  12.939  68.064  1.00  0.00    -0.212 C  
HETATM    5  O   UNL     1      -9.230  14.157  68.826  1.00  0.00    -0.172 OA 
HETATM    6  C   UNL     1     -10.298  15.063  68.532  1.00  0.00    -0.230 C  
HETATM    7  O   UNL     1     -10.550  11.515  69.513  1.00  0.00    -0.439 OA 
HETATM    8  C   UNL     1     -11.627  14.388  68.942  1.00  0.00    -0.306 C  
HETATM    9  O   UNL     1     -11.611  14.074  70.352  1.00  0.00    -0.449 OA 
HETATM   10  C   UNL     1     -11.823  13.081  68.155  1.00  0.00    -0.340 C  
HETATM   11  H   UNL     1     -11.370  11.045  69.618  1.00  0.00     0.000 HD 
HETATM   12  H   UNL     1     -12.428  13.660  70.604  1.00  0.00     0.000 HD 
HETATM   13  O   UNL     1     -12.210  13.354  66.806  1.00  0.00    -0.377 OA 
HETATM   14  H   UNL     1     -12.331  12.546  66.320  1.00  0.00     0.000 HD 
HETATM   15  C   UNL     1     -10.573  12.176  68.234  1.00  0.00    -0.217 C  
BRANCH   6  16
HETATM   16  O   UNL     1     -10.151  16.288  69.285  1.00  0.00    -0.243 OA 
BRANCH  16  17
HETATM   17  C   UNL     1      -9.788  17.378  68.533  1.00  0.00    -0.320 A  
HETATM   18  C   UNL     1     -10.803  18.002  67.804  1.00  0.00    -0.246 A  
HETATM   19  C   UNL     1      -9.227  19.618  66.959  1.00  0.00    -0.341 A  
HETATM   20  C   UNL     1     -10.523  19.122  67.007  1.00  0.00    -0.530 A  
HETATM   21  C   UNL     1      -8.215  19.031  67.702  1.00  0.00    -0.302 A  
HETATM   22  O   UNL     1      -8.893  20.697  66.194  1.00  0.00    -0.505 OA 
HETATM   23  C   UNL     1      -8.500  17.918  68.495  1.00  0.00    -0.303 A  
HETATM   24  H   UNL     1      -8.006  21.037  66.161  1.00  0.00     0.000 HD 
ENDBRANCH  16  17
ENDBRANCH   6  16
ENDBRANCH   2   4
TORSDOF 3
ENDMDL
MODEL       56
REMARK 921   NORMALIZED FREE ENERGY PREDICTED BY IDOCK:   -5.21 KCAL/MOL
REMARK 922        TOTAL FREE ENERGY PREDICTED BY IDOCK:   -6.57 KCAL/MOL
REMARK 923 INTER-LIGAND FREE ENERGY PREDICTED BY IDOCK:   -5.95 KCAL/MOL
REMARK 924 INTRA-LIGAND FREE ENERGY PREDICTED BY IDOCK:   -0.63 KCAL/MOL
REMARK 927      BINDING AFFINITY PREDICTED BY RF-SCORE:    0.00 PKD
ROOT
HETATM    1  O   UNL     1     -11.550   5.777  73.106  1.00  0.00    -0.503 OA 
HETATM    2  C   UNL     1     -12.072   6.385  71.927  1.00  0.00    -0.310 C  
HETATM    3  H   UNL     1     -12.212   5.637  73.772  1.00  0.00     0.000 HD 
ENDROOT
BRANCH   2   4
HETATM    4  C   UNL     1     -10.998   6.612  70.846  1.00  0.00    -0.268 C  
HETATM    5  O   UNL     1     -11.277   7.774  70.049  1.00  0.00    -0.224 OA 
HETATM    6  C   UNL     1     -11.050   9.023  70.708  1.00  0.00    -0.272 C  
HETATM    7  O   UNL     1      -8.680   6.227  70.287  1.00  0.00    -0.139 OA 
HETATM    8  C   UNL     1      -9.539   9.139  71.011  1.00  0.00    -0.280 C  
HETATM    9  O   UNL     1      -8.779   9.076  69.783  1.00  0.00    -0.133 OA 
HETATM   10  C   UNL     1      -9.089   7.983  71.921  1.00  0.00    -0.156 C  
HETATM   11  H   UNL     1      -7.786   6.229  70.610  1.00  0.00     0.000 HD 
HETATM   12  H   UNL     1      -7.851   9.147  69.969  1.00  0.00     0.000 HD 
HETATM   13  O   UNL     1      -9.522   8.198  73.266  1.00  0.00    -0.270 OA 
HETATM   14  H   UNL     1      -9.244   7.483  73.828  1.00  0.00     0.000 HD 
HETATM   15  C   UNL     1      -9.548   6.614  71.370  1.00  0.00    -0.168 C  
BRANCH   6  16
HETATM   16  O   UNL     1     -11.436  10.127  69.859  1.00  0.00    -0.253 OA 
BRANCH  16  17
HETATM   17  C   UNL     1     -12.026  11.175  70.522  1.00  0.00    -0.380 A  
HETATM   18  C   UNL     1     -12.880  10.849  71.578  1.00  0.00    -0.560 A  
HETATM   19  C   UNL     1     -13.298  13.188  71.986  1.00  0.00    -0.493 A  
HETATM   20  C   UNL     1     -13.525  11.856  72.309  1.00  0.00    -0.187 A  
HETATM   21  C   UNL     1     -12.428  13.529  70.963  1.00  0.00    -0.451 A  
HETATM   22  O   UNL     1     -13.906  14.209  72.655  1.00  0.00    -0.598 OA 
HETATM   23  C   UNL     1     -11.787  12.523  70.239  1.00  0.00    -0.305 A  
HETATM   24  H   UNL     1     -13.750  15.119  72.434  1.00  0.00     0.000 HD 
ENDBRANCH  16  17
ENDBRANCH   6  16
ENDBRANCH   2   4
TORSDOF 3
ENDMDL
MODEL       57
REMARK 921   NORMALIZED FREE ENERGY PREDICTED BY IDOCK:   -5.16 KCAL/MOL
REMARK 922        TOTAL FREE ENERGY PREDICTED BY IDOCK:   -6.52 KCAL/MOL
REMARK 923 INTER-LIGAND FREE ENERGY PREDICTED BY IDOCK:   -6.10 KCAL/MOL
REMARK 924 INTRA-LIGAND FREE ENERGY PREDICTED BY IDOCK:   -0.42 KCAL/MOL
REMARK 927      BINDING AFFINITY PREDICTED BY RF-SCORE:    0.00 PKD
ROOT
HETATM    1  O   UNL     1      -7.331  16.118  69.010  1.00  0.00    -0.177 OA 
HETATM    2  C   UNL     1      -7.988  15.352  68.002  1.00  0.00    -0.130 C  
HETATM    3  H   UNL     1      -7.190  15.627  69.811  1.00  0.00     0.000 HD 
ENDROOT
BRANCH   2   4
HETATM    4  C   UNL     1      -8.215  16.148  66.702  1.00  0.00    -0.286 C  
HETATM    5  O   UNL     1      -9.050  15.433  65.777  1.00  0.00    -0.265 OA 
HETATM    6  C   UNL     1     -10.434  15.383  66.131  1.00  0.00    -0.316 C  
HETATM    7  O   UNL     1      -8.303  18.372  65.764  1.00  0.00    -0.478 OA 
HETATM    8  C   UNL     1     -10.993  16.824  66.093  1.00  0.00     0.132 C  
HETATM    9  O   UNL     1     -10.835  17.383  64.770  1.00  0.00    -0.846 OA 
HETATM   10  C   UNL     1     -10.233  17.714  67.091  1.00  0.00    -0.342 C  
HETATM   11  H   UNL     1      -8.604  19.264  65.892  1.00  0.00     0.000 HD 
HETATM   12  H   UNL     1     -11.179  18.268  64.746  1.00  0.00     0.000 HD 
HETATM   13  O   UNL     1     -10.642  17.437  68.432  1.00  0.00    -0.367 OA 
HETATM   14  H   UNL     1     -10.173  17.987  69.049  1.00  0.00     0.000 HD 
HETATM   15  C   UNL     1      -8.704  17.595  66.909  1.00  0.00    -0.246 C  
BRANCH   6  16
HETATM   16  O   UNL     1     -11.175  14.576  65.188  1.00  0.00    -0.332 OA 
BRANCH  16  17
HETATM   17  C   UNL     1     -10.758  13.270  65.106  1.00  0.00    -0.322 A  
HETATM   18  C   UNL     1     -10.640  12.572  66.310  1.00  0.00    -0.273 A  
HETATM   19  C   UNL     1      -9.934  10.599  65.119  1.00  0.00    -0.303 A  
HETATM   20  C   UNL     1     -10.220  11.235  66.320  1.00  0.00    -0.280 A  
HETATM   21  C   UNL     1     -10.077  11.267  63.913  1.00  0.00    -0.392 A  
HETATM   22  O   UNL     1      -9.510   9.304  65.068  1.00  0.00    -0.432 OA 
HETATM   23  C   UNL     1     -10.498  12.598  63.908  1.00  0.00    -0.441 A  
HETATM   24  H   UNL     1      -9.315   8.869  64.246  1.00  0.00     0.000 HD 
ENDBRANCH  16  17
ENDBRANCH   6  16
ENDBRANCH   2   4
TORSDOF 3
ENDMDL
MODEL       58
REMARK 921   NORMALIZED FREE ENERGY PREDICTED BY IDOCK:   -5.06 KCAL/MOL
REMARK 922        TOTAL FREE ENERGY PREDICTED BY IDOCK:   -6.39 KCAL/MOL
REMARK 923 INTER-LIGAND FREE ENERGY PREDICTED BY IDOCK:   -6.07 KCAL/MOL
REMARK 924 INTRA-LIGAND FREE ENERGY PREDICTED BY IDOCK:   -0.32 KCAL/MOL
REMARK 927      BINDING AFFINITY PREDICTED BY RF-SCORE:    0.00 PKD
ROOT
HETATM    1  O   UNL     1      -7.403  14.254  67.972  1.00  0.00    -0.112 OA 
HETATM    2  C   UNL     1      -7.018  15.625  67.902  1.00  0.00    -0.138 C  
HETATM    3  H   UNL     1      -6.924  13.771  68.635  1.00  0.00     0.000 HD 
ENDROOT
BRANCH   2   4
HETATM    4  C   UNL     1      -7.796  16.409  66.827  1.00  0.00    -0.266 C  
HETATM    5  O   UNL     1      -9.195  16.082  66.834  1.00  0.00    -0.206 OA 
HETATM    6  C   UNL     1      -9.932  16.622  67.934  1.00  0.00    -0.254 C  
HETATM    7  O   UNL     1      -7.813  18.442  65.523  1.00  0.00    -0.446 OA 
HETATM    8  C   UNL     1      -9.915  18.163  67.814  1.00  0.00    -0.327 C  
HETATM    9  O   UNL     1     -10.512  18.571  66.562  1.00  0.00    -0.389 OA 
HETATM   10  C   UNL     1      -8.468  18.682  67.854  1.00  0.00    -0.276 C  
HETATM   11  H   UNL     1      -7.672  19.382  65.537  1.00  0.00     0.000 HD 
HETATM   12  H   UNL     1     -10.502  19.518  66.489  1.00  0.00     0.000 HD 
HETATM   13  O   UNL     1      -7.949  18.636  69.185  1.00  0.00    -0.178 OA 
HETATM   14  H   UNL     1      -7.055  18.957  69.210  1.00  0.00     0.000 HD 
HETATM   15  C   UNL     1      -7.566  17.933  66.848  1.00  0.00    -0.210 C  
BRANCH   6  16
HETATM   16  O   UNL     1     -11.305  16.172  67.898  1.00  0.00    -0.294 OA 
BRANCH  16  17
HETATM   17  C   UNL     1     -11.456  14.807  67.867  1.00  0.00    -0.342 A  
HETATM   18  C   UNL     1     -11.347  14.135  69.086  1.00  0.00    -0.318 A  
HETATM   19  C   UNL     1     -11.749  12.030  67.983  1.00  0.00    -0.331 A  
HETATM   20  C   UNL     1     -11.486  12.742  69.147  1.00  0.00    -0.361 A  
HETATM   21  C   UNL     1     -11.893  12.685  66.770  1.00  0.00    -0.440 A  
HETATM   22  O   UNL     1     -11.883  10.673  67.980  1.00  0.00    -0.755 OA 
HETATM   23  C   UNL     1     -11.755  14.072  66.716  1.00  0.00    -0.430 A  
HETATM   24  H   UNL     1     -12.063  10.186  67.184  1.00  0.00     0.000 HD 
ENDBRANCH  16  17
ENDBRANCH   6  16
ENDBRANCH   2   4
TORSDOF 3
ENDMDL
MODEL       59
REMARK 921   NORMALIZED FREE ENERGY PREDICTED BY IDOCK:   -5.06 KCAL/MOL
REMARK 922        TOTAL FREE ENERGY PREDICTED BY IDOCK:   -6.39 KCAL/MOL
REMARK 923 INTER-LIGAND FREE ENERGY PREDICTED BY IDOCK:   -6.05 KCAL/MOL
REMARK 924 INTRA-LIGAND FREE ENERGY PREDICTED BY IDOCK:   -0.35 KCAL/MOL
REMARK 927      BINDING AFFINITY PREDICTED BY RF-SCORE:    0.00 PKD
ROOT
HETATM    1  O   UNL     1     -10.633   7.650  66.680  1.00  0.00    -0.483 OA 
HETATM    2  C   UNL     1     -10.232   8.932  67.158  1.00  0.00    -0.269 C  
HETATM    3  H   UNL     1     -10.813   7.035  67.382  1.00  0.00     0.000 HD 
ENDROOT
BRANCH   2   4
HETATM    4  C   UNL     1      -9.942   9.929  66.020  1.00  0.00    -0.268 C  
HETATM    5  O   UNL     1     -10.893  11.005  65.996  1.00  0.00    -0.217 OA 
HETATM    6  C   UNL     1     -10.738  11.968  67.042  1.00  0.00    -0.242 C  
HETATM    7  O   UNL     1      -8.198  10.837  64.618  1.00  0.00    -0.345 OA 
HETATM    8  C   UNL     1      -9.377  12.676  66.846  1.00  0.00    -0.228 C  
HETATM    9  O   UNL     1      -9.336  13.327  65.557  1.00  0.00    -0.465 OA 
HETATM   10  C   UNL     1      -8.232  11.651  66.910  1.00  0.00    -0.169 C  
HETATM   11  H   UNL     1      -7.303  11.158  64.589  1.00  0.00     0.000 HD 
HETATM   12  H   UNL     1      -8.501  13.762  65.437  1.00  0.00     0.000 HD 
HETATM   13  O   UNL     1      -7.990  11.243  68.258  1.00  0.00    -0.119 OA 
HETATM   14  H   UNL     1      -7.282  10.610  68.298  1.00  0.00     0.000 HD 
HETATM   15  C   UNL     1      -8.491  10.450  65.973  1.00  0.00    -0.146 C  
BRANCH   6  16
HETATM   16  O   UNL     1     -11.787  12.961  66.983  1.00  0.00    -0.371 OA 
BRANCH  16  17
HETATM   17  C   UNL     1     -11.805  13.833  68.044  1.00  0.00    -0.373 A  
HETATM   18  C   UNL     1     -11.964  13.273  69.314  1.00  0.00    -0.354 A  
HETATM   19  C   UNL     1     -11.850  15.464  70.314  1.00  0.00    -0.338 A  
HETATM   20  C   UNL     1     -11.994  14.089  70.453  1.00  0.00    -0.398 A  
HETATM   21  C   UNL     1     -11.658  16.032  69.064  1.00  0.00    -0.350 A  
HETATM   22  O   UNL     1     -11.882  16.307  71.385  1.00  0.00    -0.582 OA 
HETATM   23  C   UNL     1     -11.626  15.215  67.933  1.00  0.00    -0.326 A  
HETATM   24  H   UNL     1     -11.783  17.247  71.289  1.00  0.00     0.000 HD 
ENDBRANCH  16  17
ENDBRANCH   6  16
ENDBRANCH   2   4
TORSDOF 3
ENDMDL
MODEL       60
REMARK 921   NORMALIZED FREE ENERGY PREDICTED BY IDOCK:   -5.03 KCAL/MOL
REMARK 922        TOTAL FREE ENERGY PREDICTED BY IDOCK:   -6.36 KCAL/MOL
REMARK 923 INTER-LIGAND FREE ENERGY PREDICTED BY IDOCK:   -5.76 KCAL/MOL
REMARK 924 INTRA-LIGAND FREE ENERGY PREDICTED BY IDOCK:   -0.60 KCAL/MOL
REMARK 927      BINDING AFFINITY PREDICTED BY RF-SCORE:    0.00 PKD
ROOT
HETATM    1  O   UNL     1      -9.049  17.368  66.920  1.00  0.00    -0.231 OA 
HETATM    2  C   UNL     1     -10.340  16.852  66.606  1.00  0.00    -0.299 C  
HETATM    3  H   UNL     1      -8.560  17.631  66.149  1.00  0.00     0.000 HD 
ENDROOT
BRANCH   2   4
HETATM    4  C   UNL     1     -11.133  16.427  67.857  1.00  0.00    -0.249 C  
HETATM    5  O   UNL     1     -11.882  15.222  67.632  1.00  0.00    -0.265 OA 
HETATM    6  C   UNL     1     -11.097  14.028  67.575  1.00  0.00    -0.298 C  
HETATM    7  O   UNL     1     -11.186  16.548  70.268  1.00  0.00    -0.464 OA 
HETATM    8  C   UNL     1     -10.456  13.808  68.964  1.00  0.00    -0.098 C  
HETATM    9  O   UNL     1     -11.484  13.684  69.972  1.00  0.00    -0.449 OA 
HETATM   10  C   UNL     1      -9.559  15.002  69.330  1.00  0.00    -0.180 C  
HETATM   11  H   UNL     1     -10.672  16.498  71.067  1.00  0.00     0.000 HD 
HETATM   12  H   UNL     1     -11.090  13.548  70.826  1.00  0.00     0.000 HD 
HETATM   13  O   UNL     1      -8.332  14.959  68.597  1.00  0.00    -0.149 OA 
HETATM   14  H   UNL     1      -7.778  15.697  68.823  1.00  0.00     0.000 HD 
HETATM   15  C   UNL     1     -10.300  16.346  69.151  1.00  0.00    -0.289 C  
BRANCH   6  16
HETATM   16  O   UNL     1     -11.926  12.886  67.264  1.00  0.00    -0.372 OA 
BRANCH  16  17
HETATM   17  C   UNL     1     -11.252  11.831  66.698  1.00  0.00    -0.323 A  
HETATM   18  C   UNL     1     -10.822  11.996  65.379  1.00  0.00    -0.336 A  
HETATM   19  C   UNL     1      -9.853   9.789  65.400  1.00  0.00    -0.295 A  
HETATM   20  C   UNL     1     -10.127  10.970  64.723  1.00  0.00    -0.367 A  
HETATM   21  C   UNL     1     -10.243   9.622  66.720  1.00  0.00    -0.308 A  
HETATM   22  O   UNL     1      -9.191   8.753  64.810  1.00  0.00    -0.428 OA 
HETATM   23  C   UNL     1     -10.934  10.647  67.369  1.00  0.00    -0.361 A  
HETATM   24  H   UNL     1      -9.003   7.945  65.273  1.00  0.00     0.000 HD 
ENDBRANCH  16  17
ENDBRANCH   6  16
ENDBRANCH   2   4
TORSDOF 3
ENDMDL
MODEL       61
REMARK 921   NORMALIZED FREE ENERGY PREDICTED BY IDOCK:   -5.01 KCAL/MOL
REMARK 922        TOTAL FREE ENERGY PREDICTED BY IDOCK:   -6.34 KCAL/MOL
REMARK 923 INTER-LIGAND FREE ENERGY PREDICTED BY IDOCK:   -6.07 KCAL/MOL
REMARK 924 INTRA-LIGAND FREE ENERGY PREDICTED BY IDOCK:   -0.28 KCAL/MOL
REMARK 927      BINDING AFFINITY PREDICTED BY RF-SCORE:    0.00 PKD
ROOT
HETATM    1  O   UNL     1      -8.175  14.760  69.823  1.00  0.00    -0.417 OA 
HETATM    2  C   UNL     1      -8.295  13.931  68.669  1.00  0.00    -0.088 C  
HETATM    3  H   UNL     1      -7.594  14.393  70.480  1.00  0.00     0.000 HD 
ENDROOT
BRANCH   2   4
HETATM    4  C   UNL     1      -9.237  14.526  67.604  1.00  0.00    -0.195 C  
HETATM    5  O   UNL     1     -10.062  13.518  66.997  1.00  0.00    -0.238 OA 
HETATM    6  C   UNL     1     -11.116  13.025  67.828  1.00  0.00    -0.262 C  
HETATM    7  O   UNL     1     -10.402  16.531  66.929  1.00  0.00    -0.295 OA 
HETATM    8  C   UNL     1     -12.097  14.187  68.101  1.00  0.00    -0.262 C  
HETATM    9  O   UNL     1     -12.633  14.689  66.857  1.00  0.00    -0.419 OA 
HETATM   10  C   UNL     1     -11.369  15.339  68.816  1.00  0.00    -0.308 C  
HETATM   11  H   UNL     1     -10.915  17.275  67.223  1.00  0.00     0.000 HD 
HETATM   12  H   UNL     1     -13.237  15.403  67.025  1.00  0.00     0.000 HD 
HETATM   13  O   UNL     1     -11.139  15.019  70.190  1.00  0.00    -0.246 OA 
HETATM   14  H   UNL     1     -10.689  15.730  70.631  1.00  0.00     0.000 HD 
HETATM   15  C   UNL     1     -10.069  15.733  68.081  1.00  0.00    -0.220 C  
BRANCH   6  16
HETATM   16  O   UNL     1     -11.835  11.961  67.163  1.00  0.00    -0.588 OA 
BRANCH  16  17
HETATM   17  C   UNL     1     -11.237  11.501  66.015  1.00  0.00    -0.178 A  
HETATM   18  C   UNL     1     -11.629  12.105  64.818  1.00  0.00    -0.380 A  
HETATM   19  C   UNL     1     -10.109  10.694  63.589  1.00  0.00    -0.245 A  
HETATM   20  C   UNL     1     -11.070  11.696  63.599  1.00  0.00    -0.506 A  
HETATM   21  C   UNL     1      -9.684  10.109  64.771  1.00  0.00    -0.389 A  
HETATM   22  O   UNL     1      -9.539  10.249  62.433  1.00  0.00    -0.519 OA 
HETATM   23  C   UNL     1     -10.242  10.519  65.982  1.00  0.00    -0.310 A  
HETATM   24  H   UNL     1      -8.881   9.564  62.426  1.00  0.00     0.000 HD 
ENDBRANCH  16  17
ENDBRANCH   6  16
ENDBRANCH   2   4
TORSDOF 3
ENDMDL
MODEL       62
REMARK 921   NORMALIZED FREE ENERGY PREDICTED BY IDOCK:   -5.00 KCAL/MOL
REMARK 922        TOTAL FREE ENERGY PREDICTED BY IDOCK:   -6.32 KCAL/MOL
REMARK 923 INTER-LIGAND FREE ENERGY PREDICTED BY IDOCK:   -5.91 KCAL/MOL
REMARK 924 INTRA-LIGAND FREE ENERGY PREDICTED BY IDOCK:   -0.41 KCAL/MOL
REMARK 927      BINDING AFFINITY PREDICTED BY RF-SCORE:    0.00 PKD
ROOT
HETATM    1  O   UNL     1      -9.086  14.701  69.015  1.00  0.00    -0.289 OA 
HETATM    2  C   UNL     1      -9.163  13.963  67.797  1.00  0.00    -0.197 C  
HETATM    3  H   UNL     1      -9.119  15.640  68.878  1.00  0.00     0.000 HD 
ENDROOT
BRANCH   2   4
HETATM    4  C   UNL     1      -9.111  12.439  68.019  1.00  0.00    -0.195 C  
HETATM    5  O   UNL     1     -10.000  12.020  69.066  1.00  0.00    -0.041 OA 
HETATM    6  C   UNL     1     -11.388  12.043  68.720  1.00  0.00    -0.278 C  
HETATM    7  O   UNL     1      -8.647  10.325  66.946  1.00  0.00    -0.126 OA 
HETATM    8  C   UNL     1     -11.622  11.003  67.600  1.00  0.00    -0.143 C  
HETATM    9  O   UNL     1     -11.242   9.686  68.057  1.00  0.00    -0.513 OA 
HETATM   10  C   UNL     1     -10.773  11.353  66.366  1.00  0.00    -0.275 C  
HETATM   11  H   UNL     1      -8.760   9.805  66.159  1.00  0.00     0.000 HD 
HETATM   12  H   UNL     1     -11.386   9.047  67.369  1.00  0.00     0.000 HD 
HETATM   13  O   UNL     1     -11.339  12.458  65.657  1.00  0.00    -0.318 OA 
HETATM   14  H   UNL     1     -10.815  12.674  64.894  1.00  0.00     0.000 HD 
HETATM   15  C   UNL     1      -9.295  11.595  66.742  1.00  0.00    -0.186 C  
BRANCH   6  16
HETATM   16  O   UNL     1     -12.205  11.686  69.858  1.00  0.00    -0.283 OA 
BRANCH  16  17
HETATM   17  C   UNL     1     -12.568  12.747  70.652  1.00  0.00    -0.168 A  
HETATM   18  C   UNL     1     -12.410  14.022  70.106  1.00  0.00    -0.409 A  
HETATM   19  C   UNL     1     -13.272  15.014  72.127  1.00  0.00    -0.368 A  
HETATM   20  C   UNL     1     -12.755  15.162  70.846  1.00  0.00    -0.464 A  
HETATM   21  C   UNL     1     -13.466  13.754  72.671  1.00  0.00    -0.638 A  
HETATM   22  O   UNL     1     -13.614  16.086  72.897  1.00  0.00    -0.550 OA 
HETATM   23  C   UNL     1     -13.122  12.623  71.929  1.00  0.00    -0.470 A  
HETATM   24  H   UNL     1     -13.968  15.985  73.773  1.00  0.00     0.000 HD 
ENDBRANCH  16  17
ENDBRANCH   6  16
ENDBRANCH   2   4
TORSDOF 3
ENDMDL
MODEL       63
REMARK 921   NORMALIZED FREE ENERGY PREDICTED BY IDOCK:   -4.99 KCAL/MOL
REMARK 922        TOTAL FREE ENERGY PREDICTED BY IDOCK:   -6.31 KCAL/MOL
REMARK 923 INTER-LIGAND FREE ENERGY PREDICTED BY IDOCK:   -6.25 KCAL/MOL
REMARK 924 INTRA-LIGAND FREE ENERGY PREDICTED BY IDOCK:   -0.06 KCAL/MOL
REMARK 927      BINDING AFFINITY PREDICTED BY RF-SCORE:    0.00 PKD
ROOT
HETATM    1  O   UNL     1     -11.901  16.144  63.582  1.00  0.00    -1.370 OA 
HETATM    2  C   UNL     1     -11.568  15.505  64.813  1.00  0.00    -0.256 C  
HETATM    3  H   UNL     1     -12.518  16.858  63.694  1.00  0.00     0.000 HD 
ENDROOT
BRANCH   2   4
HETATM    4  C   UNL     1     -10.567  14.348  64.632  1.00  0.00    -0.306 C  
HETATM    5  O   UNL     1      -9.992  13.938  65.883  1.00  0.00    -0.299 OA 
HETATM    6  C   UNL     1     -10.873  13.203  66.736  1.00  0.00    -0.276 C  
HETATM    7  O   UNL     1      -9.989  12.467  63.231  1.00  0.00    -0.558 OA 
HETATM    8  C   UNL     1     -11.220  11.869  66.036  1.00  0.00    -0.324 C  
HETATM    9  O   UNL     1     -10.015  11.110  65.787  1.00  0.00    -0.224 OA 
HETATM   10  C   UNL     1     -11.910  12.141  64.688  1.00  0.00    -0.328 C  
HETATM   11  H   UNL     1     -10.323  11.726  62.738  1.00  0.00     0.000 HD 
HETATM   12  H   UNL     1     -10.228  10.290  65.357  1.00  0.00     0.000 HD 
HETATM   13  O   UNL     1     -13.263  12.555  64.885  1.00  0.00    -0.787 OA 
HETATM   14  H   UNL     1     -13.689  12.723  64.053  1.00  0.00     0.000 HD 
HETATM   15  C   UNL     1     -11.108  13.146  63.832  1.00  0.00    -0.308 C  
BRANCH   6  16
HETATM   16  O   UNL     1     -10.234  12.908  67.999  1.00  0.00    -0.217 OA 
BRANCH  16  17
HETATM   17  C   UNL     1      -9.127  13.675  68.269  1.00  0.00    -0.193 A  
HETATM   18  C   UNL     1      -7.899  13.012  68.310  1.00  0.00    -0.143 A  
HETATM   19  C   UNL     1      -6.773  15.089  68.791  1.00  0.00    -0.099 A  
HETATM   20  C   UNL     1      -6.717  13.718  68.580  1.00  0.00    -0.094 A  
HETATM   21  C   UNL     1      -7.980  15.768  68.721  1.00  0.00    -0.180 A  
HETATM   22  O   UNL     1      -5.659  15.825  69.068  1.00  0.00    -0.103 OA 
HETATM   23  C   UNL     1      -9.152  15.061  68.450  1.00  0.00    -0.184 A  
HETATM   24  H   UNL     1      -5.697  16.763  69.213  1.00  0.00     0.000 HD 
ENDBRANCH  16  17
ENDBRANCH   6  16
ENDBRANCH   2   4
TORSDOF 3
ENDMDL
MODEL       64
REMARK 921   NORMALIZED FREE ENERGY PREDICTED BY IDOCK:   -4.98 KCAL/MOL
REMARK 922        TOTAL FREE ENERGY PREDICTED BY IDOCK:   -6.30 KCAL/MOL
REMARK 923 INTER-LIGAND FREE ENERGY PREDICTED BY IDOCK:   -6.10 KCAL/MOL
REMARK 924 INTRA-LIGAND FREE ENERGY PREDICTED BY IDOCK:   -0.20 KCAL/MOL
REMARK 927      BINDING AFFINITY PREDICTED BY RF-SCORE:    0.00 PKD
ROOT
HETATM    1  O   UNL     1     -12.069   6.718  69.599  1.00  0.00    -0.635 OA 
HETATM    2  C   UNL     1     -11.016   6.937  68.664  1.00  0.00    -0.145 C  
HETATM    3  H   UNL     1     -12.804   6.246  69.223  1.00  0.00     0.000 HD 
ENDROOT
BRANCH   2   4
HETATM    4  C   UNL     1      -9.825   7.700  69.274  1.00  0.00    -0.168 C  
HETATM    5  O   UNL     1      -9.150   8.509  68.297  1.00  0.00    -0.138 OA 
HETATM    6  C   UNL     1      -9.858   9.687  67.901  1.00  0.00    -0.154 C  
HETATM    7  O   UNL     1      -8.951   8.639  71.320  1.00  0.00    -0.171 OA 
HETATM    8  C   UNL     1      -9.972  10.616  69.131  1.00  0.00    -0.211 C  
HETATM    9  O   UNL     1      -8.656  10.962  69.618  1.00  0.00    -0.370 OA 
HETATM   10  C   UNL     1     -10.737   9.906  70.262  1.00  0.00    -0.310 C  
HETATM   11  H   UNL     1      -9.156   9.135  72.105  1.00  0.00     0.000 HD 
HETATM   12  H   UNL     1      -8.727  11.533  70.374  1.00  0.00     0.000 HD 
HETATM   13  O   UNL     1     -12.138   9.867  69.980  1.00  0.00    -0.461 OA 
HETATM   14  H   UNL     1     -12.611   9.429  70.679  1.00  0.00     0.000 HD 
HETATM   15  C   UNL     1     -10.158   8.503  70.547  1.00  0.00    -0.192 C  
BRANCH   6  16
HETATM   16  O   UNL     1      -9.140  10.388  66.860  1.00  0.00    -0.142 OA 
BRANCH  16  17
HETATM   17  C   UNL     1      -9.944  11.010  65.936  1.00  0.00    -0.240 A  
HETATM   18  C   UNL     1     -10.941  11.850  66.437  1.00  0.00    -0.337 A  
HETATM   19  C   UNL     1     -11.659  12.366  64.194  1.00  0.00    -0.386 A  
HETATM   20  C   UNL     1     -11.808  12.525  65.566  1.00  0.00    -0.491 A  
HETATM   21  C   UNL     1     -10.653  11.563  63.680  1.00  0.00    -0.491 A  
HETATM   22  O   UNL     1     -12.478  12.988  63.300  1.00  0.00    -0.699 OA 
HETATM   23  C   UNL     1      -9.792  10.894  64.551  1.00  0.00    -0.356 A  
HETATM   24  H   UNL     1     -12.376  12.879  62.361  1.00  0.00     0.000 HD 
ENDBRANCH  16  17
ENDBRANCH   6  16
ENDBRANCH   2   4
TORSDOF 3
ENDMDL
MODEL       65
REMARK 921   NORMALIZED FREE ENERGY PREDICTED BY IDOCK:   -4.91 KCAL/MOL
REMARK 922        TOTAL FREE ENERGY PREDICTED BY IDOCK:   -6.22 KCAL/MOL
REMARK 923 INTER-LIGAND FREE ENERGY PREDICTED BY IDOCK:   -5.58 KCAL/MOL
REMARK 924 INTRA-LIGAND FREE ENERGY PREDICTED BY IDOCK:   -0.64 KCAL/MOL
REMARK 927      BINDING AFFINITY PREDICTED BY RF-SCORE:    0.00 PKD
ROOT
HETATM    1  O   UNL     1     -12.160  12.483  67.306  1.00  0.00    -0.490 OA 
HETATM    2  C   UNL     1     -11.542  13.619  66.706  1.00  0.00    -0.364 C  
HETATM    3  H   UNL     1     -12.987  12.693  67.725  1.00  0.00     0.000 HD 
ENDROOT
BRANCH   2   4
HETATM    4  C   UNL     1     -10.202  13.278  66.025  1.00  0.00    -0.291 C  
HETATM    5  O   UNL     1      -9.222  14.308  66.228  1.00  0.00    -0.244 OA 
HETATM    6  C   UNL     1      -8.675  14.365  67.548  1.00  0.00    -0.197 C  
HETATM    7  O   UNL     1      -8.799  11.460  65.278  1.00  0.00    -0.377 OA 
HETATM    8  C   UNL     1      -7.891  13.057  67.801  1.00  0.00    -0.157 C  
HETATM    9  O   UNL     1      -6.834  12.915  66.826  1.00  0.00    -0.388 OA 
HETATM   10  C   UNL     1      -8.830  11.845  67.680  1.00  0.00    -0.169 C  
HETATM   11  H   UNL     1      -8.454  10.600  65.488  1.00  0.00     0.000 HD 
HETATM   12  H   UNL     1      -6.352  12.111  66.982  1.00  0.00     0.000 HD 
HETATM   13  O   UNL     1      -9.669  11.735  68.832  1.00  0.00    -0.387 OA 
HETATM   14  H   UNL     1     -10.249  10.986  68.757  1.00  0.00     0.000 HD 
HETATM   15  C   UNL     1      -9.642  11.883  66.366  1.00  0.00    -0.225 C  
BRANCH   6  16
HETATM   16  O   UNL     1      -7.764  15.480  67.676  1.00  0.00    -0.133 OA 
BRANCH  16  17
HETATM   17  C   UNL     1      -8.338  16.711  67.466  1.00  0.00    -0.175 A  
HETATM   18  C   UNL     1      -9.361  17.083  68.340  1.00  0.00    -0.266 A  
HETATM   19  C   UNL     1      -9.605  19.186  67.187  1.00  0.00    -0.319 A  
HETATM   20  C   UNL     1     -10.004  18.321  68.198  1.00  0.00    -0.377 A  
HETATM   21  C   UNL     1      -8.568  18.846  66.332  1.00  0.00    -0.301 A  
HETATM   22  O   UNL     1     -10.200  20.398  66.995  1.00  0.00    -0.416 OA 
HETATM   23  C   UNL     1      -7.931  17.613  66.479  1.00  0.00    -0.302 A  
HETATM   24  H   UNL     1      -9.927  20.990  66.304  1.00  0.00     0.000 HD 
ENDBRANCH  16  17
ENDBRANCH   6  16
ENDBRANCH   2   4
TORSDOF 3
ENDMDL
MODEL       66
REMARK 921   NORMALIZED FREE ENERGY PREDICTED BY IDOCK:   -4.91 KCAL/MOL
REMARK 922        TOTAL FREE ENERGY PREDICTED BY IDOCK:   -6.21 KCAL/MOL
REMARK 923 INTER-LIGAND FREE ENERGY PREDICTED BY IDOCK:   -5.64 KCAL/MOL
REMARK 924 INTRA-LIGAND FREE ENERGY PREDICTED BY IDOCK:   -0.57 KCAL/MOL
REMARK 927      BINDING AFFINITY PREDICTED BY RF-SCORE:    0.00 PKD
ROOT
HETATM    1  O   UNL     1     -11.680  11.945  65.328  1.00  0.00    -0.289 OA 
HETATM    2  C   UNL     1     -11.504  12.197  66.720  1.00  0.00    -0.356 C  
HETATM    3  H   UNL     1     -12.593  11.949  65.066  1.00  0.00     0.000 HD 
ENDROOT
BRANCH   2   4
HETATM    4  C   UNL     1     -10.023  12.191  67.144  1.00  0.00    -0.200 C  
HETATM    5  O   UNL     1      -9.859  11.778  68.510  1.00  0.00    -0.203 OA 
HETATM    6  C   UNL     1     -10.056  10.381  68.743  1.00  0.00    -0.187 C  
HETATM    7  O   UNL     1      -7.760  11.968  66.331  1.00  0.00    -0.381 OA 
HETATM    8  C   UNL     1      -8.950   9.607  67.990  1.00  0.00    -0.122 C  
HETATM    9  O   UNL     1      -7.647  10.015  68.464  1.00  0.00    -0.084 OA 
HETATM   10  C   UNL     1      -9.031   9.899  66.482  1.00  0.00    -0.146 C  
HETATM   11  H   UNL     1      -7.181  11.490  65.747  1.00  0.00     0.000 HD 
HETATM   12  H   UNL     1      -6.967   9.539  68.002  1.00  0.00     0.000 HD 
HETATM   13  O   UNL     1     -10.126   9.199  65.887  1.00  0.00    -0.388 OA 
HETATM   14  H   UNL     1     -10.176   9.379  64.956  1.00  0.00     0.000 HD 
HETATM   15  C   UNL     1      -9.084  11.417  66.198  1.00  0.00    -0.207 C  
BRANCH   6  16
HETATM   16  O   UNL     1      -9.953  10.078  70.153  1.00  0.00    -0.252 OA 
BRANCH  16  17
HETATM   17  C   UNL     1     -11.025   9.389  70.666  1.00  0.00    -0.290 A  
HETATM   18  C   UNL     1     -12.125  10.151  71.068  1.00  0.00    -0.476 A  
HETATM   19  C   UNL     1     -13.296   8.147  71.721  1.00  0.00    -0.345 A  
HETATM   20  C   UNL     1     -13.262   9.531  71.605  1.00  0.00    -0.486 A  
HETATM   21  C   UNL     1     -12.226   7.375  71.296  1.00  0.00    -0.374 A  
HETATM   22  O   UNL     1     -14.370   7.491  72.245  1.00  0.00    -0.588 OA 
HETATM   23  C   UNL     1     -11.097   7.997  70.761  1.00  0.00    -0.269 A  
HETATM   24  H   UNL     1     -14.393   6.544  72.325  1.00  0.00     0.000 HD 
ENDBRANCH  16  17
ENDBRANCH   6  16
ENDBRANCH   2   4
TORSDOF 3
ENDMDL
MODEL       67
REMARK 921   NORMALIZED FREE ENERGY PREDICTED BY IDOCK:   -4.87 KCAL/MOL
REMARK 922        TOTAL FREE ENERGY PREDICTED BY IDOCK:   -6.18 KCAL/MOL
REMARK 923 INTER-LIGAND FREE ENERGY PREDICTED BY IDOCK:   -5.88 KCAL/MOL
REMARK 924 INTRA-LIGAND FREE ENERGY PREDICTED BY IDOCK:   -0.29 KCAL/MOL
REMARK 927      BINDING AFFINITY PREDICTED BY RF-SCORE:    0.00 PKD
ROOT
HETATM    1  O   UNL     1      -8.902   6.998  65.206  1.00  0.00    -0.369 OA 
HETATM    2  C   UNL     1      -9.598   7.739  66.205  1.00  0.00    -0.108 C  
HETATM    3  H   UNL     1      -9.485   6.594  64.574  1.00  0.00     0.000 HD 
ENDROOT
BRANCH   2   4
HETATM    4  C   UNL     1      -8.652   8.396  67.229  1.00  0.00    -0.123 C  
HETATM    5  O   UNL     1      -8.718   9.830  67.175  1.00  0.00    -0.131 OA 
HETATM    6  C   UNL     1      -9.908  10.398  67.729  1.00  0.00    -0.168 C  
HETATM    7  O   UNL     1      -7.547   8.074  69.352  1.00  0.00    -0.097 OA 
HETATM    8  C   UNL     1      -9.930  10.086  69.242  1.00  0.00    -0.213 C  
HETATM    9  O   UNL     1      -8.763  10.646  69.883  1.00  0.00    -0.346 OA 
HETATM   10  C   UNL     1      -9.927   8.565  69.470  1.00  0.00    -0.193 C  
HETATM   11  H   UNL     1      -7.639   7.751  70.241  1.00  0.00     0.000 HD 
HETATM   12  H   UNL     1      -8.777  10.455  70.813  1.00  0.00     0.000 HD 
HETATM   13  O   UNL     1     -11.212   8.006  69.189  1.00  0.00    -0.424 OA 
HETATM   14  H   UNL     1     -11.210   7.066  69.330  1.00  0.00     0.000 HD 
HETATM   15  C   UNL     1      -8.800   7.872  68.671  1.00  0.00    -0.134 C  
BRANCH   6  16
HETATM   16  O   UNL     1      -9.918  11.833  67.554  1.00  0.00    -0.189 OA 
BRANCH  16  17
HETATM   17  C   UNL     1     -10.506  12.259  66.388  1.00  0.00    -0.236 A  
HETATM   18  C   UNL     1     -11.760  12.864  66.502  1.00  0.00    -0.453 A  
HETATM   19  C   UNL     1     -11.837  13.197  64.116  1.00  0.00    -0.429 A  
HETATM   20  C   UNL     1     -12.433  13.328  65.363  1.00  0.00    -0.543 A  
HETATM   21  C   UNL     1     -10.579  12.630  63.988  1.00  0.00    -0.457 A  
HETATM   22  O   UNL     1     -12.449  13.620  62.973  1.00  0.00    -1.020 OA 
HETATM   23  C   UNL     1      -9.912  12.170  65.125  1.00  0.00    -0.251 A  
HETATM   24  H   UNL     1     -12.041  13.530  62.119  1.00  0.00     0.000 HD 
ENDBRANCH  16  17
ENDBRANCH   6  16
ENDBRANCH   2   4
TORSDOF 3
ENDMDL
MODEL       68
REMARK 921   NORMALIZED FREE ENERGY PREDICTED BY IDOCK:   -4.87 KCAL/MOL
REMARK 922        TOTAL FREE ENERGY PREDICTED BY IDOCK:   -6.17 KCAL/MOL
REMARK 923 INTER-LIGAND FREE ENERGY PREDICTED BY IDOCK:   -5.64 KCAL/MOL
REMARK 924 INTRA-LIGAND FREE ENERGY PREDICTED BY IDOCK:   -0.53 KCAL/MOL
REMARK 927      BINDING AFFINITY PREDICTED BY RF-SCORE:    0.00 PKD
ROOT
HETATM    1  O   UNL     1     -13.850   6.684  72.205  1.00  0.00    -0.535 OA 
HETATM    2  C   UNL     1     -13.243   7.395  71.129  1.00  0.00    -0.197 C  
HETATM    3  H   UNL     1     -14.677   7.064  72.477  1.00  0.00     0.000 HD 
ENDROOT
BRANCH   2   4
HETATM    4  C   UNL     1     -11.902   6.778  70.687  1.00  0.00    -0.387 C  
HETATM    5  O   UNL     1     -11.008   7.767  70.153  1.00  0.00    -0.256 OA 
HETATM    6  C   UNL     1     -10.425   8.637  71.126  1.00  0.00    -0.227 C  
HETATM    7  O   UNL     1     -10.373   4.949  71.075  1.00  0.00    -0.208 OA 
HETATM    8  C   UNL     1      -9.523   7.788  72.052  1.00  0.00    -0.163 C  
HETATM    9  O   UNL     1      -8.490   7.137  71.280  1.00  0.00    -0.113 OA 
HETATM   10  C   UNL     1     -10.358   6.706  72.758  1.00  0.00    -0.203 C  
HETATM   11  H   UNL     1      -9.948   4.409  71.732  1.00  0.00     0.000 HD 
HETATM   12  H   UNL     1      -7.936   6.616  71.849  1.00  0.00     0.000 HD 
HETATM   13  O   UNL     1     -11.146   7.274  73.806  1.00  0.00    -0.557 OA 
HETATM   14  H   UNL     1     -11.661   6.606  74.242  1.00  0.00     0.000 HD 
HETATM   15  C   UNL     1     -11.213   5.902  71.753  1.00  0.00    -0.250 C  
BRANCH   6  16
HETATM   16  O   UNL     1      -9.609   9.646  70.488  1.00  0.00    -0.258 OA 
BRANCH  16  17
HETATM   17  C   UNL     1     -10.210  10.272  69.422  1.00  0.00    -0.235 A  
HETATM   18  C   UNL     1     -11.225  11.183  69.722  1.00  0.00    -0.318 A  
HETATM   19  C   UNL     1     -11.528  11.644  67.375  1.00  0.00    -0.285 A  
HETATM   20  C   UNL     1     -11.893  11.867  68.696  1.00  0.00    -0.365 A  
HETATM   21  C   UNL     1     -10.500  10.767  67.063  1.00  0.00    -0.297 A  
HETATM   22  O   UNL     1     -12.149  12.272  66.336  1.00  0.00    -0.623 OA 
HETATM   23  C   UNL     1      -9.837  10.090  68.087  1.00  0.00    -0.162 A  
HETATM   24  H   UNL     1     -11.899  12.118  65.432  1.00  0.00     0.000 HD 
ENDBRANCH  16  17
ENDBRANCH   6  16
ENDBRANCH   2   4
TORSDOF 3
ENDMDL
MODEL       69
REMARK 921   NORMALIZED FREE ENERGY PREDICTED BY IDOCK:   -4.87 KCAL/MOL
REMARK 922        TOTAL FREE ENERGY PREDICTED BY IDOCK:   -6.17 KCAL/MOL
REMARK 923 INTER-LIGAND FREE ENERGY PREDICTED BY IDOCK:   -5.63 KCAL/MOL
REMARK 924 INTRA-LIGAND FREE ENERGY PREDICTED BY IDOCK:   -0.53 KCAL/MOL
REMARK 927      BINDING AFFINITY PREDICTED BY RF-SCORE:    0.00 PKD
ROOT
HETATM    1  O   UNL     1     -12.099  15.779  68.251  1.00  0.00    -0.401 OA 
HETATM    2  C   UNL     1     -10.696  15.532  68.179  1.00  0.00    -0.282 C  
HETATM    3  H   UNL     1     -12.424  15.796  69.144  1.00  0.00     0.000 HD 
ENDROOT
BRANCH   2   4
HETATM    4  C   UNL     1     -10.170  15.504  66.731  1.00  0.00    -0.280 C  
HETATM    5  O   UNL     1      -9.334  14.362  66.488  1.00  0.00    -0.273 OA 
HETATM    6  C   UNL     1     -10.031  13.117  66.386  1.00  0.00    -0.282 C  
HETATM    7  O   UNL     1     -10.639  16.210  64.469  1.00  0.00    -0.758 OA 
HETATM    8  C   UNL     1     -10.943  13.177  65.140  1.00  0.00    -0.298 C  
HETATM    9  O   UNL     1     -10.150  13.404  63.953  1.00  0.00    -0.734 OA 
HETATM   10  C   UNL     1     -11.954  14.329  65.277  1.00  0.00    -0.389 C  
HETATM   11  H   UNL     1     -11.308  16.304  63.801  1.00  0.00     0.000 HD 
HETATM   12  H   UNL     1     -10.710  13.441  63.187  1.00  0.00     0.000 HD 
HETATM   13  O   UNL     1     -12.992  13.987  66.197  1.00  0.00    -0.459 OA 
HETATM   14  H   UNL     1     -13.616  14.699  66.282  1.00  0.00     0.000 HD 
HETATM   15  C   UNL     1     -11.256  15.657  65.647  1.00  0.00    -0.106 C  
BRANCH   6  16
HETATM   16  O   UNL     1      -9.102  12.022  66.225  1.00  0.00    -0.211 OA 
BRANCH  16  17
HETATM   17  C   UNL     1      -8.577  11.544  67.401  1.00  0.00    -0.145 A  
HETATM   18  C   UNL     1      -9.282  10.517  68.032  1.00  0.00    -0.143 A  
HETATM   19  C   UNL     1      -7.641  10.448  69.796  1.00  0.00    -0.133 A  
HETATM   20  C   UNL     1      -8.819   9.970  69.237  1.00  0.00    -0.184 A  
HETATM   21  C   UNL     1      -6.911  11.443  69.166  1.00  0.00    -0.111 A  
HETATM   22  O   UNL     1      -7.148   9.962  70.971  1.00  0.00    -0.339 OA 
HETATM   23  C   UNL     1      -7.375  11.983  67.965  1.00  0.00    -0.102 A  
HETATM   24  H   UNL     1      -6.341  10.289  71.353  1.00  0.00     0.000 HD 
ENDBRANCH  16  17
ENDBRANCH   6  16
ENDBRANCH   2   4
TORSDOF 3
ENDMDL
MODEL       70
REMARK 921   NORMALIZED FREE ENERGY PREDICTED BY IDOCK:   -4.87 KCAL/MOL
REMARK 922        TOTAL FREE ENERGY PREDICTED BY IDOCK:   -6.17 KCAL/MOL
REMARK 923 INTER-LIGAND FREE ENERGY PREDICTED BY IDOCK:   -6.08 KCAL/MOL
REMARK 924 INTRA-LIGAND FREE ENERGY PREDICTED BY IDOCK:   -0.09 KCAL/MOL
REMARK 927      BINDING AFFINITY PREDICTED BY RF-SCORE:    0.00 PKD
ROOT
HETATM    1  O   UNL     1      -9.285  12.506  68.574  1.00  0.00    -0.330 OA 
HETATM    2  C   UNL     1      -7.918  12.893  68.450  1.00  0.00    -0.137 C  
HETATM    3  H   UNL     1      -9.393  11.571  68.700  1.00  0.00     0.000 HD 
ENDROOT
BRANCH   2   4
HETATM    4  C   UNL     1      -7.743  14.410  68.248  1.00  0.00    -0.129 C  
HETATM    5  O   UNL     1      -8.269  14.845  66.985  1.00  0.00    -0.206 OA 
HETATM    6  C   UNL     1      -9.697  14.878  66.908  1.00  0.00    -0.240 C  
HETATM    7  O   UNL     1      -7.531  16.521  69.401  1.00  0.00    -0.223 OA 
HETATM    8  C   UNL     1     -10.208  15.942  67.906  1.00  0.00    -0.251 C  
HETATM    9  O   UNL     1      -9.660  17.238  67.576  1.00  0.00    -0.252 OA 
HETATM   10  C   UNL     1      -9.773  15.580  69.336  1.00  0.00    -0.283 C  
HETATM   11  H   UNL     1      -7.850  17.057  70.118  1.00  0.00     0.000 HD 
HETATM   12  H   UNL     1      -9.974  17.892  68.188  1.00  0.00     0.000 HD 
HETATM   13  O   UNL     1     -10.565  14.508  69.852  1.00  0.00    -0.442 OA 
HETATM   14  H   UNL     1     -10.296  14.284  70.736  1.00  0.00     0.000 HD 
HETATM   15  C   UNL     1      -8.260  15.279  69.412  1.00  0.00    -0.233 C  
BRANCH   6  16
HETATM   16  O   UNL     1     -10.130  15.247  65.579  1.00  0.00    -0.339 OA 
BRANCH  16  17
HETATM   17  C   UNL     1     -10.732  14.232  64.875  1.00  0.00    -0.432 A  
HETATM   18  C   UNL     1     -11.971  14.519  64.298  1.00  0.00    -0.419 A  
HETATM   19  C   UNL     1     -12.087  12.286  63.397  1.00  0.00    -0.516 A  
HETATM   20  C   UNL     1     -12.657  13.542  63.562  1.00  0.00    -0.063 A  
HETATM   21  C   UNL     1     -10.843  11.996  63.934  1.00  0.00    -0.457 A  
HETATM   22  O   UNL     1     -12.713  11.294  62.701  1.00  0.00    -0.801 OA 
HETATM   23  C   UNL     1     -10.164  12.972  64.664  1.00  0.00    -0.324 A  
HETATM   24  H   UNL     1     -12.323  10.435  62.588  1.00  0.00     0.000 HD 
ENDBRANCH  16  17
ENDBRANCH   6  16
ENDBRANCH   2   4
TORSDOF 3
ENDMDL
MODEL       71
REMARK 921   NORMALIZED FREE ENERGY PREDICTED BY IDOCK:   -4.84 KCAL/MOL
REMARK 922        TOTAL FREE ENERGY PREDICTED BY IDOCK:   -6.14 KCAL/MOL
REMARK 923 INTER-LIGAND FREE ENERGY PREDICTED BY IDOCK:   -6.02 KCAL/MOL
REMARK 924 INTRA-LIGAND FREE ENERGY PREDICTED BY IDOCK:   -0.12 KCAL/MOL
REMARK 927      BINDING AFFINITY PREDICTED BY RF-SCORE:    0.00 PKD
ROOT
HETATM    1  O   UNL     1     -13.123  15.126  70.512  1.00  0.00    -0.590 OA 
HETATM    2  C   UNL     1     -12.077  15.657  69.701  1.00  0.00    -0.308 C  
HETATM    3  H   UNL     1     -13.947  15.584  70.395  1.00  0.00     0.000 HD 
ENDROOT
BRANCH   2   4
HETATM    4  C   UNL     1     -10.740  14.914  69.890  1.00  0.00    -0.175 C  
HETATM    5  O   UNL     1     -10.823  13.547  69.455  1.00  0.00    -0.133 OA 
HETATM    6  C   UNL     1     -10.861  13.369  68.036  1.00  0.00    -0.247 C  
HETATM    7  O   UNL     1      -8.346  15.204  70.016  1.00  0.00    -0.341 OA 
HETATM    8  C   UNL     1      -9.515  13.860  67.454  1.00  0.00    -0.226 C  
HETATM    9  O   UNL     1      -8.422  13.106  68.024  1.00  0.00    -0.161 OA 
HETATM   10  C   UNL     1      -9.305  15.348  67.785  1.00  0.00    -0.195 C  
HETATM   11  H   UNL     1      -7.590  15.646  69.646  1.00  0.00     0.000 HD 
HETATM   12  H   UNL     1      -7.595  13.408  67.666  1.00  0.00     0.000 HD 
HETATM   13  O   UNL     1     -10.129  16.173  66.959  1.00  0.00    -0.257 OA 
HETATM   14  H   UNL     1      -9.999  17.092  67.164  1.00  0.00     0.000 HD 
HETATM   15  C   UNL     1      -9.514  15.630  69.290  1.00  0.00    -0.264 C  
BRANCH   6  16
HETATM   16  O   UNL     1     -11.026  11.973  67.700  1.00  0.00    -0.217 OA 
BRANCH  16  17
HETATM   17  C   UNL     1     -10.887  11.690  66.363  1.00  0.00    -0.287 A  
HETATM   18  C   UNL     1     -10.006  10.659  66.029  1.00  0.00    -0.295 A  
HETATM   19  C   UNL     1     -10.495  10.974  63.690  1.00  0.00    -0.322 A  
HETATM   20  C   UNL     1      -9.801  10.303  64.689  1.00  0.00    -0.396 A  
HETATM   21  C   UNL     1     -11.398  11.976  64.007  1.00  0.00    -0.478 A  
HETATM   22  O   UNL     1     -10.329  10.678  62.369  1.00  0.00    -0.716 OA 
HETATM   23  C   UNL     1     -11.599  12.326  65.343  1.00  0.00    -0.412 A  
HETATM   24  H   UNL     1     -10.804  11.138  61.686  1.00  0.00     0.000 HD 
ENDBRANCH  16  17
ENDBRANCH   6  16
ENDBRANCH   2   4
TORSDOF 3
ENDMDL
MODEL       72
REMARK 921   NORMALIZED FREE ENERGY PREDICTED BY IDOCK:   -4.84 KCAL/MOL
REMARK 922        TOTAL FREE ENERGY PREDICTED BY IDOCK:   -6.14 KCAL/MOL
REMARK 923 INTER-LIGAND FREE ENERGY PREDICTED BY IDOCK:   -5.63 KCAL/MOL
REMARK 924 INTRA-LIGAND FREE ENERGY PREDICTED BY IDOCK:   -0.50 KCAL/MOL
REMARK 927      BINDING AFFINITY PREDICTED BY RF-SCORE:    0.00 PKD
ROOT
HETATM    1  O   UNL     1     -11.915   4.980  73.364  1.00  0.00    -0.439 OA 
HETATM    2  C   UNL     1     -10.605   4.657  72.904  1.00  0.00    -0.212 C  
HETATM    3  H   UNL     1     -12.532   4.266  73.250  1.00  0.00     0.000 HD 
ENDROOT
BRANCH   2   4
HETATM    4  C   UNL     1      -9.605   5.814  73.090  1.00  0.00    -0.147 C  
HETATM    5  O   UNL     1      -8.960   6.168  71.856  1.00  0.00    -0.140 OA 
HETATM    6  C   UNL     1      -9.788   6.872  70.926  1.00  0.00    -0.185 C  
HETATM    7  O   UNL     1      -9.088   7.749  74.441  1.00  0.00    -0.434 OA 
HETATM    8  C   UNL     1     -10.160   8.236  71.551  1.00  0.00    -0.208 C  
HETATM    9  O   UNL     1      -8.965   8.997  71.832  1.00  0.00    -0.364 OA 
HETATM   10  C   UNL     1     -10.924   8.025  72.869  1.00  0.00    -0.330 C  
HETATM   11  H   UNL     1      -9.441   8.512  74.884  1.00  0.00     0.000 HD 
HETATM   12  H   UNL     1      -9.193   9.835  72.215  1.00  0.00     0.000 HD 
HETATM   13  O   UNL     1     -12.269   7.611  72.617  1.00  0.00    -0.549 OA 
HETATM   14  H   UNL     1     -12.740   7.481  73.431  1.00  0.00     0.000 HD 
HETATM   15  C   UNL     1     -10.179   7.052  73.809  1.00  0.00    -0.363 C  
BRANCH   6  16
HETATM   16  O   UNL     1      -9.079   7.109  69.689  1.00  0.00    -0.141 OA 
BRANCH  16  17
HETATM   17  C   UNL     1      -9.578   6.424  68.608  1.00  0.00    -0.120 A  
HETATM   18  C   UNL     1     -10.549   7.077  67.845  1.00  0.00    -0.276 A  
HETATM   19  C   UNL     1     -10.689   5.179  66.365  1.00  0.00    -0.210 A  
HETATM   20  C   UNL     1     -11.114   6.452  66.724  1.00  0.00    -0.241 A  
HETATM   21  C   UNL     1      -9.702   4.531  67.091  1.00  0.00    -0.227 A  
HETATM   22  O   UNL     1     -11.210   4.518  65.292  1.00  0.00    -0.920 OA 
HETATM   23  C   UNL     1      -9.143   5.158  68.205  1.00  0.00    -0.128 A  
HETATM   24  H   UNL     1     -10.919   3.647  65.047  1.00  0.00     0.000 HD 
ENDBRANCH  16  17
ENDBRANCH   6  16
ENDBRANCH   2   4
TORSDOF 3
ENDMDL
MODEL       73
REMARK 921   NORMALIZED FREE ENERGY PREDICTED BY IDOCK:   -4.78 KCAL/MOL
REMARK 922        TOTAL FREE ENERGY PREDICTED BY IDOCK:   -6.07 KCAL/MOL
REMARK 923 INTER-LIGAND FREE ENERGY PREDICTED BY IDOCK:   -6.05 KCAL/MOL
REMARK 924 INTRA-LIGAND FREE ENERGY PREDICTED BY IDOCK:   -0.02 KCAL/MOL
REMARK 927      BINDING AFFINITY PREDICTED BY RF-SCORE:    0.00 PKD
ROOT
HETATM    1  O   UNL     1      -9.945  11.228  64.881  1.00  0.00    -0.243 OA 
HETATM    2  C   UNL     1     -10.255   9.931  65.384  1.00  0.00    -0.078 C  
HETATM    3  H   UNL     1     -10.664  11.617  64.397  1.00  0.00     0.000 HD 
ENDROOT
BRANCH   2   4
HETATM    4  C   UNL     1      -9.089   9.301  66.170  1.00  0.00    -0.179 C  
HETATM    5  O   UNL     1      -8.998   9.827  67.504  1.00  0.00    -0.131 OA 
HETATM    6  C   UNL     1     -10.012   9.366  68.402  1.00  0.00    -0.170 C  
HETATM    7  O   UNL     1      -7.704   7.332  66.364  1.00  0.00    -0.089 OA 
HETATM    8  C   UNL     1      -9.828   7.843  68.593  1.00  0.00    -0.170 C  
HETATM    9  O   UNL     1      -8.517   7.564  69.133  1.00  0.00    -0.133 OA 
HETATM   10  C   UNL     1      -9.963   7.119  67.243  1.00  0.00    -0.186 C  
HETATM   11  H   UNL     1      -7.689   6.382  66.360  1.00  0.00     0.000 HD 
HETATM   12  H   UNL     1      -8.404   6.628  69.251  1.00  0.00     0.000 HD 
HETATM   13  O   UNL     1     -11.331   7.048  66.838  1.00  0.00    -0.599 OA 
HETATM   14  H   UNL     1     -11.414   6.601  66.004  1.00  0.00     0.000 HD 
HETATM   15  C   UNL     1      -9.064   7.760  66.162  1.00  0.00    -0.153 C  
BRANCH   6  16
HETATM   16  O   UNL     1      -9.886  10.011  69.689  1.00  0.00    -0.214 OA 
BRANCH  16  17
HETATM   17  C   UNL     1     -10.955   9.818  70.529  1.00  0.00    -0.321 A  
HETATM   18  C   UNL     1     -10.873   8.737  71.410  1.00  0.00    -0.359 A  
HETATM   19  C   UNL     1     -13.038   9.288  72.316  1.00  0.00    -0.441 A  
HETATM   20  C   UNL     1     -11.920   8.465  72.303  1.00  0.00    -0.455 A  
HETATM   21  C   UNL     1     -13.120  10.384  71.472  1.00  0.00    -0.532 A  
HETATM   22  O   UNL     1     -14.090   9.066  73.154  1.00  0.00    -1.130 OA 
HETATM   23  C   UNL     1     -12.075  10.652  70.587  1.00  0.00    -0.461 A  
HETATM   24  H   UNL     1     -14.855   9.630  73.164  1.00  0.00     0.000 HD 
ENDBRANCH  16  17
ENDBRANCH   6  16
ENDBRANCH   2   4
TORSDOF 3
ENDMDL
MODEL       74
REMARK 921   NORMALIZED FREE ENERGY PREDICTED BY IDOCK:   -4.78 KCAL/MOL
REMARK 922        TOTAL FREE ENERGY PREDICTED BY IDOCK:   -6.06 KCAL/MOL
REMARK 923 INTER-LIGAND FREE ENERGY PREDICTED BY IDOCK:   -5.69 KCAL/MOL
REMARK 924 INTRA-LIGAND FREE ENERGY PREDICTED BY IDOCK:   -0.37 KCAL/MOL
REMARK 927      BINDING AFFINITY PREDICTED BY RF-SCORE:    0.00 PKD
ROOT
HETATM    1  O   UNL     1     -13.835   8.920  73.165  1.00  0.00    -1.084 OA 
HETATM    2  C   UNL     1     -12.790   8.790  72.204  1.00  0.00    -0.400 C  
HETATM    3  H   UNL     1     -14.056   9.826  73.349  1.00  0.00     0.000 HD 
ENDROOT
BRANCH   2   4
HETATM    4  C   UNL     1     -12.433   7.321  71.906  1.00  0.00    -0.303 C  
HETATM    5  O   UNL     1     -12.097   7.123  70.523  1.00  0.00    -0.268 OA 
HETATM    6  C   UNL     1     -10.820   7.638  70.136  1.00  0.00    -0.248 C  
HETATM    7  O   UNL     1     -11.570   5.285  72.877  1.00  0.00    -0.358 OA 
HETATM    8  C   UNL     1      -9.732   6.846  70.896  1.00  0.00    -0.178 C  
HETATM    9  O   UNL     1      -9.823   5.440  70.575  1.00  0.00    -0.178 OA 
HETATM   10  C   UNL     1      -9.919   7.011  72.414  1.00  0.00    -0.165 C  
HETATM   11  H   UNL     1     -10.915   4.910  73.455  1.00  0.00     0.000 HD 
HETATM   12  H   UNL     1      -9.154   4.954  71.041  1.00  0.00     0.000 HD 
HETATM   13  O   UNL     1      -9.483   8.303  72.842  1.00  0.00    -0.262 OA 
HETATM   14  H   UNL     1      -9.598   8.405  73.780  1.00  0.00     0.000 HD 
HETATM   15  C   UNL     1     -11.372   6.712  72.844  1.00  0.00    -0.136 C  
BRANCH   6  16
HETATM   16  O   UNL     1     -10.609   7.465  68.716  1.00  0.00    -0.206 OA 
BRANCH  16  17
HETATM   17  C   UNL     1     -10.595   8.635  67.997  1.00  0.00    -0.145 A  
HETATM   18  C   UNL     1     -10.065   8.572  66.706  1.00  0.00    -0.369 A  
HETATM   19  C   UNL     1     -10.502  10.921  66.392  1.00  0.00    -0.250 A  
HETATM   20  C   UNL     1     -10.010   9.719  65.901  1.00  0.00    -0.345 A  
HETATM   21  C   UNL     1     -11.062  10.994  67.658  1.00  0.00    -0.363 A  
HETATM   22  O   UNL     1     -10.466  12.071  65.659  1.00  0.00    -0.240 OA 
HETATM   23  C   UNL     1     -11.115   9.849  68.454  1.00  0.00    -0.193 A  
HETATM   24  H   UNL     1     -10.803  12.894  65.994  1.00  0.00     0.000 HD 
ENDBRANCH  16  17
ENDBRANCH   6  16
ENDBRANCH   2   4
TORSDOF 3
ENDMDL
MODEL       75
REMARK 921   NORMALIZED FREE ENERGY PREDICTED BY IDOCK:   -4.76 KCAL/MOL
REMARK 922        TOTAL FREE ENERGY PREDICTED BY IDOCK:   -6.04 KCAL/MOL
REMARK 923 INTER-LIGAND FREE ENERGY PREDICTED BY IDOCK:   -5.66 KCAL/MOL
REMARK 924 INTRA-LIGAND FREE ENERGY PREDICTED BY IDOCK:   -0.38 KCAL/MOL
REMARK 927      BINDING AFFINITY PREDICTED BY RF-SCORE:    0.00 PKD
ROOT
HETATM    1  O   UNL     1      -8.291   9.482  65.324  1.00  0.00    -0.126 OA 
HETATM    2  C   UNL     1      -8.707  10.610  66.089  1.00  0.00    -0.170 C  
HETATM    3  H   UNL     1      -7.351   9.455  65.189  1.00  0.00     0.000 HD 
ENDROOT
BRANCH   2   4
HETATM    4  C   UNL     1     -10.232  10.652  66.309  1.00  0.00    -0.245 C  
HETATM    5  O   UNL     1     -10.690   9.539  67.094  1.00  0.00    -0.255 OA 
HETATM    6  C   UNL     1     -10.366   9.612  68.485  1.00  0.00    -0.205 C  
HETATM    7  O   UNL     1     -12.145  12.120  66.446  1.00  0.00    -0.630 OA 
HETATM    8  C   UNL     1     -11.114  10.822  69.090  1.00  0.00    -0.249 C  
HETATM    9  O   UNL     1     -12.539  10.664  68.916  1.00  0.00    -0.742 OA 
HETATM   10  C   UNL     1     -10.679  12.120  68.387  1.00  0.00    -0.228 C  
HETATM   11  H   UNL     1     -12.476  12.946  66.780  1.00  0.00     0.000 HD 
HETATM   12  H   UNL     1     -12.999  11.407  69.288  1.00  0.00     0.000 HD 
HETATM   13  O   UNL     1      -9.379  12.522  68.823  1.00  0.00    -0.401 OA 
HETATM   14  H   UNL     1      -9.111  13.324  68.389  1.00  0.00     0.000 HD 
HETATM   15  C   UNL     1     -10.769  11.992  66.850  1.00  0.00    -0.244 C  
BRANCH   6  16
HETATM   16  O   UNL     1     -10.794   8.415  69.173  1.00  0.00    -0.155 OA 
BRANCH  16  17
HETATM   17  C   UNL     1     -10.357   8.319  70.472  1.00  0.00    -0.202 A  
HETATM   18  C   UNL     1      -8.984   8.465  70.684  1.00  0.00    -0.168 A  
HETATM   19  C   UNL     1      -9.301   8.164  73.055  1.00  0.00    -0.265 A  
HETATM   20  C   UNL     1      -8.451   8.380  71.978  1.00  0.00    -0.245 A  
HETATM   21  C   UNL     1     -10.669   8.050  72.865  1.00  0.00    -0.403 A  
HETATM   22  O   UNL     1      -8.838   8.062  74.333  1.00  0.00    -0.422 OA 
HETATM   23  C   UNL     1     -11.195   8.137  71.575  1.00  0.00    -0.307 A  
HETATM   24  H   UNL     1      -9.420   7.914  75.070  1.00  0.00     0.000 HD 
ENDBRANCH  16  17
ENDBRANCH   6  16
ENDBRANCH   2   4
TORSDOF 3
ENDMDL
MODEL       76
REMARK 921   NORMALIZED FREE ENERGY PREDICTED BY IDOCK:   -4.74 KCAL/MOL
REMARK 922        TOTAL FREE ENERGY PREDICTED BY IDOCK:   -6.02 KCAL/MOL
REMARK 923 INTER-LIGAND FREE ENERGY PREDICTED BY IDOCK:   -5.46 KCAL/MOL
REMARK 924 INTRA-LIGAND FREE ENERGY PREDICTED BY IDOCK:   -0.56 KCAL/MOL
REMARK 927      BINDING AFFINITY PREDICTED BY RF-SCORE:    0.00 PKD
ROOT
HETATM    1  O   UNL     1      -7.322  12.193  67.948  1.00  0.00    -0.090 OA 
HETATM    2  C   UNL     1      -7.254  10.884  68.507  1.00  0.00    -0.090 C  
HETATM    3  H   UNL     1      -7.095  12.872  68.573  1.00  0.00     0.000 HD 
ENDROOT
BRANCH   2   4
HETATM    4  C   UNL     1      -7.621   9.782  67.494  1.00  0.00    -0.091 C  
HETATM    5  O   UNL     1      -8.284   8.675  68.124  1.00  0.00    -0.114 OA 
HETATM    6  C   UNL     1      -9.635   8.930  68.518  1.00  0.00    -0.157 C  
HETATM    7  O   UNL     1      -8.139   9.360  65.173  1.00  0.00    -0.117 OA 
HETATM    8  C   UNL     1     -10.470   9.181  67.241  1.00  0.00    -0.265 C  
HETATM    9  O   UNL     1     -10.411   8.027  66.373  1.00  0.00    -0.448 OA 
HETATM   10  C   UNL     1      -9.915  10.394  66.475  1.00  0.00    -0.217 C  
HETATM   11  H   UNL     1      -8.614   9.665  64.409  1.00  0.00     0.000 HD 
HETATM   12  H   UNL     1     -10.924   8.181  65.589  1.00  0.00     0.000 HD 
HETATM   13  O   UNL     1     -10.277  11.614  67.125  1.00  0.00    -0.207 OA 
HETATM   14  H   UNL     1      -9.934  12.364  66.652  1.00  0.00     0.000 HD 
HETATM   15  C   UNL     1      -8.390  10.278  66.254  1.00  0.00    -0.134 C  
BRANCH   6  16
HETATM   16  O   UNL     1     -10.189   7.790  69.213  1.00  0.00    -0.201 OA 
BRANCH  16  17
HETATM   17  C   UNL     1     -11.082   8.109  70.207  1.00  0.00    -0.221 A  
HETATM   18  C   UNL     1     -11.805   7.051  70.763  1.00  0.00    -0.401 A  
HETATM   19  C   UNL     1     -12.932   8.580  72.249  1.00  0.00    -0.341 A  
HETATM   20  C   UNL     1     -12.740   7.286  71.782  1.00  0.00    -0.370 A  
HETATM   21  C   UNL     1     -12.198   9.635  71.731  1.00  0.00    -0.464 A  
HETATM   22  O   UNL     1     -13.834   8.869  73.230  1.00  0.00    -1.163 OA 
HETATM   23  C   UNL     1     -11.268   9.396  70.718  1.00  0.00    -0.367 A  
HETATM   24  H   UNL     1     -13.965   9.754  73.549  1.00  0.00     0.000 HD 
ENDBRANCH  16  17
ENDBRANCH   6  16
ENDBRANCH   2   4
TORSDOF 3
ENDMDL
MODEL       77
REMARK 921   NORMALIZED FREE ENERGY PREDICTED BY IDOCK:   -4.71 KCAL/MOL
REMARK 922        TOTAL FREE ENERGY PREDICTED BY IDOCK:   -5.98 KCAL/MOL
REMARK 923 INTER-LIGAND FREE ENERGY PREDICTED BY IDOCK:   -5.59 KCAL/MOL
REMARK 924 INTRA-LIGAND FREE ENERGY PREDICTED BY IDOCK:   -0.39 KCAL/MOL
REMARK 927      BINDING AFFINITY PREDICTED BY RF-SCORE:    0.00 PKD
ROOT
HETATM    1  O   UNL     1      -7.087  15.498  67.499  1.00  0.00    -0.157 OA 
HETATM    2  C   UNL     1      -8.260  14.940  66.912  1.00  0.00    -0.143 C  
HETATM    3  H   UNL     1      -6.453  14.838  67.755  1.00  0.00     0.000 HD 
ENDROOT
BRANCH   2   4
HETATM    4  C   UNL     1      -9.286  16.011  66.496  1.00  0.00    -0.268 C  
HETATM    5  O   UNL     1     -10.592  15.734  67.026  1.00  0.00    -0.309 OA 
HETATM    6  C   UNL     1     -10.733  15.971  68.430  1.00  0.00    -0.289 C  
HETATM    7  O   UNL     1      -9.541  18.324  65.851  1.00  0.00    -0.510 OA 
HETATM    8  C   UNL     1     -10.546  17.484  68.683  1.00  0.00    -0.288 C  
HETATM    9  O   UNL     1     -11.535  18.238  67.947  1.00  0.00     0.236 OA 
HETATM   10  C   UNL     1      -9.149  17.931  68.219  1.00  0.00    -0.278 C  
HETATM   11  H   UNL     1      -9.274  19.220  66.024  1.00  0.00     0.000 HD 
HETATM   12  H   UNL     1     -11.421  19.168  68.103  1.00  0.00     0.000 HD 
HETATM   13  O   UNL     1      -8.146  17.506  69.144  1.00  0.00    -0.132 OA 
HETATM   14  H   UNL     1      -7.284  17.782  68.857  1.00  0.00     0.000 HD 
HETATM   15  C   UNL     1      -8.852  17.463  66.777  1.00  0.00    -0.251 C  
BRANCH   6  16
HETATM   16  O   UNL     1     -12.051  15.587  68.883  1.00  0.00    -0.311 OA 
BRANCH  16  17
HETATM   17  C   UNL     1     -12.181  15.505  70.248  1.00  0.00    -0.400 A  
HETATM   18  C   UNL     1     -13.478  15.582  70.761  1.00  0.00    -0.226 A  
HETATM   19  C   UNL     1     -12.626  15.341  73.003  1.00  0.00    -0.430 A  
HETATM   20  C   UNL     1     -13.703  15.509  72.142  1.00  0.00    -0.614 A  
HETATM   21  C   UNL     1     -11.336  15.229  72.508  1.00  0.00    -0.294 A  
HETATM   22  O   UNL     1     -12.784  15.274  74.355  1.00  0.00    -0.600 OA 
HETATM   23  C   UNL     1     -11.117  15.302  71.132  1.00  0.00    -0.328 A  
HETATM   24  H   UNL     1     -12.046  15.159  74.944  1.00  0.00     0.000 HD 
ENDBRANCH  16  17
ENDBRANCH   6  16
ENDBRANCH   2   4
TORSDOF 3
ENDMDL
MODEL       78
REMARK 921   NORMALIZED FREE ENERGY PREDICTED BY IDOCK:   -4.68 KCAL/MOL
REMARK 922        TOTAL FREE ENERGY PREDICTED BY IDOCK:   -5.95 KCAL/MOL
REMARK 923 INTER-LIGAND FREE ENERGY PREDICTED BY IDOCK:   -5.57 KCAL/MOL
REMARK 924 INTRA-LIGAND FREE ENERGY PREDICTED BY IDOCK:   -0.39 KCAL/MOL
REMARK 927      BINDING AFFINITY PREDICTED BY RF-SCORE:    0.00 PKD
ROOT
HETATM    1  O   UNL     1      -7.094  11.067  70.334  1.00  0.00    -0.465 OA 
HETATM    2  C   UNL     1      -8.128  10.280  69.747  1.00  0.00    -0.110 C  
HETATM    3  H   UNL     1      -6.799  11.769  69.765  1.00  0.00     0.000 HD 
ENDROOT
BRANCH   2   4
HETATM    4  C   UNL     1      -8.608   9.142  70.668  1.00  0.00    -0.226 C  
HETATM    5  O   UNL     1      -9.882   9.437  71.263  1.00  0.00    -0.275 OA 
HETATM    6  C   UNL     1     -10.996   9.347  70.371  1.00  0.00    -0.266 C  
HETATM    7  O   UNL     1      -8.456   6.767  71.079  1.00  0.00    -0.129 OA 
HETATM    8  C   UNL     1     -11.133   7.875  69.919  1.00  0.00    -0.120 C  
HETATM    9  O   UNL     1     -11.339   7.020  71.065  1.00  0.00    -0.261 OA 
HETATM   10  C   UNL     1      -9.853   7.421  69.197  1.00  0.00    -0.168 C  
HETATM   11  H   UNL     1      -8.444   5.903  70.683  1.00  0.00     0.000 HD 
HETATM   12  H   UNL     1     -11.423   6.116  70.788  1.00  0.00     0.000 HD 
HETATM   13  O   UNL     1      -9.790   7.971  67.880  1.00  0.00    -0.155 OA 
HETATM   14  H   UNL     1      -8.999   7.690  67.434  1.00  0.00     0.000 HD 
HETATM   15  C   UNL     1      -8.588   7.741  70.026  1.00  0.00    -0.140 C  
BRANCH   6  16
HETATM   16  O   UNL     1     -12.217   9.740  71.038  1.00  0.00    -0.312 OA 
BRANCH  16  17
HETATM   17  C   UNL     1     -12.439  11.095  71.066  1.00  0.00    -0.403 A  
HETATM   18  C   UNL     1     -11.943  11.834  69.989  1.00  0.00    -0.421 A  
HETATM   19  C   UNL     1     -12.815  13.863  70.957  1.00  0.00    -0.324 A  
HETATM   20  C   UNL     1     -12.123  13.224  69.936  1.00  0.00    -0.377 A  
HETATM   21  C   UNL     1     -13.343  13.140  72.015  1.00  0.00    -0.587 A  
HETATM   22  O   UNL     1     -13.011  15.212  70.964  1.00  0.00    -0.366 OA 
HETATM   23  C   UNL     1     -13.162  11.757  72.063  1.00  0.00    -0.460 A  
HETATM   24  H   UNL     1     -13.484  15.649  71.662  1.00  0.00     0.000 HD 
ENDBRANCH  16  17
ENDBRANCH   6  16
ENDBRANCH   2   4
TORSDOF 3
ENDMDL
MODEL       79
REMARK 921   NORMALIZED FREE ENERGY PREDICTED BY IDOCK:   -4.68 KCAL/MOL
REMARK 922        TOTAL FREE ENERGY PREDICTED BY IDOCK:   -5.95 KCAL/MOL
REMARK 923 INTER-LIGAND FREE ENERGY PREDICTED BY IDOCK:   -5.60 KCAL/MOL
REMARK 924 INTRA-LIGAND FREE ENERGY PREDICTED BY IDOCK:   -0.34 KCAL/MOL
REMARK 927      BINDING AFFINITY PREDICTED BY RF-SCORE:    0.00 PKD
ROOT
HETATM    1  O   UNL     1      -9.402   3.978  69.128  1.00  0.00    -0.139 OA 
HETATM    2  C   UNL     1     -10.155   5.125  69.514  1.00  0.00    -0.246 C  
HETATM    3  H   UNL     1      -9.003   3.534  69.868  1.00  0.00     0.000 HD 
ENDROOT
BRANCH   2   4
HETATM    4  C   UNL     1     -10.803   5.844  68.314  1.00  0.00    -0.240 C  
HETATM    5  O   UNL     1     -10.769   7.272  68.464  1.00  0.00    -0.194 OA 
HETATM    6  C   UNL     1      -9.481   7.865  68.278  1.00  0.00    -0.144 C  
HETATM    7  O   UNL     1     -11.304   5.648  65.960  1.00  0.00    -0.712 OA 
HETATM    8  C   UNL     1      -9.055   7.639  66.809  1.00  0.00    -0.151 C  
HETATM    9  O   UNL     1     -10.017   8.241  65.914  1.00  0.00    -0.449 OA 
HETATM   10  C   UNL     1      -8.983   6.133  66.504  1.00  0.00    -0.139 C  
HETATM   11  H   UNL     1     -10.977   5.376  65.110  1.00  0.00     0.000 HD 
HETATM   12  H   UNL     1      -9.755   8.102  65.012  1.00  0.00     0.000 HD 
HETATM   13  O   UNL     1      -7.812   5.552  67.083  1.00  0.00    -0.099 OA 
HETATM   14  H   UNL     1      -7.768   4.622  66.894  1.00  0.00     0.000 HD 
HETATM   15  C   UNL     1     -10.274   5.402  66.936  1.00  0.00    -0.240 C  
BRANCH   6  16
HETATM   16  O   UNL     1      -9.531   9.287  68.530  1.00  0.00    -0.145 OA 
BRANCH  16  17
HETATM   17  C   UNL     1     -10.458   9.666  69.470  1.00  0.00    -0.224 A  
HETATM   18  C   UNL     1     -11.411  10.605  69.070  1.00  0.00    -0.342 A  
HETATM   19  C   UNL     1     -12.425  10.535  71.256  1.00  0.00    -0.419 A  
HETATM   20  C   UNL     1     -12.394  11.048  69.966  1.00  0.00    -0.377 A  
HETATM   21  C   UNL     1     -11.507   9.578  71.659  1.00  0.00    -0.433 A  
HETATM   22  O   UNL     1     -13.350  10.937  72.173  1.00  0.00    -0.586 OA 
HETATM   23  C   UNL     1     -10.531   9.139  70.763  1.00  0.00    -0.322 A  
HETATM   24  H   UNL     1     -13.371  10.586  73.055  1.00  0.00     0.000 HD 
ENDBRANCH  16  17
ENDBRANCH   6  16
ENDBRANCH   2   4
TORSDOF 3
ENDMDL
MODEL       80
REMARK 921   NORMALIZED FREE ENERGY PREDICTED BY IDOCK:   -4.64 KCAL/MOL
REMARK 922        TOTAL FREE ENERGY PREDICTED BY IDOCK:   -5.90 KCAL/MOL
REMARK 923 INTER-LIGAND FREE ENERGY PREDICTED BY IDOCK:   -5.73 KCAL/MOL
REMARK 924 INTRA-LIGAND FREE ENERGY PREDICTED BY IDOCK:   -0.17 KCAL/MOL
REMARK 927      BINDING AFFINITY PREDICTED BY RF-SCORE:    0.00 PKD
ROOT
HETATM    1  O   UNL     1      -7.692   6.547  73.570  1.00  0.00    -0.092 OA 
HETATM    2  C   UNL     1      -8.686   7.153  72.748  1.00  0.00    -0.118 C  
HETATM    3  H   UNL     1      -6.808   6.778  73.310  1.00  0.00     0.000 HD 
ENDROOT
BRANCH   2   4
HETATM    4  C   UNL     1     -10.120   6.779  73.172  1.00  0.00    -0.205 C  
HETATM    5  O   UNL     1     -10.996   7.917  73.158  1.00  0.00    -0.383 OA 
HETATM    6  C   UNL     1     -11.370   8.371  71.854  1.00  0.00    -0.314 C  
HETATM    7  O   UNL     1     -11.723   4.975  73.251  1.00  0.00    -0.491 OA 
HETATM    8  C   UNL     1     -12.202   7.258  71.178  1.00  0.00    -0.340 C  
HETATM    9  O   UNL     1     -13.380   6.970  71.964  1.00  0.00    -0.529 OA 
HETATM   10  C   UNL     1     -11.369   5.970  71.060  1.00  0.00    -0.229 C  
HETATM   11  H   UNL     1     -12.097   4.238  72.781  1.00  0.00     0.000 HD 
HETATM   12  H   UNL     1     -13.891   6.286  71.549  1.00  0.00     0.000 HD 
HETATM   13  O   UNL     1     -10.404   6.084  70.012  1.00  0.00    -0.195 OA 
HETATM   14  H   UNL     1      -9.889   5.289  69.939  1.00  0.00     0.000 HD 
HETATM   15  C   UNL     1     -10.725   5.584  72.410  1.00  0.00    -0.235 C  
BRANCH   6  16
HETATM   16  O   UNL     1     -12.181   9.565  71.941  1.00  0.00    -0.374 OA 
BRANCH  16  17
HETATM   17  C   UNL     1     -11.917  10.504  70.974  1.00  0.00    -0.364 A  
HETATM   18  C   UNL     1     -11.112  10.097  69.908  1.00  0.00    -0.346 A  
HETATM   19  C   UNL     1     -11.293  12.285  68.913  1.00  0.00    -0.287 A  
HETATM   20  C   UNL     1     -10.790  10.991  68.877  1.00  0.00    -0.262 A  
HETATM   21  C   UNL     1     -12.121  12.695  69.946  1.00  0.00    -0.322 A  
HETATM   22  O   UNL     1     -11.005  13.200  67.944  1.00  0.00    -0.236 OA 
HETATM   23  C   UNL     1     -12.439  11.801  70.970  1.00  0.00    -0.411 A  
HETATM   24  H   UNL     1     -11.349  14.086  67.969  1.00  0.00     0.000 HD 
ENDBRANCH  16  17
ENDBRANCH   6  16
ENDBRANCH   2   4
TORSDOF 3
ENDMDL
MODEL       81
REMARK 921   NORMALIZED FREE ENERGY PREDICTED BY IDOCK:   -4.63 KCAL/MOL
REMARK 922        TOTAL FREE ENERGY PREDICTED BY IDOCK:   -5.89 KCAL/MOL
REMARK 923 INTER-LIGAND FREE ENERGY PREDICTED BY IDOCK:   -5.76 KCAL/MOL
REMARK 924 INTRA-LIGAND FREE ENERGY PREDICTED BY IDOCK:   -0.13 KCAL/MOL
REMARK 927      BINDING AFFINITY PREDICTED BY RF-SCORE:    0.00 PKD
ROOT
HETATM    1  O   UNL     1     -11.343   5.501  66.120  1.00  0.00    -0.751 OA 
HETATM    2  C   UNL     1     -10.921   6.412  67.133  1.00  0.00    -0.399 C  
HETATM    3  H   UNL     1     -12.267   5.287  66.180  1.00  0.00     0.000 HD 
ENDROOT
BRANCH   2   4
HETATM    4  C   UNL     1      -9.424   6.760  67.036  1.00  0.00    -0.146 C  
HETATM    5  O   UNL     1      -9.162   7.705  65.986  1.00  0.00    -0.150 OA 
HETATM    6  C   UNL     1      -9.579   9.044  66.265  1.00  0.00    -0.260 C  
HETATM    7  O   UNL     1      -7.366   6.900  68.293  1.00  0.00    -0.091 OA 
HETATM    8  C   UNL     1      -8.742   9.572  67.452  1.00  0.00    -0.125 C  
HETATM    9  O   UNL     1      -7.336   9.545  67.119  1.00  0.00    -0.087 OA 
HETATM   10  C   UNL     1      -8.965   8.690  68.692  1.00  0.00    -0.142 C  
HETATM   11  H   UNL     1      -6.966   7.166  69.113  1.00  0.00     0.000 HD 
HETATM   12  H   UNL     1      -6.821   9.870  67.848  1.00  0.00     0.000 HD 
HETATM   13  O   UNL     1     -10.237   8.958  69.284  1.00  0.00    -0.198 OA 
HETATM   14  H   UNL     1     -10.375   8.414  70.050  1.00  0.00     0.000 HD 
HETATM   15  C   UNL     1      -8.775   7.192  68.366  1.00  0.00    -0.125 C  
BRANCH   6  16
HETATM   16  O   UNL     1      -9.350   9.899  65.122  1.00  0.00    -0.218 OA 
BRANCH  16  17
HETATM   17  C   UNL     1     -10.209  10.968  65.030  1.00  0.00    -0.299 A  
HETATM   18  C   UNL     1     -10.290  11.602  63.788  1.00  0.00    -0.445 A  
HETATM   19  C   UNL     1     -11.917  13.149  64.665  1.00  0.00    -0.388 A  
HETATM   20  C   UNL     1     -11.140  12.702  63.604  1.00  0.00    -0.496 A  
HETATM   21  C   UNL     1     -11.874  12.510  65.894  1.00  0.00    -0.489 A  
HETATM   22  O   UNL     1     -12.754  14.220  64.548  1.00  0.00    -0.662 OA 
HETATM   23  C   UNL     1     -11.027  11.415  66.071  1.00  0.00    -0.286 A  
HETATM   24  H   UNL     1     -13.286  14.526  65.273  1.00  0.00     0.000 HD 
ENDBRANCH  16  17
ENDBRANCH   6  16
ENDBRANCH   2   4
TORSDOF 3
ENDMDL
MODEL       82
REMARK 921   NORMALIZED FREE ENERGY PREDICTED BY IDOCK:   -4.63 KCAL/MOL
REMARK 922        TOTAL FREE ENERGY PREDICTED BY IDOCK:   -5.89 KCAL/MOL
REMARK 923 INTER-LIGAND FREE ENERGY PREDICTED BY IDOCK:   -5.55 KCAL/MOL
REMARK 924 INTRA-LIGAND FREE ENERGY PREDICTED BY IDOCK:   -0.34 KCAL/MOL
REMARK 927      BINDING AFFINITY PREDICTED BY RF-SCORE:    0.00 PKD
ROOT
HETATM    1  O   UNL     1      -7.460  10.596  70.294  1.00  0.00    -0.447 OA 
HETATM    2  C   UNL     1      -7.942  10.818  68.970  1.00  0.00    -0.137 C  
HETATM    3  H   UNL     1      -7.212  11.401  70.735  1.00  0.00     0.000 HD 
ENDROOT
BRANCH   2   4
HETATM    4  C   UNL     1      -8.345   9.513  68.256  1.00  0.00    -0.118 C  
HETATM    5  O   UNL     1      -9.657   9.604  67.678  1.00  0.00    -0.139 OA 
HETATM    6  C   UNL     1      -9.741  10.415  66.503  1.00  0.00    -0.194 C  
HETATM    7  O   UNL     1      -7.486   7.562  67.122  1.00  0.00    -0.094 OA 
HETATM    8  C   UNL     1      -8.897   9.746  65.395  1.00  0.00    -0.169 C  
HETATM    9  O   UNL     1      -9.396   8.418  65.123  1.00  0.00    -0.396 OA 
HETATM   10  C   UNL     1      -7.429   9.631  65.843  1.00  0.00    -0.099 C  
HETATM   11  H   UNL     1      -6.848   7.238  66.497  1.00  0.00     0.000 HD 
HETATM   12  H   UNL     1      -8.878   8.006  64.442  1.00  0.00     0.000 HD 
HETATM   13  O   UNL     1      -6.776  10.900  65.774  1.00  0.00    -0.291 OA 
HETATM   14  H   UNL     1      -5.870  10.829  66.051  1.00  0.00     0.000 HD 
HETATM   15  C   UNL     1      -7.311   8.987  67.242  1.00  0.00    -0.084 C  
BRANCH   6  16
HETATM   16  O   UNL     1     -11.109  10.512  66.045  1.00  0.00     0.083 OA 
BRANCH  16  17
HETATM   17  C   UNL     1     -11.447  11.735  65.520  1.00  0.00    -0.179 A  
HETATM   18  C   UNL     1     -11.609  11.799  64.134  1.00  0.00    -0.394 A  
HETATM   19  C   UNL     1     -12.149  14.143  64.287  1.00  0.00    -0.444 A  
HETATM   20  C   UNL     1     -11.953  13.008  63.512  1.00  0.00    -0.615 A  
HETATM   21  C   UNL     1     -12.025  14.089  65.666  1.00  0.00    -0.408 A  
HETATM   22  O   UNL     1     -12.474  15.348  63.737  1.00  0.00    -0.969 OA 
HETATM   23  C   UNL     1     -11.684  12.884  66.281  1.00  0.00    -0.457 A  
HETATM   24  H   UNL     1     -12.608  16.125  64.267  1.00  0.00     0.000 HD 
ENDBRANCH  16  17
ENDBRANCH   6  16
ENDBRANCH   2   4
TORSDOF 3
ENDMDL
MODEL       83
REMARK 921   NORMALIZED FREE ENERGY PREDICTED BY IDOCK:   -4.63 KCAL/MOL
REMARK 922        TOTAL FREE ENERGY PREDICTED BY IDOCK:   -5.89 KCAL/MOL
REMARK 923 INTER-LIGAND FREE ENERGY PREDICTED BY IDOCK:   -5.36 KCAL/MOL
REMARK 924 INTRA-LIGAND FREE ENERGY PREDICTED BY IDOCK:   -0.52 KCAL/MOL
REMARK 927      BINDING AFFINITY PREDICTED BY RF-SCORE:    0.00 PKD
ROOT
HETATM    1  O   UNL     1      -8.886   7.641  74.039  1.00  0.00    -0.231 OA 
HETATM    2  C   UNL     1      -8.947   8.356  72.807  1.00  0.00    -0.221 C  
HETATM    3  H   UNL     1      -7.996   7.514  74.347  1.00  0.00     0.000 HD 
ENDROOT
BRANCH   2   4
HETATM    4  C   UNL     1     -10.390   8.563  72.308  1.00  0.00    -0.332 C  
HETATM    5  O   UNL     1     -10.461   8.587  70.873  1.00  0.00    -0.193 OA 
HETATM    6  C   UNL     1     -10.296   7.315  70.242  1.00  0.00    -0.210 C  
HETATM    7  O   UNL     1     -12.716   8.236  72.871  1.00  0.00    -0.638 OA 
HETATM    8  C   UNL     1     -11.485   6.416  70.654  1.00  0.00    -0.362 C  
HETATM    9  O   UNL     1     -12.731   7.020  70.244  1.00  0.00    -0.525 OA 
HETATM   10  C   UNL     1     -11.510   6.238  72.182  1.00  0.00    -0.307 C  
HETATM   11  H   UNL     1     -13.355   7.639  73.244  1.00  0.00     0.000 HD 
HETATM   12  H   UNL     1     -13.461   6.468  70.496  1.00  0.00     0.000 HD 
HETATM   13  O   UNL     1     -10.491   5.331  72.605  1.00  0.00    -0.199 OA 
HETATM   14  H   UNL     1     -10.507   5.221  73.549  1.00  0.00     0.000 HD 
HETATM   15  C   UNL     1     -11.426   7.596  72.914  1.00  0.00    -0.290 C  
BRANCH   6  16
HETATM   16  O   UNL     1     -10.301   7.453  68.803  1.00  0.00    -0.191 OA 
BRANCH  16  17
HETATM   17  C   UNL     1     -10.048   6.289  68.119  1.00  0.00    -0.152 A  
HETATM   18  C   UNL     1     -10.836   6.040  66.993  1.00  0.00    -0.413 A  
HETATM   19  C   UNL     1      -9.658   3.974  66.604  1.00  0.00    -0.209 A  
HETATM   20  C   UNL     1     -10.647   4.876  66.235  1.00  0.00    -0.307 A  
HETATM   21  C   UNL     1      -8.845   4.222  67.699  1.00  0.00    -0.124 A  
HETATM   22  O   UNL     1      -9.436   2.820  65.912  1.00  0.00    -0.344 OA 
HETATM   23  C   UNL     1      -9.036   5.383  68.449  1.00  0.00    -0.113 A  
HETATM   24  H   UNL     1      -8.759   2.203  66.164  1.00  0.00     0.000 HD 
ENDBRANCH  16  17
ENDBRANCH   6  16
ENDBRANCH   2   4
TORSDOF 3
ENDMDL
MODEL       84
REMARK 921   NORMALIZED FREE ENERGY PREDICTED BY IDOCK:   -4.61 KCAL/MOL
REMARK 922        TOTAL FREE ENERGY PREDICTED BY IDOCK:   -5.87 KCAL/MOL
REMARK 923 INTER-LIGAND FREE ENERGY PREDICTED BY IDOCK:   -5.27 KCAL/MOL
REMARK 924 INTRA-LIGAND FREE ENERGY PREDICTED BY IDOCK:   -0.60 KCAL/MOL
REMARK 927      BINDING AFFINITY PREDICTED BY RF-SCORE:    0.00 PKD
ROOT
HETATM    1  O   UNL     1      -6.955  11.061  66.647  1.00  0.00    -0.124 OA 
HETATM    2  C   UNL     1      -7.561  12.144  67.348  1.00  0.00    -0.155 C  
HETATM    3  H   UNL     1      -6.033  11.207  66.470  1.00  0.00     0.000 HD 
ENDROOT
BRANCH   2   4
HETATM    4  C   UNL     1      -9.056  11.906  67.636  1.00  0.00    -0.179 C  
HETATM    5  O   UNL     1      -9.795  13.137  67.680  1.00  0.00    -0.210 OA 
HETATM    6  C   UNL     1     -10.014  13.752  66.407  1.00  0.00    -0.297 C  
HETATM    7  O   UNL     1     -10.854  10.307  67.425  1.00  0.00    -0.279 OA 
HETATM    8  C   UNL     1     -10.911  12.814  65.568  1.00  0.00    -0.280 C  
HETATM    9  O   UNL     1     -12.171  12.596  66.242  1.00  0.00    -0.562 OA 
HETATM   10  C   UNL     1     -10.222  11.453  65.374  1.00  0.00    -0.270 C  
HETATM   11  H   UNL     1     -11.270   9.667  66.859  1.00  0.00     0.000 HD 
HETATM   12  H   UNL     1     -12.723  12.020  65.726  1.00  0.00     0.000 HD 
HETATM   13  O   UNL     1      -9.171  11.548  64.410  1.00  0.00    -0.405 OA 
HETATM   14  H   UNL     1      -8.746  10.707  64.290  1.00  0.00     0.000 HD 
HETATM   15  C   UNL     1      -9.732  10.868  66.718  1.00  0.00    -0.190 C  
BRANCH   6  16
HETATM   16  O   UNL     1     -10.690  15.020  66.562  1.00  0.00    -0.300 OA 
BRANCH  16  17
HETATM   17  C   UNL     1      -9.866  16.067  66.894  1.00  0.00    -0.245 A  
HETATM   18  C   UNL     1     -10.217  16.809  68.024  1.00  0.00    -0.300 A  
HETATM   19  C   UNL     1      -8.289  18.223  67.718  1.00  0.00    -0.255 A  
HETATM   20  C   UNL     1      -9.433  17.896  68.435  1.00  0.00    -0.304 A  
HETATM   21  C   UNL     1      -7.908  17.477  66.614  1.00  0.00    -0.285 A  
HETATM   22  O   UNL     1      -7.494  19.276  68.064  1.00  0.00    -0.261 OA 
HETATM   23  C   UNL     1      -8.692  16.396  66.210  1.00  0.00    -0.369 A  
HETATM   24  H   UNL     1      -6.712  19.500  67.573  1.00  0.00     0.000 HD 
ENDBRANCH  16  17
ENDBRANCH   6  16
ENDBRANCH   2   4
TORSDOF 3
ENDMDL
MODEL       85
REMARK 921   NORMALIZED FREE ENERGY PREDICTED BY IDOCK:   -4.60 KCAL/MOL
REMARK 922        TOTAL FREE ENERGY PREDICTED BY IDOCK:   -5.85 KCAL/MOL
REMARK 923 INTER-LIGAND FREE ENERGY PREDICTED BY IDOCK:   -5.60 KCAL/MOL
REMARK 924 INTRA-LIGAND FREE ENERGY PREDICTED BY IDOCK:   -0.25 KCAL/MOL
REMARK 927      BINDING AFFINITY PREDICTED BY RF-SCORE:    0.00 PKD
ROOT
HETATM    1  O   UNL     1     -11.122  13.345  64.335  1.00  0.00    -0.363 OA 
HETATM    2  C   UNL     1     -11.458  12.295  65.240  1.00  0.00    -0.351 C  
HETATM    3  H   UNL     1     -11.885  13.735  63.925  1.00  0.00     0.000 HD 
ENDROOT
BRANCH   2   4
HETATM    4  C   UNL     1     -10.220  11.663  65.906  1.00  0.00    -0.238 C  
HETATM    5  O   UNL     1      -9.419  12.643  66.585  1.00  0.00    -0.233 OA 
HETATM    6  C   UNL     1      -9.977  13.133  67.807  1.00  0.00    -0.227 C  
HETATM    7  O   UNL     1      -9.344   9.624  66.859  1.00  0.00    -0.140 OA 
HETATM    8  C   UNL     1     -10.047  11.958  68.809  1.00  0.00    -0.120 C  
HETATM    9  O   UNL     1      -8.725  11.423  69.041  1.00  0.00    -0.357 OA 
HETATM   10  C   UNL     1     -10.934  10.834  68.247  1.00  0.00    -0.255 C  
HETATM   11  H   UNL     1      -9.531   8.876  67.416  1.00  0.00     0.000 HD 
HETATM   12  H   UNL     1      -8.768  10.701  69.657  1.00  0.00     0.000 HD 
HETATM   13  O   UNL     1     -12.317  11.184  68.340  1.00  0.00    -0.697 OA 
HETATM   14  H   UNL     1     -12.865  10.490  67.993  1.00  0.00     0.000 HD 
HETATM   15  C   UNL     1     -10.523  10.450  66.808  1.00  0.00    -0.225 C  
BRANCH   6  16
HETATM   16  O   UNL     1      -9.142  14.170  68.370  1.00  0.00    -0.186 OA 
BRANCH  16  17
HETATM   17  C   UNL     1      -9.548  15.449  68.078  1.00  0.00    -0.206 A  
HETATM   18  C   UNL     1     -10.089  15.660  66.807  1.00  0.00    -0.277 A  
HETATM   19  C   UNL     1     -10.438  17.989  67.323  1.00  0.00    -0.380 A  
HETATM   20  C   UNL     1     -10.529  16.935  66.423  1.00  0.00    -0.252 A  
HETATM   21  C   UNL     1      -9.935  17.789  68.599  1.00  0.00    -0.379 A  
HETATM   22  O   UNL     1     -10.839  19.252  67.002  1.00  0.00    -0.464 OA 
HETATM   23  C   UNL     1      -9.500  16.518  68.977  1.00  0.00    -0.249 A  
HETATM   24  H   UNL     1     -10.777  19.973  67.617  1.00  0.00     0.000 HD 
ENDBRANCH  16  17
ENDBRANCH   6  16
ENDBRANCH   2   4
TORSDOF 3
ENDMDL
MODEL       86
REMARK 921   NORMALIZED FREE ENERGY PREDICTED BY IDOCK:   -4.58 KCAL/MOL
REMARK 922        TOTAL FREE ENERGY PREDICTED BY IDOCK:   -5.84 KCAL/MOL
REMARK 923 INTER-LIGAND FREE ENERGY PREDICTED BY IDOCK:   -5.48 KCAL/MOL
REMARK 924 INTRA-LIGAND FREE ENERGY PREDICTED BY IDOCK:   -0.36 KCAL/MOL
REMARK 927      BINDING AFFINITY PREDICTED BY RF-SCORE:    0.00 PKD
ROOT
HETATM    1  O   UNL     1      -9.556   4.398  69.138  1.00  0.00    -0.160 OA 
HETATM    2  C   UNL     1     -10.256   5.158  70.121  1.00  0.00    -0.278 C  
HETATM    3  H   UNL     1     -10.107   4.147  68.407  1.00  0.00     0.000 HD 
ENDROOT
BRANCH   2   4
HETATM    4  C   UNL     1      -9.362   5.567  71.308  1.00  0.00    -0.147 C  
HETATM    5  O   UNL     1      -9.117   6.982  71.330  1.00  0.00    -0.151 OA 
HETATM    6  C   UNL     1     -10.232   7.778  71.739  1.00  0.00    -0.191 C  
HETATM    7  O   UNL     1      -8.687   4.956  73.545  1.00  0.00    -0.105 OA 
HETATM    8  C   UNL     1     -10.551   7.438  73.213  1.00  0.00    -0.392 C  
HETATM    9  O   UNL     1      -9.404   7.715  74.047  1.00  0.00    -0.360 OA 
HETATM   10  C   UNL     1     -10.901   5.946  73.348  1.00  0.00    -0.245 C  
HETATM   11  H   UNL     1      -8.979   4.637  74.391  1.00  0.00     0.000 HD 
HETATM   12  H   UNL     1      -9.600   7.506  74.953  1.00  0.00     0.000 HD 
HETATM   13  O   UNL     1     -12.216   5.686  72.853  1.00  0.00    -0.548 OA 
HETATM   14  H   UNL     1     -12.432   4.764  72.937  1.00  0.00     0.000 HD 
HETATM   15  C   UNL     1      -9.835   5.049  72.680  1.00  0.00    -0.159 C  
BRANCH   6  16
HETATM   16  O   UNL     1      -9.915   9.186  71.650  1.00  0.00    -0.316 OA 
BRANCH  16  17
HETATM   17  C   UNL     1     -10.408   9.810  70.530  1.00  0.00    -0.283 A  
HETATM   18  C   UNL     1     -11.578  10.556  70.692  1.00  0.00    -0.445 A  
HETATM   19  C   UNL     1     -11.541  11.155  68.358  1.00  0.00    -0.306 A  
HETATM   20  C   UNL     1     -12.153  11.225  69.602  1.00  0.00    -0.391 A  
HETATM   21  C   UNL     1     -10.361  10.448  68.187  1.00  0.00    -0.202 A  
HETATM   22  O   UNL     1     -12.059  11.777  67.260  1.00  0.00    -0.595 OA 
HETATM   23  C   UNL     1      -9.793   9.784  69.275  1.00  0.00    -0.208 A  
HETATM   24  H   UNL     1     -11.641  11.729  66.409  1.00  0.00     0.000 HD 
ENDBRANCH  16  17
ENDBRANCH   6  16
ENDBRANCH   2   4
TORSDOF 3
ENDMDL
MODEL       87
REMARK 921   NORMALIZED FREE ENERGY PREDICTED BY IDOCK:   -4.58 KCAL/MOL
REMARK 922        TOTAL FREE ENERGY PREDICTED BY IDOCK:   -5.83 KCAL/MOL
REMARK 923 INTER-LIGAND FREE ENERGY PREDICTED BY IDOCK:   -5.78 KCAL/MOL
REMARK 924 INTRA-LIGAND FREE ENERGY PREDICTED BY IDOCK:   -0.05 KCAL/MOL
REMARK 927      BINDING AFFINITY PREDICTED BY RF-SCORE:    0.00 PKD
ROOT
HETATM    1  O   UNL     1     -10.312  14.735  69.866  1.00  0.00    -0.439 OA 
HETATM    2  C   UNL     1     -11.670  14.448  69.539  1.00  0.00    -0.313 C  
HETATM    3  H   UNL     1     -10.195  14.966  70.780  1.00  0.00     0.000 HD 
ENDROOT
BRANCH   2   4
HETATM    4  C   UNL     1     -11.860  14.072  68.057  1.00  0.00    -0.368 C  
HETATM    5  O   UNL     1     -11.267  15.041  67.179  1.00  0.00    -0.331 OA 
HETATM    6  C   UNL     1      -9.838  15.010  67.128  1.00  0.00    -0.233 C  
HETATM    7  O   UNL     1     -12.180  12.221  66.539  1.00  0.00    -0.588 OA 
HETATM    8  C   UNL     1      -9.407  13.654  66.524  1.00  0.00    -0.228 C  
HETATM    9  O   UNL     1      -9.958  13.503  65.197  1.00  0.00    -0.504 OA 
HETATM   10  C   UNL     1      -9.921  12.497  67.398  1.00  0.00    -0.207 C  
HETATM   11  H   UNL     1     -11.914  11.336  66.316  1.00  0.00     0.000 HD 
HETATM   12  H   UNL     1      -9.693  12.670  64.826  1.00  0.00     0.000 HD 
HETATM   13  O   UNL     1      -9.142  12.377  68.591  1.00  0.00    -0.367 OA 
HETATM   14  H   UNL     1      -9.459  11.662  69.131  1.00  0.00     0.000 HD 
HETATM   15  C   UNL     1     -11.430  12.636  67.696  1.00  0.00    -0.334 C  
BRANCH   6  16
HETATM   16  O   UNL     1      -9.333  16.071  66.286  1.00  0.00    -0.267 OA 
BRANCH  16  17
HETATM   17  C   UNL     1      -8.360  16.845  66.869  1.00  0.00    -0.213 A  
HETATM   18  C   UNL     1      -8.211  16.730  68.253  1.00  0.00    -0.204 A  
HETATM   19  C   UNL     1      -6.418  18.340  68.213  1.00  0.00    -0.200 A  
HETATM   20  C   UNL     1      -7.243  17.484  68.931  1.00  0.00    -0.249 A  
HETATM   21  C   UNL     1      -6.530  18.442  66.835  1.00  0.00    -0.204 A  
HETATM   22  O   UNL     1      -5.467  19.106  68.820  1.00  0.00    -0.194 OA 
HETATM   23  C   UNL     1      -7.494  17.688  66.165  1.00  0.00    -0.334 A  
HETATM   24  H   UNL     1      -4.903  19.692  68.329  1.00  0.00     0.000 HD 
ENDBRANCH  16  17
ENDBRANCH   6  16
ENDBRANCH   2   4
TORSDOF 3
ENDMDL
MODEL       88
REMARK 921   NORMALIZED FREE ENERGY PREDICTED BY IDOCK:   -4.58 KCAL/MOL
REMARK 922        TOTAL FREE ENERGY PREDICTED BY IDOCK:   -5.82 KCAL/MOL
REMARK 923 INTER-LIGAND FREE ENERGY PREDICTED BY IDOCK:   -5.86 KCAL/MOL
REMARK 924 INTRA-LIGAND FREE ENERGY PREDICTED BY IDOCK:    0.04 KCAL/MOL
REMARK 927      BINDING AFFINITY PREDICTED BY RF-SCORE:    0.00 PKD
ROOT
HETATM    1  O   UNL     1      -9.789  16.428  67.883  1.00  0.00    -0.233 OA 
HETATM    2  C   UNL     1     -10.632  15.838  66.896  1.00  0.00    -0.317 C  
HETATM    3  H   UNL     1      -9.135  17.007  67.510  1.00  0.00     0.000 HD 
ENDROOT
BRANCH   2   4
HETATM    4  C   UNL     1     -11.694  14.900  67.501  1.00  0.00    -0.308 C  
HETATM    5  O   UNL     1     -12.102  13.884  66.571  1.00  0.00    -0.416 OA 
HETATM    6  C   UNL     1     -11.139  12.850  66.351  1.00  0.00    -0.285 C  
HETATM    7  O   UNL     1     -12.538  13.985  69.570  1.00  0.00    -0.435 OA 
HETATM    8  C   UNL     1     -10.949  12.079  67.677  1.00  0.00    -0.238 C  
HETATM    9  O   UNL     1     -12.206  11.510  68.106  1.00  0.00    -0.576 OA 
HETATM   10  C   UNL     1     -10.446  13.031  68.776  1.00  0.00    -0.164 C  
HETATM   11  H   UNL     1     -12.307  13.616  70.415  1.00  0.00     0.000 HD 
HETATM   12  H   UNL     1     -12.089  11.036  68.921  1.00  0.00     0.000 HD 
HETATM   13  O   UNL     1      -9.063  13.337  68.588  1.00  0.00    -0.360 OA 
HETATM   14  H   UNL     1      -8.752  13.925  69.267  1.00  0.00     0.000 HD 
HETATM   15  C   UNL     1     -11.319  14.302  68.871  1.00  0.00    -0.274 C  
BRANCH   6  16
HETATM   16  O   UNL     1     -11.605  11.924  65.343  1.00  0.00    -0.316 OA 
BRANCH  16  17
HETATM   17  C   UNL     1     -10.628  11.113  64.821  1.00  0.00    -0.303 A  
HETATM   18  C   UNL     1     -10.148  10.096  65.649  1.00  0.00    -0.324 A  
HETATM   19  C   UNL     1      -8.648   9.363  63.911  1.00  0.00    -0.210 A  
HETATM   20  C   UNL     1      -9.149   9.221  65.198  1.00  0.00    -0.263 A  
HETATM   21  C   UNL     1      -9.136  10.345  63.064  1.00  0.00    -0.279 A  
HETATM   22  O   UNL     1      -7.669   8.549  63.422  1.00  0.00    -0.123 OA 
HETATM   23  C   UNL     1     -10.131  11.212  63.517  1.00  0.00    -0.437 A  
HETATM   24  H   UNL     1      -7.326   8.645  62.541  1.00  0.00     0.000 HD 
ENDBRANCH  16  17
ENDBRANCH   6  16
ENDBRANCH   2   4
TORSDOF 3
ENDMDL
MODEL       89
REMARK 921   NORMALIZED FREE ENERGY PREDICTED BY IDOCK:   -4.56 KCAL/MOL
REMARK 922        TOTAL FREE ENERGY PREDICTED BY IDOCK:   -5.81 KCAL/MOL
REMARK 923 INTER-LIGAND FREE ENERGY PREDICTED BY IDOCK:   -5.43 KCAL/MOL
REMARK 924 INTRA-LIGAND FREE ENERGY PREDICTED BY IDOCK:   -0.38 KCAL/MOL
REMARK 927      BINDING AFFINITY PREDICTED BY RF-SCORE:    0.00 PKD
ROOT
HETATM    1  O   UNL     1     -10.963   5.880  68.198  1.00  0.00    -0.274 OA 
HETATM    2  C   UNL     1     -11.327   6.163  69.547  1.00  0.00    -0.356 C  
HETATM    3  H   UNL     1     -11.713   5.683  67.648  1.00  0.00     0.000 HD 
ENDROOT
BRANCH   2   4
HETATM    4  C   UNL     1     -10.111   6.485  70.438  1.00  0.00    -0.184 C  
HETATM    5  O   UNL     1      -9.540   7.765  70.122  1.00  0.00    -0.168 OA 
HETATM    6  C   UNL     1     -10.310   8.889  70.558  1.00  0.00    -0.203 C  
HETATM    7  O   UNL     1      -9.099   6.057  72.588  1.00  0.00    -0.138 OA 
HETATM    8  C   UNL     1     -10.349   8.875  72.103  1.00  0.00    -0.243 C  
HETATM    9  O   UNL     1      -9.008   8.949  72.635  1.00  0.00    -0.337 OA 
HETATM   10  C   UNL     1     -11.000   7.574  72.605  1.00  0.00    -0.336 C  
HETATM   11  H   UNL     1      -9.253   5.961  73.521  1.00  0.00     0.000 HD 
HETATM   12  H   UNL     1      -9.032   8.941  73.585  1.00  0.00     0.000 HD 
HETATM   13  O   UNL     1     -12.417   7.614  72.426  1.00  0.00    -0.503 OA 
HETATM   14  H   UNL     1     -12.819   6.811  72.736  1.00  0.00     0.000 HD 
HETATM   15  C   UNL     1     -10.361   6.329  71.951  1.00  0.00    -0.204 C  
BRANCH   6  16
HETATM   16  O   UNL     1      -9.699  10.125  70.123  1.00  0.00    -0.190 OA 
BRANCH  16  17
HETATM   17  C   UNL     1     -10.267  10.676  69.000  1.00  0.00    -0.215 A  
HETATM   18  C   UNL     1     -11.269  11.627  69.205  1.00  0.00    -0.328 A  
HETATM   19  C   UNL     1     -11.518  11.905  66.824  1.00  0.00    -0.316 A  
HETATM   20  C   UNL     1     -11.903  12.240  68.115  1.00  0.00    -0.372 A  
HETATM   21  C   UNL     1     -10.503  10.988  66.603  1.00  0.00    -0.307 A  
HETATM   22  O   UNL     1     -12.106  12.460  65.726  1.00  0.00    -0.561 OA 
HETATM   23  C   UNL     1      -9.873  10.382  67.691  1.00  0.00    -0.197 A  
HETATM   24  H   UNL     1     -11.843  12.231  64.843  1.00  0.00     0.000 HD 
ENDBRANCH  16  17
ENDBRANCH   6  16
ENDBRANCH   2   4
TORSDOF 3
ENDMDL
MODEL       90
REMARK 921   NORMALIZED FREE ENERGY PREDICTED BY IDOCK:   -4.54 KCAL/MOL
REMARK 922        TOTAL FREE ENERGY PREDICTED BY IDOCK:   -5.78 KCAL/MOL
REMARK 923 INTER-LIGAND FREE ENERGY PREDICTED BY IDOCK:   -5.47 KCAL/MOL
REMARK 924 INTRA-LIGAND FREE ENERGY PREDICTED BY IDOCK:   -0.31 KCAL/MOL
REMARK 927      BINDING AFFINITY PREDICTED BY RF-SCORE:    0.00 PKD
ROOT
HETATM    1  O   UNL     1      -5.789  18.592  70.445  1.00  0.00    -0.212 OA 
HETATM    2  C   UNL     1      -6.687  19.579  69.941  1.00  0.00    -0.173 C  
HETATM    3  H   UNL     1      -5.872  18.464  71.383  1.00  0.00     0.000 HD 
ENDROOT
BRANCH   2   4
HETATM    4  C   UNL     1      -6.552  19.786  68.420  1.00  0.00    -0.273 C  
HETATM    5  O   UNL     1      -6.615  18.543  67.704  1.00  0.00    -0.201 OA 
HETATM    6  C   UNL     1      -7.917  17.956  67.631  1.00  0.00    -0.219 C  
HETATM    7  O   UNL     1      -6.914  21.361  66.626  1.00  0.00    -0.732 OA 
HETATM    8  C   UNL     1      -8.825  18.900  66.809  1.00  0.00    -0.309 C  
HETATM    9  O   UNL     1      -8.282  19.081  65.482  1.00  0.00    -0.289 OA 
HETATM   10  C   UNL     1      -8.913  20.277  67.490  1.00  0.00    -0.328 C  
HETATM   11  H   UNL     1      -7.506  22.008  66.259  1.00  0.00     0.000 HD 
HETATM   12  H   UNL     1      -8.840  19.661  64.977  1.00  0.00     0.000 HD 
HETATM   13  O   UNL     1      -9.763  20.222  68.637  1.00  0.00    -0.160 OA 
HETATM   14  H   UNL     1      -9.818  21.072  69.058  1.00  0.00     0.000 HD 
HETATM   15  C   UNL     1      -7.512  20.836  67.826  1.00  0.00    -0.161 C  
BRANCH   6  16
HETATM   16  O   UNL     1      -7.864  16.674  66.965  1.00  0.00    -0.163 OA 
BRANCH  16  17
HETATM   17  C   UNL     1      -9.070  16.020  66.893  1.00  0.00    -0.228 A  
HETATM   18  C   UNL     1      -9.712  15.752  68.104  1.00  0.00    -0.211 A  
HETATM   19  C   UNL     1     -11.538  14.709  66.926  1.00  0.00    -0.362 A  
HETATM   20  C   UNL     1     -10.946  15.088  68.124  1.00  0.00    -0.281 A  
HETATM   21  C   UNL     1     -10.930  14.998  65.714  1.00  0.00    -0.351 A  
HETATM   22  O   UNL     1     -12.732  14.051  66.884  1.00  0.00    -0.465 OA 
HETATM   23  C   UNL     1      -9.702  15.660  65.699  1.00  0.00    -0.348 A  
HETATM   24  H   UNL     1     -13.136  13.793  66.064  1.00  0.00     0.000 HD 
ENDBRANCH  16  17
ENDBRANCH   6  16
ENDBRANCH   2   4
TORSDOF 3
ENDMDL
MODEL       91
REMARK 921   NORMALIZED FREE ENERGY PREDICTED BY IDOCK:   -4.53 KCAL/MOL
REMARK 922        TOTAL FREE ENERGY PREDICTED BY IDOCK:   -5.78 KCAL/MOL
REMARK 923 INTER-LIGAND FREE ENERGY PREDICTED BY IDOCK:   -5.36 KCAL/MOL
REMARK 924 INTRA-LIGAND FREE ENERGY PREDICTED BY IDOCK:   -0.42 KCAL/MOL
REMARK 927      BINDING AFFINITY PREDICTED BY RF-SCORE:    0.00 PKD
ROOT
HETATM    1  O   UNL     1      -7.568   8.444  68.963  1.00  0.00    -0.088 OA 
HETATM    2  C   UNL     1      -8.802   7.874  69.393  1.00  0.00    -0.145 C  
HETATM    3  H   UNL     1      -7.247   8.060  68.155  1.00  0.00     0.000 HD 
ENDROOT
BRANCH   2   4
HETATM    4  C   UNL     1      -9.324   8.497  70.702  1.00  0.00    -0.174 C  
HETATM    5  O   UNL     1      -9.842   9.821  70.494  1.00  0.00    -0.260 OA 
HETATM    6  C   UNL     1     -11.105   9.873  69.824  1.00  0.00    -0.254 C  
HETATM    7  O   UNL     1     -10.243   7.988  72.876  1.00  0.00    -0.295 OA 
HETATM    8  C   UNL     1     -12.160   9.203  70.734  1.00  0.00    -0.149 C  
HETATM    9  O   UNL     1     -12.236   9.896  72.000  1.00  0.00    -0.321 OA 
HETATM   10  C   UNL     1     -11.775   7.739  71.003  1.00  0.00    -0.281 C  
HETATM   11  H   UNL     1     -10.853   7.444  73.361  1.00  0.00     0.000 HD 
HETATM   12  H   UNL     1     -12.884   9.485  72.559  1.00  0.00     0.000 HD 
HETATM   13  O   UNL     1     -12.037   6.926  69.858  1.00  0.00    -0.635 OA 
HETATM   14  H   UNL     1     -11.800   6.021  70.024  1.00  0.00     0.000 HD 
HETATM   15  C   UNL     1     -10.313   7.614  71.487  1.00  0.00    -0.196 C  
BRANCH   6  16
HETATM   16  O   UNL     1     -11.502  11.243  69.588  1.00  0.00    -0.260 OA 
BRANCH  16  17
HETATM   17  C   UNL     1     -11.132  11.739  68.362  1.00  0.00    -0.237 A  
HETATM   18  C   UNL     1     -11.016  10.815  67.320  1.00  0.00    -0.359 A  
HETATM   19  C   UNL     1     -10.401  12.581  65.799  1.00  0.00    -0.265 A  
HETATM   20  C   UNL     1     -10.642  11.234  66.036  1.00  0.00    -0.314 A  
HETATM   21  C   UNL     1     -10.545  13.515  66.813  1.00  0.00    -0.272 A  
HETATM   22  O   UNL     1     -10.024  13.045  64.573  1.00  0.00    -0.577 OA 
HETATM   23  C   UNL     1     -10.918  13.093  68.090  1.00  0.00    -0.275 A  
HETATM   24  H   UNL     1      -9.860  13.966  64.411  1.00  0.00     0.000 HD 
ENDBRANCH  16  17
ENDBRANCH   6  16
ENDBRANCH   2   4
TORSDOF 3
ENDMDL
MODEL       92
REMARK 921   NORMALIZED FREE ENERGY PREDICTED BY IDOCK:   -4.53 KCAL/MOL
REMARK 922        TOTAL FREE ENERGY PREDICTED BY IDOCK:   -5.77 KCAL/MOL
REMARK 923 INTER-LIGAND FREE ENERGY PREDICTED BY IDOCK:   -5.16 KCAL/MOL
REMARK 924 INTRA-LIGAND FREE ENERGY PREDICTED BY IDOCK:   -0.61 KCAL/MOL
REMARK 927      BINDING AFFINITY PREDICTED BY RF-SCORE:    0.00 PKD
ROOT
HETATM    1  O   UNL     1      -8.366   7.693  73.343  1.00  0.00    -0.127 OA 
HETATM    2  C   UNL     1      -8.707   8.492  72.212  1.00  0.00    -0.190 C  
HETATM    3  H   UNL     1      -7.427   7.615  73.469  1.00  0.00     0.000 HD 
ENDROOT
BRANCH   2   4
HETATM    4  C   UNL     1     -10.229   8.620  72.009  1.00  0.00    -0.337 C  
HETATM    5  O   UNL     1     -10.581   8.661  70.617  1.00  0.00    -0.199 OA 
HETATM    6  C   UNL     1     -10.472   7.409  69.933  1.00  0.00    -0.231 C  
HETATM    7  O   UNL     1     -12.377   8.146  73.005  1.00  0.00    -0.666 OA 
HETATM    8  C   UNL     1     -11.505   6.435  70.545  1.00  0.00    -0.379 C  
HETATM    9  O   UNL     1     -12.840   6.970  70.401  1.00  0.00    -0.558 OA 
HETATM   10  C   UNL     1     -11.221   6.234  72.044  1.00  0.00    -0.281 C  
HETATM   11  H   UNL     1     -12.897   7.508  73.480  1.00  0.00     0.000 HD 
HETATM   12  H   UNL     1     -13.474   6.372  70.777  1.00  0.00     0.000 HD 
HETATM   13  O   UNL     1     -10.089   5.383  72.236  1.00  0.00    -0.176 OA 
HETATM   14  H   UNL     1      -9.914   5.259  73.162  1.00  0.00     0.000 HD 
HETATM   15  C   UNL     1     -11.071   7.584  72.780  1.00  0.00    -0.366 C  
BRANCH   6  16
HETATM   16  O   UNL     1     -10.766   7.568  68.527  1.00  0.00    -0.170 OA 
BRANCH  16  17
HETATM   17  C   UNL     1      -9.955   8.465  67.874  1.00  0.00    -0.184 A  
HETATM   18  C   UNL     1     -10.587   9.539  67.243  1.00  0.00    -0.317 A  
HETATM   19  C   UNL     1      -8.453  10.389  66.513  1.00  0.00    -0.132 A  
HETATM   20  C   UNL     1      -9.837  10.501  66.553  1.00  0.00    -0.255 A  
HETATM   21  C   UNL     1      -7.808   9.348  67.162  1.00  0.00    -0.098 A  
HETATM   22  O   UNL     1      -7.673  11.289  65.848  1.00  0.00    -0.361 OA 
HETATM   23  C   UNL     1      -8.559   8.394  67.849  1.00  0.00    -0.131 A  
HETATM   24  H   UNL     1      -6.726  11.212  65.821  1.00  0.00     0.000 HD 
ENDBRANCH  16  17
ENDBRANCH   6  16
ENDBRANCH   2   4
TORSDOF 3
ENDMDL
MODEL       93
REMARK 921   NORMALIZED FREE ENERGY PREDICTED BY IDOCK:   -4.51 KCAL/MOL
REMARK 922        TOTAL FREE ENERGY PREDICTED BY IDOCK:   -5.75 KCAL/MOL
REMARK 923 INTER-LIGAND FREE ENERGY PREDICTED BY IDOCK:   -5.37 KCAL/MOL
REMARK 924 INTRA-LIGAND FREE ENERGY PREDICTED BY IDOCK:   -0.38 KCAL/MOL
REMARK 927      BINDING AFFINITY PREDICTED BY RF-SCORE:    0.00 PKD
ROOT
HETATM    1  O   UNL     1     -12.882   6.982  70.558  1.00  0.00    -0.583 OA 
HETATM    2  C   UNL     1     -12.207   7.795  71.514  1.00  0.00    -0.318 C  
HETATM    3  H   UNL     1     -13.462   7.481  69.994  1.00  0.00     0.000 HD 
ENDROOT
BRANCH   2   4
HETATM    4  C   UNL     1     -11.266   6.986  72.427  1.00  0.00    -0.268 C  
HETATM    5  O   UNL     1     -10.568   5.961  71.702  1.00  0.00    -0.225 OA 
HETATM    6  C   UNL     1      -9.525   6.436  70.845  1.00  0.00    -0.175 C  
HETATM    7  O   UNL     1      -9.954   7.080  74.452  1.00  0.00    -0.449 OA 
HETATM    8  C   UNL     1      -8.429   7.073  71.729  1.00  0.00    -0.114 C  
HETATM    9  O   UNL     1      -7.908   6.095  72.657  1.00  0.00    -0.102 OA 
HETATM   10  C   UNL     1      -9.012   8.245  72.536  1.00  0.00    -0.236 C  
HETATM   11  H   UNL     1      -9.360   7.605  74.977  1.00  0.00     0.000 HD 
HETATM   12  H   UNL     1      -7.234   6.486  73.200  1.00  0.00     0.000 HD 
HETATM   13  O   UNL     1      -9.206   9.389  71.701  1.00  0.00    -0.258 OA 
HETATM   14  H   UNL     1      -9.566  10.114  72.199  1.00  0.00     0.000 HD 
HETATM   15  C   UNL     1     -10.304   7.838  73.279  1.00  0.00    -0.300 C  
BRANCH   6  16
HETATM   16  O   UNL     1      -8.940   5.344  70.099  1.00  0.00    -0.129 OA 
BRANCH  16  17
HETATM   17  C   UNL     1      -9.475   5.160  68.848  1.00  0.00    -0.134 A  
HETATM   18  C   UNL     1     -10.334   6.157  68.379  1.00  0.00    -0.240 A  
HETATM   19  C   UNL     1     -10.639   4.949  66.316  1.00  0.00    -0.255 A  
HETATM   20  C   UNL     1     -10.925   6.050  67.112  1.00  0.00    -0.360 A  
HETATM   21  C   UNL     1      -9.763   3.968  66.751  1.00  0.00    -0.216 A  
HETATM   22  O   UNL     1     -11.193   4.786  65.080  1.00  0.00    -0.808 OA 
HETATM   23  C   UNL     1      -9.176   4.080  68.012  1.00  0.00    -0.200 A  
HETATM   24  H   UNL     1     -10.997   4.033  64.535  1.00  0.00     0.000 HD 
ENDBRANCH  16  17
ENDBRANCH   6  16
ENDBRANCH   2   4
TORSDOF 3
ENDMDL
MODEL       94
REMARK 921   NORMALIZED FREE ENERGY PREDICTED BY IDOCK:   -4.50 KCAL/MOL
REMARK 922        TOTAL FREE ENERGY PREDICTED BY IDOCK:   -5.74 KCAL/MOL
REMARK 923 INTER-LIGAND FREE ENERGY PREDICTED BY IDOCK:   -5.94 KCAL/MOL
REMARK 924 INTRA-LIGAND FREE ENERGY PREDICTED BY IDOCK:    0.20 KCAL/MOL
REMARK 927      BINDING AFFINITY PREDICTED BY RF-SCORE:    0.00 PKD
ROOT
HETATM    1  O   UNL     1     -11.776  13.637  70.242  1.00  0.00    -0.448 OA 
HETATM    2  C   UNL     1     -11.883  12.682  69.189  1.00  0.00    -0.297 C  
HETATM    3  H   UNL     1     -11.770  13.235  71.103  1.00  0.00     0.000 HD 
ENDROOT
BRANCH   2   4
HETATM    4  C   UNL     1     -11.892  13.333  67.792  1.00  0.00    -0.353 C  
HETATM    5  O   UNL     1     -10.872  14.337  67.664  1.00  0.00    -0.262 OA 
HETATM    6  C   UNL     1      -9.540  13.829  67.552  1.00  0.00    -0.219 C  
HETATM    7  O   UNL     1     -12.466  12.973  65.474  1.00  0.00    -0.469 OA 
HETATM    8  C   UNL     1      -9.439  13.032  66.232  1.00  0.00    -0.192 C  
HETATM    9  O   UNL     1      -9.744  13.888  65.108  1.00  0.00    -0.575 OA 
HETATM   10  C   UNL     1     -10.440  11.864  66.239  1.00  0.00    -0.239 C  
HETATM   11  H   UNL     1     -12.447  12.359  64.749  1.00  0.00     0.000 HD 
HETATM   12  H   UNL     1      -9.682  13.398  64.297  1.00  0.00     0.000 HD 
HETATM   13  O   UNL     1      -9.980  10.806  67.082  1.00  0.00    -0.184 OA 
HETATM   14  H   UNL     1     -10.598  10.084  67.087  1.00  0.00     0.000 HD 
HETATM   15  C   UNL     1     -11.862  12.336  66.616  1.00  0.00    -0.289 C  
BRANCH   6  16
HETATM   16  O   UNL     1      -8.582  14.911  67.511  1.00  0.00    -0.164 OA 
BRANCH  16  17
HETATM   17  C   UNL     1      -9.142  16.164  67.453  1.00  0.00    -0.195 A  
HETATM   18  C   UNL     1      -9.119  16.917  68.629  1.00  0.00    -0.265 A  
HETATM   19  C   UNL     1     -10.227  18.740  67.505  1.00  0.00    -0.393 A  
HETATM   20  C   UNL     1      -9.669  18.207  68.660  1.00  0.00    -0.367 A  
HETATM   21  C   UNL     1     -10.228  18.019  66.322  1.00  0.00    -0.381 A  
HETATM   22  O   UNL     1     -10.786  19.983  67.479  1.00  0.00    -0.332 OA 
HETATM   23  C   UNL     1      -9.678  16.737  66.295  1.00  0.00    -0.318 A  
HETATM   24  H   UNL     1     -11.167  20.348  66.689  1.00  0.00     0.000 HD 
ENDBRANCH  16  17
ENDBRANCH   6  16
ENDBRANCH   2   4
TORSDOF 3
ENDMDL
MODEL       95
REMARK 921   NORMALIZED FREE ENERGY PREDICTED BY IDOCK:   -4.44 KCAL/MOL
REMARK 922        TOTAL FREE ENERGY PREDICTED BY IDOCK:   -5.67 KCAL/MOL
REMARK 923 INTER-LIGAND FREE ENERGY PREDICTED BY IDOCK:   -5.27 KCAL/MOL
REMARK 924 INTRA-LIGAND FREE ENERGY PREDICTED BY IDOCK:   -0.40 KCAL/MOL
REMARK 927      BINDING AFFINITY PREDICTED BY RF-SCORE:    0.00 PKD
ROOT
HETATM    1  O   UNL     1      -8.337  17.035  68.438  1.00  0.00    -0.223 OA 
HETATM    2  C   UNL     1      -8.021  15.926  67.599  1.00  0.00    -0.146 C  
HETATM    3  H   UNL     1      -7.770  17.095  69.198  1.00  0.00     0.000 HD 
ENDROOT
BRANCH   2   4
HETATM    4  C   UNL     1      -8.941  15.830  66.366  1.00  0.00    -0.331 C  
HETATM    5  O   UNL     1      -9.163  14.467  65.971  1.00  0.00    -0.208 OA 
HETATM    6  C   UNL     1     -10.036  13.727  66.829  1.00  0.00    -0.270 C  
HETATM    7  O   UNL     1     -10.708  16.947  65.158  1.00  0.00    -0.663 OA 
HETATM    8  C   UNL     1     -11.441  14.367  66.754  1.00  0.00    -0.370 C  
HETATM    9  O   UNL     1     -11.930  14.334  65.394  1.00  0.00    -0.359 OA 
HETATM   10  C   UNL     1     -11.382  15.834  67.213  1.00  0.00    -0.059 C  
HETATM   11  H   UNL     1     -11.524  17.429  65.231  1.00  0.00     0.000 HD 
HETATM   12  H   UNL     1     -12.794  14.726  65.348  1.00  0.00     0.000 HD 
HETATM   13  O   UNL     1     -11.263  15.916  68.635  1.00  0.00    -0.318 OA 
HETATM   14  H   UNL     1     -11.227  16.822  68.919  1.00  0.00     0.000 HD 
HETATM   15  C   UNL     1     -10.263  16.613  66.486  1.00  0.00    -0.310 C  
BRANCH   6  16
HETATM   16  O   UNL     1     -10.132  12.351  66.397  1.00  0.00    -0.227 OA 
BRANCH  16  17
HETATM   17  C   UNL     1     -10.387  11.455  67.406  1.00  0.00    -0.202 A  
HETATM   18  C   UNL     1     -10.299  10.100  67.080  1.00  0.00    -0.303 A  
HETATM   19  C   UNL     1     -10.864   9.498  69.344  1.00  0.00    -0.206 A  
HETATM   20  C   UNL     1     -10.545   9.116  68.048  1.00  0.00    -0.253 A  
HETATM   21  C   UNL     1     -10.923  10.838  69.694  1.00  0.00    -0.320 A  
HETATM   22  O   UNL     1     -11.123   8.586  70.324  1.00  0.00    -0.248 OA 
HETATM   23  C   UNL     1     -10.676  11.814  68.726  1.00  0.00    -0.255 A  
HETATM   24  H   UNL     1     -11.342   8.848  71.211  1.00  0.00     0.000 HD 
ENDBRANCH  16  17
ENDBRANCH   6  16
ENDBRANCH   2   4
TORSDOF 3
ENDMDL
MODEL       96
REMARK 921   NORMALIZED FREE ENERGY PREDICTED BY IDOCK:   -4.43 KCAL/MOL
REMARK 922        TOTAL FREE ENERGY PREDICTED BY IDOCK:   -5.66 KCAL/MOL
REMARK 923 INTER-LIGAND FREE ENERGY PREDICTED BY IDOCK:   -5.17 KCAL/MOL
REMARK 924 INTRA-LIGAND FREE ENERGY PREDICTED BY IDOCK:   -0.48 KCAL/MOL
REMARK 927      BINDING AFFINITY PREDICTED BY RF-SCORE:    0.00 PKD
ROOT
HETATM    1  O   UNL     1      -6.999  10.832  66.753  1.00  0.00    -0.104 OA 
HETATM    2  C   UNL     1      -7.627  12.058  67.121  1.00  0.00    -0.146 C  
HETATM    3  H   UNL     1      -6.341  10.944  66.077  1.00  0.00     0.000 HD 
ENDROOT
BRANCH   2   4
HETATM    4  C   UNL     1      -8.693  11.877  68.218  1.00  0.00    -0.170 C  
HETATM    5  O   UNL     1      -9.741  12.854  68.113  1.00  0.00    -0.218 OA 
HETATM    6  C   UNL     1     -10.649  12.648  67.028  1.00  0.00    -0.240 C  
HETATM    7  O   UNL     1      -9.727  10.263  69.688  1.00  0.00    -0.280 OA 
HETATM    8  C   UNL     1     -11.405  11.323  67.280  1.00  0.00    -0.255 C  
HETATM    9  O   UNL     1     -12.127  11.393  68.530  1.00  0.00    -0.550 OA 
HETATM   10  C   UNL     1     -10.412  10.151  67.356  1.00  0.00    -0.256 C  
HETATM   11  H   UNL     1     -10.075   9.382  69.762  1.00  0.00     0.000 HD 
HETATM   12  H   UNL     1     -12.592  10.579  68.684  1.00  0.00     0.000 HD 
HETATM   13  O   UNL     1      -9.939   9.801  66.054  1.00  0.00    -0.256 OA 
HETATM   14  H   UNL     1      -9.326   9.077  66.101  1.00  0.00     0.000 HD 
HETATM   15  C   UNL     1      -9.257  10.447  68.339  1.00  0.00    -0.147 C  
BRANCH   6  16
HETATM   16  O   UNL     1     -11.612  13.723  66.956  1.00  0.00    -0.328 OA 
BRANCH  16  17
HETATM   17  C   UNL     1     -11.086  14.973  67.169  1.00  0.00    -0.332 A  
HETATM   18  C   UNL     1     -10.138  15.421  66.246  1.00  0.00    -0.309 A  
HETATM   19  C   UNL     1      -9.924  17.500  67.446  1.00  0.00    -0.315 A  
HETATM   20  C   UNL     1      -9.548  16.685  66.387  1.00  0.00    -0.308 A  
HETATM   21  C   UNL     1     -10.888  17.085  68.352  1.00  0.00    -0.333 A  
HETATM   22  O   UNL     1      -9.377  18.734  67.640  1.00  0.00    -0.287 OA 
HETATM   23  C   UNL     1     -11.473  15.827  68.206  1.00  0.00    -0.338 A  
HETATM   24  H   UNL     1      -9.635  19.292  68.365  1.00  0.00     0.000 HD 
ENDBRANCH  16  17
ENDBRANCH   6  16
ENDBRANCH   2   4
TORSDOF 3
ENDMDL
MODEL       97
REMARK 921   NORMALIZED FREE ENERGY PREDICTED BY IDOCK:   -4.42 KCAL/MOL
REMARK 922        TOTAL FREE ENERGY PREDICTED BY IDOCK:   -5.64 KCAL/MOL
REMARK 923 INTER-LIGAND FREE ENERGY PREDICTED BY IDOCK:   -5.71 KCAL/MOL
REMARK 924 INTRA-LIGAND FREE ENERGY PREDICTED BY IDOCK:    0.07 KCAL/MOL
REMARK 927      BINDING AFFINITY PREDICTED BY RF-SCORE:    0.00 PKD
ROOT
HETATM    1  O   UNL     1     -10.741  15.046  70.380  1.00  0.00    -0.455 OA 
HETATM    2  C   UNL     1     -10.888  15.433  69.015  1.00  0.00    -0.244 C  
HETATM    3  H   UNL     1     -11.573  14.872  70.804  1.00  0.00     0.000 HD 
ENDROOT
BRANCH   2   4
HETATM    4  C   UNL     1      -9.538  15.714  68.327  1.00  0.00    -0.200 C  
HETATM    5  O   UNL     1      -9.634  15.606  66.897  1.00  0.00    -0.221 OA 
HETATM    6  C   UNL     1     -10.322  16.686  66.259  1.00  0.00    -0.317 C  
HETATM    7  O   UNL     1      -7.439  16.886  68.551  1.00  0.00    -0.195 OA 
HETATM    8  C   UNL     1      -9.499  17.976  66.476  1.00  0.00    -0.301 C  
HETATM    9  O   UNL     1      -8.177  17.823  65.914  1.00  0.00    -0.525 OA 
HETATM   10  C   UNL     1      -9.358  18.268  67.980  1.00  0.00    -0.284 C  
HETATM   11  H   UNL     1      -7.019  17.697  68.815  1.00  0.00     0.000 HD 
HETATM   12  H   UNL     1      -7.671  18.616  66.047  1.00  0.00     0.000 HD 
HETATM   13  O   UNL     1     -10.578  18.785  68.514  1.00  0.00    -0.381 OA 
HETATM   14  H   UNL     1     -10.491  18.965  69.443  1.00  0.00     0.000 HD 
HETATM   15  C   UNL     1      -8.857  17.029  68.755  1.00  0.00    -0.244 C  
BRANCH   6  16
HETATM   16  O   UNL     1     -10.440  16.447  64.838  1.00  0.00    -0.643 OA 
BRANCH  16  17
HETATM   17  C   UNL     1     -10.913  15.201  64.507  1.00  0.00    -0.189 A  
HETATM   18  C   UNL     1      -9.980  14.162  64.483  1.00  0.00     0.403 A  
HETATM   19  C   UNL     1     -11.710  12.599  63.868  1.00  0.00    -0.457 A  
HETATM   20  C   UNL     1     -10.376  12.857  64.155  1.00  0.00    -0.385 A  
HETATM   21  C   UNL     1     -12.654  13.613  63.921  1.00  0.00    -0.125 A  
HETATM   22  O   UNL     1     -12.150  11.353  63.533  1.00  0.00    -0.581 OA 
HETATM   23  C   UNL     1     -12.255  14.909  64.249  1.00  0.00    -0.365 A  
HETATM   24  H   UNL     1     -13.063  11.177  63.336  1.00  0.00     0.000 HD 
ENDBRANCH  16  17
ENDBRANCH   6  16
ENDBRANCH   2   4
TORSDOF 3
ENDMDL
MODEL       98
REMARK 921   NORMALIZED FREE ENERGY PREDICTED BY IDOCK:   -4.38 KCAL/MOL
REMARK 922        TOTAL FREE ENERGY PREDICTED BY IDOCK:   -5.60 KCAL/MOL
REMARK 923 INTER-LIGAND FREE ENERGY PREDICTED BY IDOCK:   -5.12 KCAL/MOL
REMARK 924 INTRA-LIGAND FREE ENERGY PREDICTED BY IDOCK:   -0.48 KCAL/MOL
REMARK 927      BINDING AFFINITY PREDICTED BY RF-SCORE:    0.00 PKD
ROOT
HETATM    1  O   UNL     1      -6.579  12.652  69.268  1.00  0.00    -0.108 OA 
HETATM    2  C   UNL     1      -7.009  11.296  69.172  1.00  0.00    -0.114 C  
HETATM    3  H   UNL     1      -6.040  12.813  70.034  1.00  0.00     0.000 HD 
ENDROOT
BRANCH   2   4
HETATM    4  C   UNL     1      -7.883  11.033  67.930  1.00  0.00    -0.110 C  
HETATM    5  O   UNL     1      -9.010  10.197  68.236  1.00  0.00    -0.118 OA 
HETATM    6  C   UNL     1     -10.049  10.838  68.981  1.00  0.00    -0.211 C  
HETATM    7  O   UNL     1      -8.553  11.931  65.790  1.00  0.00    -0.388 OA 
HETATM    8  C   UNL     1     -10.650  11.958  68.102  1.00  0.00    -0.208 C  
HETATM    9  O   UNL     1     -11.182  11.400  66.879  1.00  0.00    -0.296 OA 
HETATM   10  C   UNL     1      -9.565  12.985  67.735  1.00  0.00    -0.208 C  
HETATM   11  H   UNL     1      -8.814  12.712  65.316  1.00  0.00     0.000 HD 
HETATM   12  H   UNL     1     -11.552  12.088  66.339  1.00  0.00     0.000 HD 
HETATM   13  O   UNL     1      -9.263  13.825  68.852  1.00  0.00    -0.390 OA 
HETATM   14  H   UNL     1      -8.593  14.459  68.626  1.00  0.00     0.000 HD 
HETATM   15  C   UNL     1      -8.305  12.300  67.160  1.00  0.00    -0.183 C  
BRANCH   6  16
HETATM   16  O   UNL     1     -11.097   9.897  69.309  1.00  0.00    -0.229 OA 
BRANCH  16  17
HETATM   17  C   UNL     1     -10.918   9.242  70.504  1.00  0.00    -0.265 A  
HETATM   18  C   UNL     1     -12.035   8.595  71.037  1.00  0.00    -0.278 A  
HETATM   19  C   UNL     1     -10.727   7.850  72.920  1.00  0.00    -0.375 A  
HETATM   20  C   UNL     1     -11.944   7.903  72.253  1.00  0.00    -0.387 A  
HETATM   21  C   UNL     1      -9.601   8.459  72.388  1.00  0.00    -0.373 A  
HETATM   22  O   UNL     1     -10.582   7.201  74.110  1.00  0.00    -0.514 OA 
HETATM   23  C   UNL     1      -9.697   9.145  71.177  1.00  0.00    -0.360 A  
HETATM   24  H   UNL     1      -9.749   7.166  74.567  1.00  0.00     0.000 HD 
ENDBRANCH  16  17
ENDBRANCH   6  16
ENDBRANCH   2   4
TORSDOF 3
ENDMDL
MODEL       99
REMARK 921   NORMALIZED FREE ENERGY PREDICTED BY IDOCK:   -4.33 KCAL/MOL
REMARK 922        TOTAL FREE ENERGY PREDICTED BY IDOCK:   -5.53 KCAL/MOL
REMARK 923 INTER-LIGAND FREE ENERGY PREDICTED BY IDOCK:   -4.95 KCAL/MOL
REMARK 924 INTRA-LIGAND FREE ENERGY PREDICTED BY IDOCK:   -0.58 KCAL/MOL
REMARK 927      BINDING AFFINITY PREDICTED BY RF-SCORE:    0.00 PKD
ROOT
HETATM    1  O   UNL     1      -8.802   5.647  69.080  1.00  0.00    -0.106 OA 
HETATM    2  C   UNL     1      -9.971   6.364  68.691  1.00  0.00    -0.146 C  
HETATM    3  H   UNL     1      -8.717   5.565  70.023  1.00  0.00     0.000 HD 
ENDROOT
BRANCH   2   4
HETATM    4  C   UNL     1     -10.109   6.496  67.162  1.00  0.00    -0.170 C  
HETATM    5  O   UNL     1     -10.765   7.718  66.788  1.00  0.00    -0.311 OA 
HETATM    6  C   UNL     1      -9.971   8.898  66.939  1.00  0.00    -0.247 C  
HETATM    7  O   UNL     1      -9.137   5.840  65.051  1.00  0.00    -0.364 OA 
HETATM    8  C   UNL     1      -8.780   8.805  65.958  1.00  0.00    -0.167 C  
HETATM    9  O   UNL     1      -9.261   8.697  64.600  1.00  0.00    -0.385 OA 
HETATM   10  C   UNL     1      -7.929   7.562  66.273  1.00  0.00    -0.109 C  
HETATM   11  H   UNL     1      -8.329   5.713  64.566  1.00  0.00     0.000 HD 
HETATM   12  H   UNL     1      -8.530   8.640  63.997  1.00  0.00     0.000 HD 
HETATM   13  O   UNL     1      -7.136   7.773  67.443  1.00  0.00    -0.081 OA 
HETATM   14  H   UNL     1      -6.610   7.005  67.637  1.00  0.00     0.000 HD 
HETATM   15  C   UNL     1      -8.799   6.289  66.377  1.00  0.00    -0.143 C  
BRANCH   6  16
HETATM   16  O   UNL     1     -10.742  10.078  66.618  1.00  0.00    -0.157 OA 
BRANCH  16  17
HETATM   17  C   UNL     1     -11.083  10.847  67.704  1.00  0.00    -0.313 A  
HETATM   18  C   UNL     1     -11.317  12.203  67.463  1.00  0.00    -0.392 A  
HETATM   19  C   UNL     1     -11.799  12.552  69.799  1.00  0.00    -0.310 A  
HETATM   20  C   UNL     1     -11.669  13.062  68.514  1.00  0.00    -0.377 A  
HETATM   21  C   UNL     1     -11.603  11.203  70.049  1.00  0.00    -0.421 A  
HETATM   22  O   UNL     1     -12.129  13.342  70.861  1.00  0.00    -0.463 OA 
HETATM   23  C   UNL     1     -11.254  10.352  69.000  1.00  0.00    -0.289 A  
HETATM   24  H   UNL     1     -12.218  12.993  71.740  1.00  0.00     0.000 HD 
ENDBRANCH  16  17
ENDBRANCH   6  16
ENDBRANCH   2   4
TORSDOF 3
ENDMDL
MODEL      100
REMARK 921   NORMALIZED FREE ENERGY PREDICTED BY IDOCK:   -4.32 KCAL/MOL
REMARK 922        TOTAL FREE ENERGY PREDICTED BY IDOCK:   -5.52 KCAL/MOL
REMARK 923 INTER-LIGAND FREE ENERGY PREDICTED BY IDOCK:   -5.44 KCAL/MOL
REMARK 924 INTRA-LIGAND FREE ENERGY PREDICTED BY IDOCK:   -0.08 KCAL/MOL
REMARK 927      BINDING AFFINITY PREDICTED BY RF-SCORE:    0.00 PKD
ROOT
HETATM    1  O   UNL     1      -7.756  11.186  66.096  1.00  0.00    -0.270 OA 
HETATM    2  C   UNL     1      -7.892  12.185  67.104  1.00  0.00    -0.160 C  
HETATM    3  H   UNL     1      -7.290  11.497  65.329  1.00  0.00     0.000 HD 
ENDROOT
BRANCH   2   4
HETATM    4  C   UNL     1      -8.647  11.679  68.348  1.00  0.00    -0.156 C  
HETATM    5  O   UNL     1      -9.912  12.340  68.512  1.00  0.00    -0.213 OA 
HETATM    6  C   UNL     1     -10.924  11.939  67.584  1.00  0.00    -0.235 C  
HETATM    7  O   UNL     1      -8.931   9.789  69.824  1.00  0.00    -0.192 OA 
HETATM    8  C   UNL     1     -11.251  10.451  67.844  1.00  0.00    -0.263 C  
HETATM    9  O   UNL     1     -11.716  10.273  69.201  1.00  0.00    -0.461 OA 
HETATM   10  C   UNL     1      -9.993   9.588  67.644  1.00  0.00    -0.180 C  
HETATM   11  H   UNL     1      -9.019   8.844  69.879  1.00  0.00     0.000 HD 
HETATM   12  H   UNL     1     -11.917   9.359  69.360  1.00  0.00     0.000 HD 
HETATM   13  O   UNL     1      -9.700   9.431  66.255  1.00  0.00    -0.220 OA 
HETATM   14  H   UNL     1      -8.923   8.898  66.131  1.00  0.00     0.000 HD 
HETATM   15  C   UNL     1      -8.789  10.146  68.436  1.00  0.00    -0.123 C  
BRANCH   6  16
HETATM   16  O   UNL     1     -12.128  12.716  67.774  1.00  0.00    -0.362 OA 
BRANCH  16  17
HETATM   17  C   UNL     1     -12.011  13.731  68.692  1.00  0.00    -0.366 A  
HETATM   18  C   UNL     1     -11.543  14.957  68.214  1.00  0.00    -0.356 A  
HETATM   19  C   UNL     1     -11.726  15.908  70.422  1.00  0.00    -0.354 A  
HETATM   20  C   UNL     1     -11.392  16.049  69.081  1.00  0.00    -0.352 A  
HETATM   21  C   UNL     1     -12.223  14.708  70.905  1.00  0.00    -0.391 A  
HETATM   22  O   UNL     1     -11.589  16.930  71.313  1.00  0.00    -0.448 OA 
HETATM   23  C   UNL     1     -12.373  13.625  70.038  1.00  0.00    -0.342 A  
HETATM   24  H   UNL     1     -11.817  16.834  72.231  1.00  0.00     0.000 HD 
ENDBRANCH  16  17
ENDBRANCH   6  16
ENDBRANCH   2   4
TORSDOF 3
ENDMDL
MODEL      101
REMARK 921   NORMALIZED FREE ENERGY PREDICTED BY IDOCK:   -4.32 KCAL/MOL
REMARK 922        TOTAL FREE ENERGY PREDICTED BY IDOCK:   -5.52 KCAL/MOL
REMARK 923 INTER-LIGAND FREE ENERGY PREDICTED BY IDOCK:   -4.96 KCAL/MOL
REMARK 924 INTRA-LIGAND FREE ENERGY PREDICTED BY IDOCK:   -0.56 KCAL/MOL
REMARK 927      BINDING AFFINITY PREDICTED BY RF-SCORE:    0.00 PKD
ROOT
HETATM    1  O   UNL     1      -6.744  10.988  65.490  1.00  0.00    -0.366 OA 
HETATM    2  C   UNL     1      -7.218  10.989  66.835  1.00  0.00    -0.133 C  
HETATM    3  H   UNL     1      -6.384  11.827  65.226  1.00  0.00     0.000 HD 
ENDROOT
BRANCH   2   4
HETATM    4  C   UNL     1      -7.800   9.628  67.263  1.00  0.00    -0.095 C  
HETATM    5  O   UNL     1      -8.827   9.775  68.258  1.00  0.00    -0.119 OA 
HETATM    6  C   UNL     1     -10.068  10.288  67.768  1.00  0.00    -0.180 C  
HETATM    7  O   UNL     1      -8.193   7.358  66.539  1.00  0.00    -0.112 OA 
HETATM    8  C   UNL     1     -10.659   9.257  66.779  1.00  0.00    -0.137 C  
HETATM    9  O   UNL     1     -10.868   7.992  67.446  1.00  0.00    -0.491 OA 
HETATM   10  C   UNL     1      -9.690   9.033  65.605  1.00  0.00    -0.108 C  
HETATM   11  H   UNL     1      -8.476   6.803  65.821  1.00  0.00     0.000 HD 
HETATM   12  H   UNL     1     -11.231   7.358  66.839  1.00  0.00     0.000 HD 
HETATM   13  O   UNL     1      -9.727  10.138  64.699  1.00  0.00    -0.297 OA 
HETATM   14  H   UNL     1      -9.129   9.999  63.974  1.00  0.00     0.000 HD 
HETATM   15  C   UNL     1      -8.259   8.728  66.099  1.00  0.00    -0.117 C  
BRANCH   6  16
HETATM   16  O   UNL     1     -11.006  10.477  68.851  1.00  0.00    -0.215 OA 
BRANCH  16  17
HETATM   17  C   UNL     1     -11.395  11.780  69.046  1.00  0.00    -0.278 A  
HETATM   18  C   UNL     1     -11.264  12.644  67.956  1.00  0.00    -0.308 A  
HETATM   19  C   UNL     1     -12.151  14.462  69.267  1.00  0.00    -0.299 A  
HETATM   20  C   UNL     1     -11.636  13.991  68.066  1.00  0.00    -0.372 A  
HETATM   21  C   UNL     1     -12.319  13.611  70.348  1.00  0.00    -0.415 A  
HETATM   22  O   UNL     1     -12.519  15.764  69.436  1.00  0.00    -0.540 OA 
HETATM   23  C   UNL     1     -11.949  12.270  70.233  1.00  0.00    -0.373 A  
HETATM   24  H   UNL     1     -12.872  16.086  70.257  1.00  0.00     0.000 HD 
ENDBRANCH  16  17
ENDBRANCH   6  16
ENDBRANCH   2   4
TORSDOF 3
ENDMDL
MODEL      102
REMARK 921   NORMALIZED FREE ENERGY PREDICTED BY IDOCK:   -4.31 KCAL/MOL
REMARK 922        TOTAL FREE ENERGY PREDICTED BY IDOCK:   -5.52 KCAL/MOL
REMARK 923 INTER-LIGAND FREE ENERGY PREDICTED BY IDOCK:   -5.48 KCAL/MOL
REMARK 924 INTRA-LIGAND FREE ENERGY PREDICTED BY IDOCK:   -0.04 KCAL/MOL
REMARK 927      BINDING AFFINITY PREDICTED BY RF-SCORE:    0.00 PKD
ROOT
HETATM    1  O   UNL     1      -7.001  10.846  67.610  1.00  0.00    -0.079 OA 
HETATM    2  C   UNL     1      -8.280  10.470  68.117  1.00  0.00    -0.114 C  
HETATM    3  H   UNL     1      -6.311  10.769  68.259  1.00  0.00     0.000 HD 
ENDROOT
BRANCH   2   4
HETATM    4  C   UNL     1      -9.398  10.593  67.064  1.00  0.00    -0.155 C  
HETATM    5  O   UNL     1     -10.654  10.956  67.658  1.00  0.00    -0.196 OA 
HETATM    6  C   UNL     1     -10.744  12.317  68.089  1.00  0.00    -0.216 C  
HETATM    7  O   UNL     1      -9.846  11.063  64.738  1.00  0.00    -0.235 OA 
HETATM    8  C   UNL     1     -10.652  13.224  66.840  1.00  0.00    -0.264 C  
HETATM    9  O   UNL     1     -11.726  12.917  65.923  1.00  0.00    -0.356 OA 
HETATM   10  C   UNL     1      -9.314  12.996  66.116  1.00  0.00    -0.080 C  
HETATM   11  H   UNL     1      -9.634  11.619  63.996  1.00  0.00     0.000 HD 
HETATM   12  H   UNL     1     -11.670  13.474  65.156  1.00  0.00     0.000 HD 
HETATM   13  O   UNL     1      -8.241  13.618  66.825  1.00  0.00    -0.409 OA 
HETATM   14  H   UNL     1      -7.414  13.478  66.378  1.00  0.00     0.000 HD 
HETATM   15  C   UNL     1      -9.054  11.494  65.861  1.00  0.00    -0.177 C  
BRANCH   6  16
HETATM   16  O   UNL     1     -12.009  12.563  68.745  1.00  0.00    -0.310 OA 
BRANCH  16  17
HETATM   17  C   UNL     1     -11.986  13.591  69.657  1.00  0.00    -0.337 A  
HETATM   18  C   UNL     1     -11.349  14.768  69.258  1.00  0.00    -0.317 A  
HETATM   19  C   UNL     1     -11.860  15.785  71.384  1.00  0.00    -0.442 A  
HETATM   20  C   UNL     1     -11.277  15.868  70.126  1.00  0.00    -0.368 A  
HETATM   21  C   UNL     1     -12.525  14.636  71.782  1.00  0.00    -0.412 A  
HETATM   22  O   UNL     1     -11.813  16.818  72.273  1.00  0.00    -0.598 OA 
HETATM   23  C   UNL     1     -12.594  13.545  70.914  1.00  0.00    -0.414 A  
HETATM   24  H   UNL     1     -12.211  16.761  73.133  1.00  0.00     0.000 HD 
ENDBRANCH  16  17
ENDBRANCH   6  16
ENDBRANCH   2   4
TORSDOF 3
ENDMDL
MODEL      103
REMARK 921   NORMALIZED FREE ENERGY PREDICTED BY IDOCK:   -4.28 KCAL/MOL
REMARK 922        TOTAL FREE ENERGY PREDICTED BY IDOCK:   -5.47 KCAL/MOL
REMARK 923 INTER-LIGAND FREE ENERGY PREDICTED BY IDOCK:   -5.10 KCAL/MOL
REMARK 924 INTRA-LIGAND FREE ENERGY PREDICTED BY IDOCK:   -0.37 KCAL/MOL
REMARK 927      BINDING AFFINITY PREDICTED BY RF-SCORE:    0.00 PKD
ROOT
HETATM    1  O   UNL     1      -8.677   8.920  72.397  1.00  0.00    -0.400 OA 
HETATM    2  C   UNL     1      -8.909   9.369  71.064  1.00  0.00    -0.023 C  
HETATM    3  H   UNL     1      -8.178   9.542  72.913  1.00  0.00     0.000 HD 
ENDROOT
BRANCH   2   4
HETATM    4  C   UNL     1      -9.721   8.361  70.228  1.00  0.00    -0.172 C  
HETATM    5  O   UNL     1     -10.877   8.970  69.630  1.00  0.00    -0.231 OA 
HETATM    6  C   UNL     1     -10.596   9.840  68.530  1.00  0.00    -0.221 C  
HETATM    7  O   UNL     1      -9.571   6.320  68.945  1.00  0.00    -0.126 OA 
HETATM    8  C   UNL     1      -9.994   8.991  67.387  1.00  0.00    -0.209 C  
HETATM    9  O   UNL     1     -10.928   7.963  66.986  1.00  0.00    -0.465 OA 
HETATM   10  C   UNL     1      -8.696   8.312  67.857  1.00  0.00    -0.135 C  
HETATM   11  H   UNL     1      -9.062   5.831  68.308  1.00  0.00     0.000 HD 
HETATM   12  H   UNL     1     -10.558   7.441  66.284  1.00  0.00     0.000 HD 
HETATM   13  O   UNL     1      -7.623   9.254  67.916  1.00  0.00    -0.084 OA 
HETATM   14  H   UNL     1      -6.821   8.835  68.206  1.00  0.00     0.000 HD 
HETATM   15  C   UNL     1      -8.896   7.567  69.195  1.00  0.00    -0.136 C  
BRANCH   6  16
HETATM   16  O   UNL     1     -11.808  10.465  68.051  1.00  0.00    -0.328 OA 
BRANCH  16  17
HETATM   17  C   UNL     1     -11.797  11.838  68.101  1.00  0.00    -0.254 A  
HETATM   18  C   UNL     1     -11.751  12.419  69.370  1.00  0.00    -0.384 A  
HETATM   19  C   UNL     1     -11.755  14.618  68.383  1.00  0.00    -0.320 A  
HETATM   20  C   UNL     1     -11.738  13.814  69.515  1.00  0.00    -0.380 A  
HETATM   21  C   UNL     1     -11.766  14.058  67.116  1.00  0.00    -0.421 A  
HETATM   22  O   UNL     1     -11.754  15.980  68.462  1.00  0.00    -0.375 OA 
HETATM   23  C   UNL     1     -11.777  12.669  66.977  1.00  0.00    -0.438 A  
HETATM   24  H   UNL     1     -11.766  16.530  67.688  1.00  0.00     0.000 HD 
ENDBRANCH  16  17
ENDBRANCH   6  16
ENDBRANCH   2   4
TORSDOF 3
ENDMDL
MODEL      104
REMARK 921   NORMALIZED FREE ENERGY PREDICTED BY IDOCK:   -4.27 KCAL/MOL
REMARK 922        TOTAL FREE ENERGY PREDICTED BY IDOCK:   -5.46 KCAL/MOL
REMARK 923 INTER-LIGAND FREE ENERGY PREDICTED BY IDOCK:   -5.29 KCAL/MOL
REMARK 924 INTRA-LIGAND FREE ENERGY PREDICTED BY IDOCK:   -0.18 KCAL/MOL
REMARK 927      BINDING AFFINITY PREDICTED BY RF-SCORE:    0.00 PKD
ROOT
HETATM    1  O   UNL     1      -7.690   9.168  71.839  1.00  0.00    -0.339 OA 
HETATM    2  C   UNL     1      -8.547   8.269  72.539  1.00  0.00    -0.208 C  
HETATM    3  H   UNL     1      -6.769   9.000  72.001  1.00  0.00     0.000 HD 
ENDROOT
BRANCH   2   4
HETATM    4  C   UNL     1     -10.040   8.541  72.275  1.00  0.00    -0.316 C  
HETATM    5  O   UNL     1     -10.302   8.781  70.883  1.00  0.00    -0.199 OA 
HETATM    6  C   UNL     1     -10.241   7.618  70.051  1.00  0.00    -0.213 C  
HETATM    7  O   UNL     1     -12.275   8.120  73.088  1.00  0.00    -0.645 OA 
HETATM    8  C   UNL     1     -11.377   6.661  70.479  1.00  0.00    -0.358 C  
HETATM    9  O   UNL     1     -12.658   7.314  70.335  1.00  0.00    -0.572 OA 
HETATM   10  C   UNL     1     -11.202   6.255  71.952  1.00  0.00    -0.283 C  
HETATM   11  H   UNL     1     -12.867   7.470  73.450  1.00  0.00     0.000 HD 
HETATM   12  H   UNL     1     -13.356   6.726  70.597  1.00  0.00     0.000 HD 
HETATM   13  O   UNL     1     -10.148   5.300  72.094  1.00  0.00    -0.178 OA 
HETATM   14  H   UNL     1     -10.040   5.049  73.004  1.00  0.00     0.000 HD 
HETATM   15  C   UNL     1     -11.001   7.487  72.862  1.00  0.00    -0.383 C  
BRANCH   6  16
HETATM   16  O   UNL     1     -10.435   7.972  68.663  1.00  0.00    -0.207 OA 
BRANCH  16  17
HETATM   17  C   UNL     1     -10.244   9.304  68.384  1.00  0.00    -0.202 A  
HETATM   18  C   UNL     1      -8.921   9.747  68.316  1.00  0.00    -0.119 A  
HETATM   19  C   UNL     1      -9.676  11.980  67.812  1.00  0.00    -0.192 A  
HETATM   20  C   UNL     1      -8.633  11.090  68.037  1.00  0.00    -0.134 A  
HETATM   21  C   UNL     1     -10.993  11.550  67.843  1.00  0.00    -0.287 A  
HETATM   22  O   UNL     1      -9.457  13.300  67.547  1.00  0.00    -0.206 OA 
HETATM   23  C   UNL     1     -11.274  10.211  68.120  1.00  0.00    -0.245 A  
HETATM   24  H   UNL     1     -10.170  13.908  67.394  1.00  0.00     0.000 HD 
ENDBRANCH  16  17
ENDBRANCH   6  16
ENDBRANCH   2   4
TORSDOF 3
ENDMDL
MODEL      105
REMARK 921   NORMALIZED FREE ENERGY PREDICTED BY IDOCK:   -4.25 KCAL/MOL
REMARK 922        TOTAL FREE ENERGY PREDICTED BY IDOCK:   -5.44 KCAL/MOL
REMARK 923 INTER-LIGAND FREE ENERGY PREDICTED BY IDOCK:   -4.85 KCAL/MOL
REMARK 924 INTRA-LIGAND FREE ENERGY PREDICTED BY IDOCK:   -0.58 KCAL/MOL
REMARK 927      BINDING AFFINITY PREDICTED BY RF-SCORE:    0.00 PKD
ROOT
HETATM    1  O   UNL     1     -13.392  13.831  65.438  1.00  0.00    -0.669 OA 
HETATM    2  C   UNL     1     -12.522  12.879  66.046  1.00  0.00    -0.101 C  
HETATM    3  H   UNL     1     -13.821  13.493  64.660  1.00  0.00     0.000 HD 
ENDROOT
BRANCH   2   4
HETATM    4  C   UNL     1     -11.827  13.426  67.308  1.00  0.00    -0.376 C  
HETATM    5  O   UNL     1     -10.575  12.768  67.558  1.00  0.00    -0.225 OA 
HETATM    6  C   UNL     1      -9.516  13.135  66.669  1.00  0.00    -0.260 C  
HETATM    7  O   UNL     1     -11.610  15.366  68.730  1.00  0.00    -0.332 OA 
HETATM    8  C   UNL     1      -9.196  14.630  66.892  1.00  0.00    -0.249 C  
HETATM    9  O   UNL     1      -8.799  14.854  68.264  1.00  0.00    -0.161 OA 
HETATM   10  C   UNL     1     -10.440  15.488  66.600  1.00  0.00    -0.299 C  
HETATM   11  H   UNL     1     -11.521  16.312  68.756  1.00  0.00     0.000 HD 
HETATM   12  H   UNL     1      -8.602  15.773  68.401  1.00  0.00     0.000 HD 
HETATM   13  O   UNL     1     -10.662  15.598  65.193  1.00  0.00    -0.397 OA 
HETATM   14  H   UNL     1     -11.429  16.128  65.012  1.00  0.00     0.000 HD 
HETATM   15  C   UNL     1     -11.683  14.961  67.350  1.00  0.00    -0.293 C  
BRANCH   6  16
HETATM   16  O   UNL     1      -8.326  12.362  66.946  1.00  0.00    -0.177 OA 
BRANCH  16  17
HETATM   17  C   UNL     1      -8.437  11.024  66.656  1.00  0.00    -0.153 A  
HETATM   18  C   UNL     1      -8.694  10.689  65.325  1.00  0.00    -0.198 A  
HETATM   19  C   UNL     1      -8.677   8.346  65.892  1.00  0.00    -0.169 A  
HETATM   20  C   UNL     1      -8.823   9.347  64.940  1.00  0.00    -0.240 A  
HETATM   21  C   UNL     1      -8.389   8.660  67.211  1.00  0.00    -0.108 A  
HETATM   22  O   UNL     1      -8.803   7.025  65.578  1.00  0.00    -0.333 OA 
HETATM   23  C   UNL     1      -8.260   9.997  67.588  1.00  0.00    -0.114 A  
HETATM   24  H   UNL     1      -8.704   6.341  66.229  1.00  0.00     0.000 HD 
ENDBRANCH  16  17
ENDBRANCH   6  16
ENDBRANCH   2   4
TORSDOF 3
ENDMDL
MODEL      106
REMARK 921   NORMALIZED FREE ENERGY PREDICTED BY IDOCK:   -4.24 KCAL/MOL
REMARK 922        TOTAL FREE ENERGY PREDICTED BY IDOCK:   -5.43 KCAL/MOL
REMARK 923 INTER-LIGAND FREE ENERGY PREDICTED BY IDOCK:   -4.91 KCAL/MOL
REMARK 924 INTRA-LIGAND FREE ENERGY PREDICTED BY IDOCK:   -0.52 KCAL/MOL
REMARK 927      BINDING AFFINITY PREDICTED BY RF-SCORE:    0.00 PKD
ROOT
HETATM    1  O   UNL     1     -10.572   9.773  70.786  1.00  0.00    -0.304 OA 
HETATM    2  C   UNL     1     -11.166  10.606  69.792  1.00  0.00    -0.297 C  
HETATM    3  H   UNL     1     -10.417  10.230  71.604  1.00  0.00     0.000 HD 
ENDROOT
BRANCH   2   4
HETATM    4  C   UNL     1     -11.418   9.864  68.465  1.00  0.00     0.125 C  
HETATM    5  O   UNL     1     -11.305  10.740  67.333  1.00  0.00    -0.416 OA 
HETATM    6  C   UNL     1      -9.968  11.126  67.003  1.00  0.00    -0.192 C  
HETATM    7  O   UNL     1     -11.305   7.708  67.382  1.00  0.00    -0.383 OA 
HETATM    8  C   UNL     1      -9.196   9.859  66.566  1.00  0.00    -0.155 C  
HETATM    9  O   UNL     1      -9.839   9.254  65.423  1.00  0.00    -0.449 OA 
HETATM   10  C   UNL     1      -9.173   8.832  67.711  1.00  0.00    -0.134 C  
HETATM   11  H   UNL     1     -10.793   6.916  67.266  1.00  0.00     0.000 HD 
HETATM   12  H   UNL     1      -9.365   8.476  65.154  1.00  0.00     0.000 HD 
HETATM   13  O   UNL     1      -8.245   9.223  68.726  1.00  0.00    -0.109 OA 
HETATM   14  H   UNL     1      -8.231   8.588  69.432  1.00  0.00     0.000 HD 
HETATM   15  C   UNL     1     -10.588   8.579  68.277  1.00  0.00    -0.119 C  
BRANCH   6  16
HETATM   16  O   UNL     1      -9.963  12.069  65.907  1.00  0.00    -0.226 OA 
BRANCH  16  17
HETATM   17  C   UNL     1     -10.112  13.381  66.286  1.00  0.00    -0.299 A  
HETATM   18  C   UNL     1     -10.183  14.326  65.259  1.00  0.00    -0.408 A  
HETATM   19  C   UNL     1     -10.428  16.094  66.880  1.00  0.00    -0.300 A  
HETATM   20  C   UNL     1     -10.333  15.688  65.555  1.00  0.00    -0.421 A  
HETATM   21  C   UNL     1     -10.393  15.166  67.908  1.00  0.00    -0.241 A  
HETATM   22  O   UNL     1     -10.564  17.405  67.227  1.00  0.00    -0.339 OA 
HETATM   23  C   UNL     1     -10.244  13.811  67.609  1.00  0.00    -0.242 A  
HETATM   24  H   UNL     1     -10.628  17.683  68.133  1.00  0.00     0.000 HD 
ENDBRANCH  16  17
ENDBRANCH   6  16
ENDBRANCH   2   4
TORSDOF 3
ENDMDL
MODEL      107
REMARK 921   NORMALIZED FREE ENERGY PREDICTED BY IDOCK:   -4.24 KCAL/MOL
REMARK 922        TOTAL FREE ENERGY PREDICTED BY IDOCK:   -5.43 KCAL/MOL
REMARK 923 INTER-LIGAND FREE ENERGY PREDICTED BY IDOCK:   -4.88 KCAL/MOL
REMARK 924 INTRA-LIGAND FREE ENERGY PREDICTED BY IDOCK:   -0.55 KCAL/MOL
REMARK 927      BINDING AFFINITY PREDICTED BY RF-SCORE:    0.00 PKD
ROOT
HETATM    1  O   UNL     1     -12.791  15.171  70.046  1.00  0.00    -0.601 OA 
HETATM    2  C   UNL     1     -11.413  15.168  70.414  1.00  0.00    -0.286 C  
HETATM    3  H   UNL     1     -13.350  14.789  70.713  1.00  0.00     0.000 HD 
ENDROOT
BRANCH   2   4
HETATM    4  C   UNL     1     -10.506  15.788  69.333  1.00  0.00    -0.257 C  
HETATM    5  O   UNL     1      -9.310  15.018  69.134  1.00  0.00    -0.205 OA 
HETATM    6  C   UNL     1      -9.498  13.783  68.439  1.00  0.00    -0.198 C  
HETATM    7  O   UNL     1     -10.495  17.163  67.348  1.00  0.00    -0.335 OA 
HETATM    8  C   UNL     1      -9.971  14.106  67.003  1.00  0.00    -0.260 C  
HETATM    9  O   UNL     1      -8.985  14.915  66.325  1.00  0.00    -0.422 OA 
HETATM   10  C   UNL     1     -11.296  14.886  67.044  1.00  0.00    -0.342 C  
HETATM   11  H   UNL     1     -10.931  17.354  66.525  1.00  0.00     0.000 HD 
HETATM   12  H   UNL     1      -9.275  15.114  65.443  1.00  0.00     0.000 HD 
HETATM   13  O   UNL     1     -12.387  14.019  67.362  1.00  0.00    -0.531 OA 
HETATM   14  H   UNL     1     -13.205  14.501  67.387  1.00  0.00     0.000 HD 
HETATM   15  C   UNL     1     -11.214  16.098  67.999  1.00  0.00    -0.291 C  
BRANCH   6  16
HETATM   16  O   UNL     1      -8.257  13.045  68.361  1.00  0.00    -0.151 OA 
BRANCH  16  17
HETATM   17  C   UNL     1      -8.375  11.791  67.814  1.00  0.00    -0.146 A  
HETATM   18  C   UNL     1      -9.170  10.876  68.508  1.00  0.00    -0.181 A  
HETATM   19  C   UNL     1      -8.732   9.198  66.834  1.00  0.00    -0.123 A  
HETATM   20  C   UNL     1      -9.344   9.572  68.023  1.00  0.00    -0.143 A  
HETATM   21  C   UNL     1      -7.968  10.103  66.115  1.00  0.00    -0.125 A  
HETATM   22  O   UNL     1      -8.858   7.941  66.319  1.00  0.00    -0.144 OA 
HETATM   23  C   UNL     1      -7.798  11.400  66.602  1.00  0.00    -0.137 A  
HETATM   24  H   UNL     1      -8.439   7.685  65.506  1.00  0.00     0.000 HD 
ENDBRANCH  16  17
ENDBRANCH   6  16
ENDBRANCH   2   4
TORSDOF 3
ENDMDL
MODEL      108
REMARK 921   NORMALIZED FREE ENERGY PREDICTED BY IDOCK:   -4.20 KCAL/MOL
REMARK 922        TOTAL FREE ENERGY PREDICTED BY IDOCK:   -5.38 KCAL/MOL
REMARK 923 INTER-LIGAND FREE ENERGY PREDICTED BY IDOCK:   -4.75 KCAL/MOL
REMARK 924 INTRA-LIGAND FREE ENERGY PREDICTED BY IDOCK:   -0.63 KCAL/MOL
REMARK 927      BINDING AFFINITY PREDICTED BY RF-SCORE:    0.00 PKD
ROOT
HETATM    1  O   UNL     1     -11.255   5.045  65.685  1.00  0.00    -0.817 OA 
HETATM    2  C   UNL     1     -11.026   6.093  66.624  1.00  0.00    -0.151 C  
HETATM    3  H   UNL     1     -12.174   4.941  65.467  1.00  0.00     0.000 HD 
ENDROOT
BRANCH   2   4
HETATM    4  C   UNL     1      -9.535   6.262  66.977  1.00  0.00    -0.131 C  
HETATM    5  O   UNL     1      -9.350   6.638  68.351  1.00  0.00    -0.126 OA 
HETATM    6  C   UNL     1      -9.580   5.591  69.297  1.00  0.00    -0.136 C  
HETATM    7  O   UNL     1      -7.300   5.555  66.397  1.00  0.00    -0.076 OA 
HETATM    8  C   UNL     1      -8.514   4.494  69.069  1.00  0.00    -0.079 C  
HETATM    9  O   UNL     1      -7.189   5.045  69.244  1.00  0.00    -0.055 OA 
HETATM   10  C   UNL     1      -8.624   3.936  67.640  1.00  0.00    -0.101 C  
HETATM   11  H   UNL     1      -6.749   4.819  66.157  1.00  0.00     0.000 HD 
HETATM   12  H   UNL     1      -6.534   4.372  69.104  1.00  0.00     0.000 HD 
HETATM   13  O   UNL     1      -9.752   3.067  67.520  1.00  0.00    -0.339 OA 
HETATM   14  H   UNL     1      -9.820   2.722  66.637  1.00  0.00     0.000 HD 
HETATM   15  C   UNL     1      -8.642   5.067  66.588  1.00  0.00    -0.109 C  
BRANCH   6  16
HETATM   16  O   UNL     1      -9.451   6.086  70.649  1.00  0.00    -0.165 OA 
BRANCH  16  17
HETATM   17  C   UNL     1     -10.449   6.946  71.037  1.00  0.00    -0.214 A  
HETATM   18  C   UNL     1     -10.055   8.228  71.428  1.00  0.00    -0.257 A  
HETATM   19  C   UNL     1     -12.352   8.827  71.843  1.00  0.00    -0.363 A  
HETATM   20  C   UNL     1     -11.007   9.171  71.841  1.00  0.00    -0.372 A  
HETATM   21  C   UNL     1     -12.763   7.571  71.426  1.00  0.00    -0.382 A  
HETATM   22  O   UNL     1     -13.321   9.699  72.244  1.00  0.00    -0.456 OA 
HETATM   23  C   UNL     1     -11.812   6.636  71.015  1.00  0.00    -0.427 A  
HETATM   24  H   UNL     1     -14.242   9.463  72.246  1.00  0.00     0.000 HD 
ENDBRANCH  16  17
ENDBRANCH   6  16
ENDBRANCH   2   4
TORSDOF 3
ENDMDL
MODEL      109
REMARK 921   NORMALIZED FREE ENERGY PREDICTED BY IDOCK:   -4.20 KCAL/MOL
REMARK 922        TOTAL FREE ENERGY PREDICTED BY IDOCK:   -5.38 KCAL/MOL
REMARK 923 INTER-LIGAND FREE ENERGY PREDICTED BY IDOCK:   -5.01 KCAL/MOL
REMARK 924 INTRA-LIGAND FREE ENERGY PREDICTED BY IDOCK:   -0.36 KCAL/MOL
REMARK 927      BINDING AFFINITY PREDICTED BY RF-SCORE:    0.00 PKD
ROOT
HETATM    1  O   UNL     1      -6.066   9.779  70.544  1.00  0.00    -0.059 OA 
HETATM    2  C   UNL     1      -6.397  11.080  70.063  1.00  0.00    -0.146 C  
HETATM    3  H   UNL     1      -5.865   9.771  71.473  1.00  0.00     0.000 HD 
ENDROOT
BRANCH   2   4
HETATM    4  C   UNL     1      -6.725  11.093  68.557  1.00  0.00    -0.062 C  
HETATM    5  O   UNL     1      -8.013  10.519  68.285  1.00  0.00    -0.106 OA 
HETATM    6  C   UNL     1      -9.126  11.337  68.657  1.00  0.00    -0.151 C  
HETATM    7  O   UNL     1      -6.290  12.238  66.476  1.00  0.00    -0.458 OA 
HETATM    8  C   UNL     1      -9.099  12.612  67.784  1.00  0.00    -0.192 C  
HETATM    9  O   UNL     1      -9.184  12.259  66.385  1.00  0.00    -0.227 OA 
HETATM   10  C   UNL     1      -7.789  13.384  68.013  1.00  0.00    -0.148 C  
HETATM   11  H   UNL     1      -6.186  13.084  66.054  1.00  0.00     0.000 HD 
HETATM   12  H   UNL     1      -9.168  13.042  65.849  1.00  0.00     0.000 HD 
HETATM   13  O   UNL     1      -7.815  14.069  69.267  1.00  0.00    -0.334 OA 
HETATM   14  H   UNL     1      -7.005  14.546  69.407  1.00  0.00     0.000 HD 
HETATM   15  C   UNL     1      -6.555  12.465  67.873  1.00  0.00    -0.097 C  
BRANCH   6  16
HETATM   16  O   UNL     1     -10.371  10.642  68.422  1.00  0.00    -0.162 OA 
BRANCH  16  17
HETATM   17  C   UNL     1     -11.047  10.284  69.563  1.00  0.00    -0.262 A  
HETATM   18  C   UNL     1     -10.495   9.248  70.319  1.00  0.00    -0.271 A  
HETATM   19  C   UNL     1     -12.287   9.438  71.921  1.00  0.00    -0.375 A  
HETATM   20  C   UNL     1     -11.119   8.816  71.499  1.00  0.00    -0.377 A  
HETATM   21  C   UNL     1     -12.830  10.490  71.199  1.00  0.00    -0.513 A  
HETATM   22  O   UNL     1     -12.943   9.054  73.053  1.00  0.00    -0.650 OA 
HETATM   23  C   UNL     1     -12.204  10.916  70.027  1.00  0.00    -0.422 A  
HETATM   24  H   UNL     1     -13.742   9.479  73.341  1.00  0.00     0.000 HD 
ENDBRANCH  16  17
ENDBRANCH   6  16
ENDBRANCH   2   4
TORSDOF 3
ENDMDL
MODEL      110
REMARK 921   NORMALIZED FREE ENERGY PREDICTED BY IDOCK:   -4.18 KCAL/MOL
REMARK 922        TOTAL FREE ENERGY PREDICTED BY IDOCK:   -5.37 KCAL/MOL
REMARK 923 INTER-LIGAND FREE ENERGY PREDICTED BY IDOCK:   -5.19 KCAL/MOL
REMARK 924 INTRA-LIGAND FREE ENERGY PREDICTED BY IDOCK:   -0.17 KCAL/MOL
REMARK 927      BINDING AFFINITY PREDICTED BY RF-SCORE:    0.00 PKD
ROOT
HETATM    1  O   UNL     1     -10.692   5.522  65.894  1.00  0.00    -0.493 OA 
HETATM    2  C   UNL     1     -10.957   6.291  67.065  1.00  0.00    -0.364 C  
HETATM    3  H   UNL     1     -11.376   5.601  65.239  1.00  0.00     0.000 HD 
ENDROOT
BRANCH   2   4
HETATM    4  C   UNL     1      -9.846   6.164  68.126  1.00  0.00    -0.131 C  
HETATM    5  O   UNL     1      -9.158   7.408  68.330  1.00  0.00    -0.134 OA 
HETATM    6  C   UNL     1      -9.901   8.395  69.051  1.00  0.00    -0.183 C  
HETATM    7  O   UNL     1      -9.147   4.934  70.083  1.00  0.00    -0.102 OA 
HETATM    8  C   UNL     1     -10.139   7.866  70.484  1.00  0.00    -0.192 C  
HETATM    9  O   UNL     1      -8.874   7.616  71.138  1.00  0.00    -0.135 OA 
HETATM   10  C   UNL     1     -10.932   6.549  70.439  1.00  0.00    -0.298 C  
HETATM   11  H   UNL     1      -9.425   4.547  70.905  1.00  0.00     0.000 HD 
HETATM   12  H   UNL     1      -9.020   7.291  72.018  1.00  0.00     0.000 HD 
HETATM   13  O   UNL     1     -12.309   6.795  70.147  1.00  0.00    -0.614 OA 
HETATM   14  H   UNL     1     -12.799   5.981  70.119  1.00  0.00     0.000 HD 
HETATM   15  C   UNL     1     -10.298   5.536  69.459  1.00  0.00    -0.287 C  
BRANCH   6  16
HETATM   16  O   UNL     1      -9.161   9.634  69.133  1.00  0.00    -0.139 OA 
BRANCH  16  17
HETATM   17  C   UNL     1      -9.894  10.755  68.832  1.00  0.00    -0.199 A  
HETATM   18  C   UNL     1     -11.194  10.810  69.340  1.00  0.00    -0.337 A  
HETATM   19  C   UNL     1     -11.519  12.973  68.326  1.00  0.00    -0.312 A  
HETATM   20  C   UNL     1     -12.014  11.917  69.081  1.00  0.00    -0.336 A  
HETATM   21  C   UNL     1     -10.220  12.950  67.844  1.00  0.00    -0.233 A  
HETATM   22  O   UNL     1     -12.273  14.070  68.034  1.00  0.00    -0.510 OA 
HETATM   23  C   UNL     1      -9.407  11.845  68.105  1.00  0.00    -0.191 A  
HETATM   24  H   UNL     1     -11.934  14.792  67.517  1.00  0.00     0.000 HD 
ENDBRANCH  16  17
ENDBRANCH   6  16
ENDBRANCH   2   4
TORSDOF 3
ENDMDL
MODEL      111
REMARK 921   NORMALIZED FREE ENERGY PREDICTED BY IDOCK:   -4.12 KCAL/MOL
REMARK 922        TOTAL FREE ENERGY PREDICTED BY IDOCK:   -5.28 KCAL/MOL
REMARK 923 INTER-LIGAND FREE ENERGY PREDICTED BY IDOCK:   -4.90 KCAL/MOL
REMARK 924 INTRA-LIGAND FREE ENERGY PREDICTED BY IDOCK:   -0.38 KCAL/MOL
REMARK 927      BINDING AFFINITY PREDICTED BY RF-SCORE:    0.00 PKD
ROOT
HETATM    1  O   UNL     1      -7.231   8.100  67.345  1.00  0.00    -0.084 OA 
HETATM    2  C   UNL     1      -8.106   9.124  66.877  1.00  0.00    -0.112 C  
HETATM    3  H   UNL     1      -6.771   8.344  68.140  1.00  0.00     0.000 HD 
ENDROOT
BRANCH   2   4
HETATM    4  C   UNL     1      -8.854   8.728  65.589  1.00  0.00    -0.199 C  
HETATM    5  O   UNL     1      -9.967   9.598  65.328  1.00  0.00    -0.295 OA 
HETATM    6  C   UNL     1      -9.613  10.904  64.865  1.00  0.00    -0.248 C  
HETATM    7  O   UNL     1      -8.606   7.652  63.441  1.00  0.00    -0.362 OA 
HETATM    8  C   UNL     1      -8.930  10.756  63.486  1.00  0.00    -0.185 C  
HETATM    9  O   UNL     1      -9.829  10.120  62.551  1.00  0.00    -0.631 OA 
HETATM   10  C   UNL     1      -7.665   9.889  63.611  1.00  0.00    -0.141 C  
HETATM   11  H   UNL     1      -8.053   7.551  62.676  1.00  0.00     0.000 HD 
HETATM   12  H   UNL     1      -9.410  10.030  61.704  1.00  0.00     0.000 HD 
HETATM   13  O   UNL     1      -6.602  10.626  64.219  1.00  0.00    -0.354 OA 
HETATM   14  H   UNL     1      -5.821  10.090  64.296  1.00  0.00     0.000 HD 
HETATM   15  C   UNL     1      -7.955   8.563  64.348  1.00  0.00    -0.147 C  
BRANCH   6  16
HETATM   16  O   UNL     1     -10.791  11.728  64.711  1.00  0.00    -0.283 OA 
BRANCH  16  17
HETATM   17  C   UNL     1     -10.768  12.893  65.437  1.00  0.00    -0.285 A  
HETATM   18  C   UNL     1     -11.895  13.713  65.343  1.00  0.00    -0.370 A  
HETATM   19  C   UNL     1     -10.894  15.295  66.861  1.00  0.00    -0.317 A  
HETATM   20  C   UNL     1     -11.958  14.922  66.050  1.00  0.00    -0.051 A  
HETATM   21  C   UNL     1      -9.782  14.478  66.992  1.00  0.00    -0.247 A  
HETATM   22  O   UNL     1     -10.894  16.464  67.563  1.00  0.00    -0.315 OA 
HETATM   23  C   UNL     1      -9.726  13.274  66.287  1.00  0.00    -0.274 A  
HETATM   24  H   UNL     1     -10.166  16.719  68.118  1.00  0.00     0.000 HD 
ENDBRANCH  16  17
ENDBRANCH   6  16
ENDBRANCH   2   4
TORSDOF 3
ENDMDL
MODEL      112
REMARK 921   NORMALIZED FREE ENERGY PREDICTED BY IDOCK:   -4.09 KCAL/MOL
REMARK 922        TOTAL FREE ENERGY PREDICTED BY IDOCK:   -5.26 KCAL/MOL
REMARK 923 INTER-LIGAND FREE ENERGY PREDICTED BY IDOCK:   -4.88 KCAL/MOL
REMARK 924 INTRA-LIGAND FREE ENERGY PREDICTED BY IDOCK:   -0.38 KCAL/MOL
REMARK 927      BINDING AFFINITY PREDICTED BY RF-SCORE:    0.00 PKD
ROOT
HETATM    1  O   UNL     1      -7.911  10.604  64.440  1.00  0.00    -0.344 OA 
HETATM    2  C   UNL     1      -8.234  10.825  65.811  1.00  0.00    -0.146 C  
HETATM    3  H   UNL     1      -6.985  10.438  64.302  1.00  0.00     0.000 HD 
ENDROOT
BRANCH   2   4
HETATM    4  C   UNL     1      -9.735  11.094  66.034  1.00  0.00    -0.226 C  
HETATM    5  O   UNL     1     -10.465   9.882  66.278  1.00  0.00    -0.193 OA 
HETATM    6  C   UNL     1     -10.253   9.303  67.569  1.00  0.00    -0.242 C  
HETATM    7  O   UNL     1     -11.332  12.743  66.786  1.00  0.00    -0.282 OA 
HETATM    8  C   UNL     1     -10.802  10.282  68.631  1.00  0.00    -0.234 C  
HETATM    9  O   UNL     1     -12.211  10.516  68.412  1.00  0.00    -0.787 OA 
HETATM   10  C   UNL     1     -10.066  11.630  68.540  1.00  0.00    -0.206 C  
HETATM   11  H   UNL     1     -11.524  13.406  67.439  1.00  0.00     0.000 HD 
HETATM   12  H   UNL     1     -12.548  11.117  69.065  1.00  0.00     0.000 HD 
HETATM   13  O   UNL     1      -8.754  11.531  69.099  1.00  0.00    -0.373 OA 
HETATM   14  H   UNL     1      -8.300  12.364  69.043  1.00  0.00     0.000 HD 
HETATM   15  C   UNL     1     -10.046  12.171  67.093  1.00  0.00    -0.206 C  
BRANCH   6  16
HETATM   16  O   UNL     1     -10.962   8.048  67.688  1.00  0.00    -0.094 OA 
BRANCH  16  17
HETATM   17  C   UNL     1     -10.418   7.172  68.595  1.00  0.00    -0.197 A  
HETATM   18  C   UNL     1      -9.025   7.164  68.702  1.00  0.00    -0.131 A  
HETATM   19  C   UNL     1      -9.147   5.459  70.401  1.00  0.00    -0.141 A  
HETATM   20  C   UNL     1      -8.385   6.301  69.601  1.00  0.00    -0.125 A  
HETATM   21  C   UNL     1     -10.531   5.478  70.332  1.00  0.00    -0.356 A  
HETATM   22  O   UNL     1      -8.578   4.591  71.286  1.00  0.00    -0.107 OA 
HETATM   23  C   UNL     1     -11.164   6.340  69.436  1.00  0.00    -0.489 A  
HETATM   24  H   UNL     1      -9.100   4.015  71.833  1.00  0.00     0.000 HD 
ENDBRANCH  16  17
ENDBRANCH   6  16
ENDBRANCH   2   4
TORSDOF 3
ENDMDL
MODEL      113
REMARK 921   NORMALIZED FREE ENERGY PREDICTED BY IDOCK:   -4.08 KCAL/MOL
REMARK 922        TOTAL FREE ENERGY PREDICTED BY IDOCK:   -5.25 KCAL/MOL
REMARK 923 INTER-LIGAND FREE ENERGY PREDICTED BY IDOCK:   -4.70 KCAL/MOL
REMARK 924 INTRA-LIGAND FREE ENERGY PREDICTED BY IDOCK:   -0.55 KCAL/MOL
REMARK 927      BINDING AFFINITY PREDICTED BY RF-SCORE:    0.00 PKD
ROOT
HETATM    1  O   UNL     1      -8.000  14.826  69.631  1.00  0.00    -0.388 OA 
HETATM    2  C   UNL     1      -7.741  13.778  68.699  1.00  0.00    -0.120 C  
HETATM    3  H   UNL     1      -7.318  14.913  70.287  1.00  0.00     0.000 HD 
ENDROOT
BRANCH   2   4
HETATM    4  C   UNL     1      -8.846  13.638  67.635  1.00  0.00    -0.194 C  
HETATM    5  O   UNL     1      -9.306  12.282  67.517  1.00  0.00    -0.174 OA 
HETATM    6  C   UNL     1     -10.122  11.828  68.599  1.00  0.00    -0.189 C  
HETATM    7  O   UNL     1     -10.619  14.817  66.496  1.00  0.00    -0.288 OA 
HETATM    8  C   UNL     1     -11.426  12.659  68.601  1.00  0.00    -0.308 C  
HETATM    9  O   UNL     1     -12.122  12.494  67.345  1.00  0.00    -0.466 OA 
HETATM   10  C   UNL     1     -11.103  14.151  68.785  1.00  0.00    -0.262 C  
HETATM   11  H   UNL     1     -11.343  15.426  66.592  1.00  0.00     0.000 HD 
HETATM   12  H   UNL     1     -12.923  13.004  67.346  1.00  0.00     0.000 HD 
HETATM   13  O   UNL     1     -10.753  14.431  70.142  1.00  0.00    -0.457 OA 
HETATM   14  H   UNL     1     -10.553  15.353  70.256  1.00  0.00     0.000 HD 
HETATM   15  C   UNL     1     -10.020  14.626  67.791  1.00  0.00    -0.224 C  
BRANCH   6  16
HETATM   16  O   UNL     1     -10.464  10.433  68.431  1.00  0.00    -0.170 OA 
BRANCH  16  17
HETATM   17  C   UNL     1     -10.038   9.616  69.450  1.00  0.00    -0.203 A  
HETATM   18  C   UNL     1      -8.852   8.912  69.234  1.00  0.00    -0.139 A  
HETATM   19  C   UNL     1      -9.022   7.919  71.424  1.00  0.00    -0.136 A  
HETATM   20  C   UNL     1      -8.344   8.054  70.220  1.00  0.00    -0.125 A  
HETATM   21  C   UNL     1     -10.183   8.637  71.667  1.00  0.00    -0.366 A  
HETATM   22  O   UNL     1      -8.582   7.092  72.415  1.00  0.00    -0.120 OA 
HETATM   23  C   UNL     1     -10.683   9.490  70.683  1.00  0.00    -0.375 A  
HETATM   24  H   UNL     1      -9.046   7.000  73.239  1.00  0.00     0.000 HD 
ENDBRANCH  16  17
ENDBRANCH   6  16
ENDBRANCH   2   4
TORSDOF 3
ENDMDL
MODEL      114
REMARK 921   NORMALIZED FREE ENERGY PREDICTED BY IDOCK:   -4.08 KCAL/MOL
REMARK 922        TOTAL FREE ENERGY PREDICTED BY IDOCK:   -5.24 KCAL/MOL
REMARK 923 INTER-LIGAND FREE ENERGY PREDICTED BY IDOCK:   -5.17 KCAL/MOL
REMARK 924 INTRA-LIGAND FREE ENERGY PREDICTED BY IDOCK:   -0.07 KCAL/MOL
REMARK 927      BINDING AFFINITY PREDICTED BY RF-SCORE:    0.00 PKD
ROOT
HETATM    1  O   UNL     1     -11.591  12.422  62.979  1.00  0.00    -0.689 OA 
HETATM    2  C   UNL     1     -11.145  11.357  63.815  1.00  0.00    -0.334 C  
HETATM    3  H   UNL     1     -12.498  12.327  62.714  1.00  0.00     0.000 HD 
ENDROOT
BRANCH   2   4
HETATM    4  C   UNL     1      -9.673  11.512  64.246  1.00  0.00    -0.202 C  
HETATM    5  O   UNL     1      -9.540  12.365  65.394  1.00  0.00    -0.163 OA 
HETATM    6  C   UNL     1      -9.966  11.781  66.628  1.00  0.00    -0.200 C  
HETATM    7  O   UNL     1      -7.509  10.441  64.224  1.00  0.00    -0.278 OA 
HETATM    8  C   UNL     1      -9.033  10.590  66.944  1.00  0.00    -0.140 C  
HETATM    9  O   UNL     1      -7.665  11.044  67.051  1.00  0.00    -0.121 OA 
HETATM   10  C   UNL     1      -9.111   9.542  65.820  1.00  0.00    -0.196 C  
HETATM   11  H   UNL     1      -7.040   9.622  64.338  1.00  0.00     0.000 HD 
HETATM   12  H   UNL     1      -7.092  10.312  67.246  1.00  0.00     0.000 HD 
HETATM   13  O   UNL     1     -10.328   8.797  65.904  1.00  0.00    -0.276 OA 
HETATM   14  H   UNL     1     -10.376   8.150  65.209  1.00  0.00     0.000 HD 
HETATM   15  C   UNL     1      -8.912  10.185  64.429  1.00  0.00    -0.233 C  
BRANCH   6  16
HETATM   16  O   UNL     1      -9.872  12.739  67.707  1.00  0.00    -0.208 OA 
BRANCH  16  17
HETATM   17  C   UNL     1      -9.800  14.049  67.299  1.00  0.00    -0.242 A  
HETATM   18  C   UNL     1      -8.522  14.573  67.093  1.00  0.00    -0.234 A  
HETATM   19  C   UNL     1      -9.476  16.693  66.455  1.00  0.00    -0.266 A  
HETATM   20  C   UNL     1      -8.356  15.902  66.677  1.00  0.00    -0.328 A  
HETATM   21  C   UNL     1     -10.751  16.179  66.622  1.00  0.00    -0.226 A  
HETATM   22  O   UNL     1      -9.375  17.995  66.061  1.00  0.00    -0.505 OA 
HETATM   23  C   UNL     1     -10.911  14.855  67.035  1.00  0.00    -0.327 A  
HETATM   24  H   UNL     1     -10.141  18.536  65.909  1.00  0.00     0.000 HD 
ENDBRANCH  16  17
ENDBRANCH   6  16
ENDBRANCH   2   4
TORSDOF 3
ENDMDL
MODEL      115
REMARK 921   NORMALIZED FREE ENERGY PREDICTED BY IDOCK:   -4.05 KCAL/MOL
REMARK 922        TOTAL FREE ENERGY PREDICTED BY IDOCK:   -5.21 KCAL/MOL
REMARK 923 INTER-LIGAND FREE ENERGY PREDICTED BY IDOCK:   -5.05 KCAL/MOL
REMARK 924 INTRA-LIGAND FREE ENERGY PREDICTED BY IDOCK:   -0.16 KCAL/MOL
REMARK 927      BINDING AFFINITY PREDICTED BY RF-SCORE:    0.00 PKD
ROOT
HETATM    1  O   UNL     1     -10.386   9.350  68.747  1.00  0.00    -0.198 OA 
HETATM    2  C   UNL     1     -10.380   9.497  70.165  1.00  0.00    -0.255 C  
HETATM    3  H   UNL     1      -9.683   9.830  68.325  1.00  0.00     0.000 HD 
ENDROOT
BRANCH   2   4
HETATM    4  C   UNL     1     -11.519   8.718  70.851  1.00  0.00    -0.284 C  
HETATM    5  O   UNL     1     -11.599   7.363  70.380  1.00  0.00    -0.264 OA 
HETATM    6  C   UNL     1     -10.561   6.501  70.854  1.00  0.00    -0.230 C  
HETATM    7  O   UNL     1     -12.859   8.579  72.855  1.00  0.00    -0.656 OA 
HETATM    8  C   UNL     1     -10.709   6.367  72.386  1.00  0.00    -0.226 C  
HETATM    9  O   UNL     1     -12.004   5.817  72.715  1.00  0.00    -0.527 OA 
HETATM   10  C   UNL     1     -10.582   7.747  73.054  1.00  0.00    -0.379 C  
HETATM   11  H   UNL     1     -12.855   8.622  73.805  1.00  0.00     0.000 HD 
HETATM   12  H   UNL     1     -12.095   5.735  73.657  1.00  0.00     0.000 HD 
HETATM   13  O   UNL     1      -9.219   8.176  73.079  1.00  0.00    -0.247 OA 
HETATM   14  H   UNL     1      -9.141   9.028  73.491  1.00  0.00     0.000 HD 
HETATM   15  C   UNL     1     -11.512   8.787  72.391  1.00  0.00    -0.230 C  
BRANCH   6  16
HETATM   16  O   UNL     1     -10.678   5.187  70.262  1.00  0.00    -0.229 OA 
BRANCH  16  17
HETATM   17  C   UNL     1     -10.220   5.101  68.970  1.00  0.00    -0.171 A  
HETATM   18  C   UNL     1      -9.197   4.182  68.726  1.00  0.00    -0.206 A  
HETATM   19  C   UNL     1      -9.181   4.791  66.394  1.00  0.00    -0.135 A  
HETATM   20  C   UNL     1      -8.669   4.030  67.437  1.00  0.00    -0.115 A  
HETATM   21  C   UNL     1     -10.219   5.683  66.612  1.00  0.00    -0.276 A  
HETATM   22  O   UNL     1      -8.700   4.693  65.122  1.00  0.00    -0.129 OA 
HETATM   23  C   UNL     1     -10.742   5.830  67.898  1.00  0.00    -0.295 A  
HETATM   24  H   UNL     1      -9.050   5.214  64.409  1.00  0.00     0.000 HD 
ENDBRANCH  16  17
ENDBRANCH   6  16
ENDBRANCH   2   4
TORSDOF 3
ENDMDL
MODEL      116
REMARK 921   NORMALIZED FREE ENERGY PREDICTED BY IDOCK:   -4.01 KCAL/MOL
REMARK 922        TOTAL FREE ENERGY PREDICTED BY IDOCK:   -5.17 KCAL/MOL
REMARK 923 INTER-LIGAND FREE ENERGY PREDICTED BY IDOCK:   -4.79 KCAL/MOL
REMARK 924 INTRA-LIGAND FREE ENERGY PREDICTED BY IDOCK:   -0.38 KCAL/MOL
REMARK 927      BINDING AFFINITY PREDICTED BY RF-SCORE:    0.00 PKD
ROOT
HETATM    1  O   UNL     1      -8.218   7.182  65.750  1.00  0.00    -0.119 OA 
HETATM    2  C   UNL     1      -8.482   8.343  66.535  1.00  0.00    -0.113 C  
HETATM    3  H   UNL     1      -7.424   6.732  66.015  1.00  0.00     0.000 HD 
ENDROOT
BRANCH   2   4
HETATM    4  C   UNL     1      -9.770   9.072  66.105  1.00  0.00    -0.283 C  
HETATM    5  O   UNL     1     -10.768   9.048  67.139  1.00  0.00    -0.259 OA 
HETATM    6  C   UNL     1     -10.505   9.912  68.248  1.00  0.00    -0.210 C  
HETATM    7  O   UNL     1     -10.646  10.808  64.672  1.00  0.00    -0.328 OA 
HETATM    8  C   UNL     1     -10.537  11.371  67.740  1.00  0.00    -0.195 C  
HETATM    9  O   UNL     1     -11.830  11.671  67.168  1.00  0.00    -0.608 OA 
HETATM   10  C   UNL     1      -9.466  11.579  66.655  1.00  0.00    -0.193 C  
HETATM   11  H   UNL     1     -10.511  11.686  64.334  1.00  0.00     0.000 HD 
HETATM   12  H   UNL     1     -11.850  12.567  66.856  1.00  0.00     0.000 HD 
HETATM   13  O   UNL     1      -8.163  11.658  67.236  1.00  0.00    -0.144 OA 
HETATM   14  H   UNL     1      -7.502  11.786  66.566  1.00  0.00     0.000 HD 
HETATM   15  C   UNL     1      -9.552  10.496  65.556  1.00  0.00    -0.230 C  
BRANCH   6  16
HETATM   16  O   UNL     1     -11.517   9.756  69.268  1.00  0.00    -0.085 OA 
BRANCH  16  17
HETATM   17  C   UNL     1     -11.095   9.089  70.392  1.00  0.00    -0.244 A  
HETATM   18  C   UNL     1     -11.985   9.045  71.467  1.00  0.00    -0.414 A  
HETATM   19  C   UNL     1     -10.400   7.759  72.750  1.00  0.00    -0.313 A  
HETATM   20  C   UNL     1     -11.636   8.385  72.654  1.00  0.00    -0.367 A  
HETATM   21  C   UNL     1      -9.518   7.765  71.680  1.00  0.00    -0.179 A  
HETATM   22  O   UNL     1     -10.002   7.112  73.882  1.00  0.00    -0.301 OA 
HETATM   23  C   UNL     1      -9.871   8.422  70.500  1.00  0.00    -0.204 A  
HETATM   24  H   UNL     1      -9.156   6.684  73.948  1.00  0.00     0.000 HD 
ENDBRANCH  16  17
ENDBRANCH   6  16
ENDBRANCH   2   4
TORSDOF 3
ENDMDL
MODEL      117
REMARK 921   NORMALIZED FREE ENERGY PREDICTED BY IDOCK:   -4.01 KCAL/MOL
REMARK 922        TOTAL FREE ENERGY PREDICTED BY IDOCK:   -5.16 KCAL/MOL
REMARK 923 INTER-LIGAND FREE ENERGY PREDICTED BY IDOCK:   -4.78 KCAL/MOL
REMARK 924 INTRA-LIGAND FREE ENERGY PREDICTED BY IDOCK:   -0.38 KCAL/MOL
REMARK 927      BINDING AFFINITY PREDICTED BY RF-SCORE:    0.00 PKD
ROOT
HETATM    1  O   UNL     1     -12.748   8.315  70.705  1.00  0.00    -0.493 OA 
HETATM    2  C   UNL     1     -11.948   7.180  71.030  1.00  0.00    -0.347 C  
HETATM    3  H   UNL     1     -13.142   8.718  71.470  1.00  0.00     0.000 HD 
ENDROOT
BRANCH   2   4
HETATM    4  C   UNL     1     -11.308   6.527  69.790  1.00  0.00    -0.393 C  
HETATM    5  O   UNL     1     -10.971   7.499  68.787  1.00  0.00    -0.075 OA 
HETATM    6  C   UNL     1      -9.835   8.312  69.096  1.00  0.00    -0.179 C  
HETATM    7  O   UNL     1     -10.026   4.628  69.026  1.00  0.00    -0.175 OA 
HETATM    8  C   UNL     1      -8.591   7.396  69.153  1.00  0.00    -0.136 C  
HETATM    9  O   UNL     1      -8.402   6.733  67.883  1.00  0.00    -0.119 OA 
HETATM   10  C   UNL     1      -8.771   6.322  70.239  1.00  0.00    -0.142 C  
HETATM   11  H   UNL     1      -9.296   4.049  69.214  1.00  0.00     0.000 HD 
HETATM   12  H   UNL     1      -7.637   6.171  67.917  1.00  0.00     0.000 HD 
HETATM   13  O   UNL     1      -8.597   6.884  71.542  1.00  0.00    -0.122 OA 
HETATM   14  H   UNL     1      -8.708   6.220  72.213  1.00  0.00     0.000 HD 
HETATM   15  C   UNL     1     -10.123   5.589  70.095  1.00  0.00    -0.239 C  
BRANCH   6  16
HETATM   16  O   UNL     1      -9.627   9.309  68.071  1.00  0.00    -0.140 OA 
BRANCH  16  17
HETATM   17  C   UNL     1     -10.371  10.453  68.230  1.00  0.00    -0.171 A  
HETATM   18  C   UNL     1     -10.716  11.144  67.067  1.00  0.00    -0.316 A  
HETATM   19  C   UNL     1     -11.895  12.791  68.374  1.00  0.00    -0.310 A  
HETATM   20  C   UNL     1     -11.474  12.322  67.137  1.00  0.00    -0.419 A  
HETATM   21  C   UNL     1     -11.590  12.099  69.535  1.00  0.00    -0.382 A  
HETATM   22  O   UNL     1     -12.625  13.936  68.504  1.00  0.00    -0.330 OA 
HETATM   23  C   UNL     1     -10.837  10.926  69.460  1.00  0.00    -0.286 A  
HETATM   24  H   UNL     1     -12.913  14.257  69.350  1.00  0.00     0.000 HD 
ENDBRANCH  16  17
ENDBRANCH   6  16
ENDBRANCH   2   4
TORSDOF 3
ENDMDL
MODEL      118
REMARK 921   NORMALIZED FREE ENERGY PREDICTED BY IDOCK:   -3.96 KCAL/MOL
REMARK 922        TOTAL FREE ENERGY PREDICTED BY IDOCK:   -5.10 KCAL/MOL
REMARK 923 INTER-LIGAND FREE ENERGY PREDICTED BY IDOCK:   -4.86 KCAL/MOL
REMARK 924 INTRA-LIGAND FREE ENERGY PREDICTED BY IDOCK:   -0.24 KCAL/MOL
REMARK 927      BINDING AFFINITY PREDICTED BY RF-SCORE:    0.00 PKD
ROOT
HETATM    1  O   UNL     1     -12.035  16.201  70.347  1.00  0.00    -0.419 OA 
HETATM    2  C   UNL     1     -11.768  14.889  69.856  1.00  0.00    -0.305 C  
HETATM    3  H   UNL     1     -12.943  16.321  70.600  1.00  0.00     0.000 HD 
ENDROOT
BRANCH   2   4
HETATM    4  C   UNL     1     -10.296  14.694  69.446  1.00  0.00    -0.122 C  
HETATM    5  O   UNL     1     -10.166  13.808  68.322  1.00  0.00    -0.232 OA 
HETATM    6  C   UNL     1     -10.568  14.367  67.068  1.00  0.00    -0.274 C  
HETATM    7  O   UNL     1      -8.112  15.725  69.463  1.00  0.00    -0.234 OA 
HETATM    8  C   UNL     1      -9.609  15.531  66.731  1.00  0.00    -0.235 C  
HETATM    9  O   UNL     1      -8.249  15.048  66.652  1.00  0.00    -0.360 OA 
HETATM   10  C   UNL     1      -9.679  16.610  67.826  1.00  0.00    -0.240 C  
HETATM   11  H   UNL     1      -7.625  16.531  69.332  1.00  0.00     0.000 HD 
HETATM   12  H   UNL     1      -7.660  15.764  66.444  1.00  0.00     0.000 HD 
HETATM   13  O   UNL     1     -10.880  17.375  67.709  1.00  0.00    -0.361 OA 
HETATM   14  H   UNL     1     -10.923  18.041  68.385  1.00  0.00     0.000 HD 
HETATM   15  C   UNL     1      -9.507  16.001  69.235  1.00  0.00    -0.245 C  
BRANCH   6  16
HETATM   16  O   UNL     1     -10.480  13.378  66.017  1.00  0.00    -0.283 OA 
BRANCH  16  17
HETATM   17  C   UNL     1     -10.174  12.111  66.452  1.00  0.00    -0.220 A  
HETATM   18  C   UNL     1     -11.190  11.410  67.107  1.00  0.00    -0.363 A  
HETATM   19  C   UNL     1      -9.725   9.517  67.389  1.00  0.00    -0.157 A  
HETATM   20  C   UNL     1     -10.964  10.112  67.584  1.00  0.00    -0.331 A  
HETATM   21  C   UNL     1      -8.717  10.186  66.712  1.00  0.00    -0.133 A  
HETATM   22  O   UNL     1      -9.445   8.261  67.841  1.00  0.00    -0.143 OA 
HETATM   23  C   UNL     1      -8.947  11.478  66.237  1.00  0.00    -0.199 A  
HETATM   24  H   UNL     1      -8.597   7.854  67.707  1.00  0.00     0.000 HD 
ENDBRANCH  16  17
ENDBRANCH   6  16
ENDBRANCH   2   4
TORSDOF 3
ENDMDL
MODEL      119
REMARK 921   NORMALIZED FREE ENERGY PREDICTED BY IDOCK:   -3.95 KCAL/MOL
REMARK 922        TOTAL FREE ENERGY PREDICTED BY IDOCK:   -5.10 KCAL/MOL
REMARK 923 INTER-LIGAND FREE ENERGY PREDICTED BY IDOCK:   -4.51 KCAL/MOL
REMARK 924 INTRA-LIGAND FREE ENERGY PREDICTED BY IDOCK:   -0.59 KCAL/MOL
REMARK 927      BINDING AFFINITY PREDICTED BY RF-SCORE:    0.00 PKD
ROOT
HETATM    1  O   UNL     1     -10.040   7.587  69.266  1.00  0.00    -0.179 OA 
HETATM    2  C   UNL     1     -10.715   8.552  68.462  1.00  0.00    -0.031 C  
HETATM    3  H   UNL     1     -10.253   7.662  70.188  1.00  0.00     0.000 HD 
ENDROOT
BRANCH   2   4
HETATM    4  C   UNL     1     -10.370   8.430  66.966  1.00  0.00    -0.315 C  
HETATM    5  O   UNL     1     -10.401   9.704  66.304  1.00  0.00    -0.239 OA 
HETATM    6  C   UNL     1      -9.302  10.567  66.611  1.00  0.00    -0.161 C  
HETATM    7  O   UNL     1      -9.171   7.105  65.341  1.00  0.00    -0.360 OA 
HETATM    8  C   UNL     1      -8.009   9.907  66.079  1.00  0.00    -0.114 C  
HETATM    9  O   UNL     1      -8.105   9.706  64.651  1.00  0.00    -0.126 OA 
HETATM   10  C   UNL     1      -7.798   8.538  66.749  1.00  0.00    -0.091 C  
HETATM   11  H   UNL     1      -8.367   6.632  65.156  1.00  0.00     0.000 HD 
HETATM   12  H   UNL     1      -7.310   9.301  64.323  1.00  0.00     0.000 HD 
HETATM   13  O   UNL     1      -7.336   8.697  68.092  1.00  0.00    -0.088 OA 
HETATM   14  H   UNL     1      -7.205   7.851  68.506  1.00  0.00     0.000 HD 
HETATM   15  C   UNL     1      -9.067   7.662  66.666  1.00  0.00    -0.164 C  
BRANCH   6  16
HETATM   16  O   UNL     1      -9.464  11.850  65.965  1.00  0.00    -0.231 OA 
BRANCH  16  17
HETATM   17  C   UNL     1     -10.178  12.768  66.696  1.00  0.00    -0.238 A  
HETATM   18  C   UNL     1     -11.458  13.079  66.231  1.00  0.00    -0.379 A  
HETATM   19  C   UNL     1     -11.773  14.606  68.070  1.00  0.00    -0.342 A  
HETATM   20  C   UNL     1     -12.258  14.007  66.915  1.00  0.00    -0.415 A  
HETATM   21  C   UNL     1     -10.519  14.283  68.563  1.00  0.00    -0.253 A  
HETATM   22  O   UNL     1     -12.501  15.522  68.770  1.00  0.00    -0.555 OA 
HETATM   23  C   UNL     1      -9.728  13.358  67.880  1.00  0.00    -0.226 A  
HETATM   24  H   UNL     1     -12.169  15.932  69.561  1.00  0.00     0.000 HD 
ENDBRANCH  16  17
ENDBRANCH   6  16
ENDBRANCH   2   4
TORSDOF 3
ENDMDL
MODEL      120
REMARK 921   NORMALIZED FREE ENERGY PREDICTED BY IDOCK:   -3.95 KCAL/MOL
REMARK 922        TOTAL FREE ENERGY PREDICTED BY IDOCK:   -5.09 KCAL/MOL
REMARK 923 INTER-LIGAND FREE ENERGY PREDICTED BY IDOCK:   -4.98 KCAL/MOL
REMARK 924 INTRA-LIGAND FREE ENERGY PREDICTED BY IDOCK:   -0.10 KCAL/MOL
REMARK 927      BINDING AFFINITY PREDICTED BY RF-SCORE:    0.00 PKD
ROOT
HETATM    1  O   UNL     1      -5.530  18.217  70.052  1.00  0.00    -0.217 OA 
HETATM    2  C   UNL     1      -6.104  19.500  69.813  1.00  0.00    -0.288 C  
HETATM    3  H   UNL     1      -5.470  18.008  70.977  1.00  0.00     0.000 HD 
ENDROOT
BRANCH   2   4
HETATM    4  C   UNL     1      -6.203  19.838  68.313  1.00  0.00    -0.245 C  
HETATM    5  O   UNL     1      -6.028  18.674  67.489  1.00  0.00    -0.172 OA 
HETATM    6  C   UNL     1      -7.136  17.771  67.483  1.00  0.00    -0.185 C  
HETATM    7  O   UNL     1      -7.160  21.380  66.718  1.00  0.00    -0.767 OA 
HETATM    8  C   UNL     1      -8.343  18.495  66.844  1.00  0.00    -0.263 C  
HETATM    9  O   UNL     1      -8.022  18.902  65.495  1.00  0.00    -0.367 OA 
HETATM   10  C   UNL     1      -8.701  19.749  67.658  1.00  0.00    -0.326 C  
HETATM   11  H   UNL     1      -7.935  21.871  66.472  1.00  0.00     0.000 HD 
HETATM   12  H   UNL     1      -8.763  19.347  65.102  1.00  0.00     0.000 HD 
HETATM   13  O   UNL     1      -9.372  19.394  68.870  1.00  0.00    -0.381 OA 
HETATM   14  H   UNL     1      -9.593  20.169  69.373  1.00  0.00     0.000 HD 
HETATM   15  C   UNL     1      -7.461  20.635  67.914  1.00  0.00    -0.144 C  
BRANCH   6  16
HETATM   16  O   UNL     1      -6.833  16.596  66.696  1.00  0.00    -0.218 OA 
BRANCH  16  17
HETATM   17  C   UNL     1      -7.315  15.421  67.220  1.00  0.00    -0.204 A  
HETATM   18  C   UNL     1      -6.440  14.689  68.026  1.00  0.00    -0.161 A  
HETATM   19  C   UNL     1      -8.137  13.014  68.378  1.00  0.00    -0.131 A  
HETATM   20  C   UNL     1      -6.847  13.477  68.602  1.00  0.00    -0.098 A  
HETATM   21  C   UNL     1      -9.028  13.745  67.608  1.00  0.00    -0.194 A  
HETATM   22  O   UNL     1      -8.585  11.838  68.903  1.00  0.00    -0.356 OA 
HETATM   23  C   UNL     1      -8.618  14.951  67.039  1.00  0.00    -0.265 A  
HETATM   24  H   UNL     1      -9.467  11.521  68.749  1.00  0.00     0.000 HD 
ENDBRANCH  16  17
ENDBRANCH   6  16
ENDBRANCH   2   4
TORSDOF 3
ENDMDL
MODEL      121
REMARK 921   NORMALIZED FREE ENERGY PREDICTED BY IDOCK:   -3.95 KCAL/MOL
REMARK 922        TOTAL FREE ENERGY PREDICTED BY IDOCK:   -5.08 KCAL/MOL
REMARK 923 INTER-LIGAND FREE ENERGY PREDICTED BY IDOCK:   -5.01 KCAL/MOL
REMARK 924 INTRA-LIGAND FREE ENERGY PREDICTED BY IDOCK:   -0.07 KCAL/MOL
REMARK 927      BINDING AFFINITY PREDICTED BY RF-SCORE:    0.00 PKD
ROOT
HETATM    1  O   UNL     1     -11.979  12.125  65.969  1.00  0.00    -0.578 OA 
HETATM    2  C   UNL     1     -11.133  11.147  66.569  1.00  0.00    -0.167 C  
HETATM    3  H   UNL     1     -12.295  11.863  65.112  1.00  0.00     0.000 HD 
ENDROOT
BRANCH   2   4
HETATM    4  C   UNL     1     -10.621  11.573  67.958  1.00  0.00    -0.190 C  
HETATM    5  O   UNL     1     -10.201  10.444  68.742  1.00  0.00    -0.169 OA 
HETATM    6  C   UNL     1      -8.963   9.856  68.333  1.00  0.00    -0.120 C  
HETATM    7  O   UNL     1      -9.611  13.384  69.196  1.00  0.00    -0.372 OA 
HETATM    8  C   UNL     1      -7.840  10.896  68.553  1.00  0.00    -0.126 C  
HETATM    9  O   UNL     1      -7.779  11.273  69.947  1.00  0.00    -0.272 OA 
HETATM   10  C   UNL     1      -8.116  12.159  67.720  1.00  0.00    -0.152 C  
HETATM   11  H   UNL     1      -8.952  14.069  69.184  1.00  0.00     0.000 HD 
HETATM   12  H   UNL     1      -7.089  11.912  70.083  1.00  0.00     0.000 HD 
HETATM   13  O   UNL     1      -7.829  11.928  66.339  1.00  0.00    -0.376 OA 
HETATM   14  H   UNL     1      -7.999  12.709  65.824  1.00  0.00     0.000 HD 
HETATM   15  C   UNL     1      -9.552  12.684  67.939  1.00  0.00    -0.211 C  
BRANCH   6  16
HETATM   16  O   UNL     1      -8.668   8.684  69.125  1.00  0.00    -0.134 OA 
BRANCH  16  17
HETATM   17  C   UNL     1      -9.637   8.359  70.043  1.00  0.00    -0.168 A  
HETATM   18  C   UNL     1     -10.655   7.509  69.605  1.00  0.00    -0.243 A  
HETATM   19  C   UNL     1     -11.681   7.586  71.785  1.00  0.00    -0.284 A  
HETATM   20  C   UNL     1     -11.686   7.126  70.475  1.00  0.00    -0.314 A  
HETATM   21  C   UNL     1     -10.659   8.402  72.245  1.00  0.00    -0.412 A  
HETATM   22  O   UNL     1     -12.662   7.255  72.672  1.00  0.00    -0.388 OA 
HETATM   23  C   UNL     1      -9.635   8.780  71.376  1.00  0.00    -0.337 A  
HETATM   24  H   UNL     1     -12.658   7.570  73.569  1.00  0.00     0.000 HD 
ENDBRANCH  16  17
ENDBRANCH   6  16
ENDBRANCH   2   4
TORSDOF 3
ENDMDL
MODEL      122
REMARK 921   NORMALIZED FREE ENERGY PREDICTED BY IDOCK:   -3.93 KCAL/MOL
REMARK 922        TOTAL FREE ENERGY PREDICTED BY IDOCK:   -5.07 KCAL/MOL
REMARK 923 INTER-LIGAND FREE ENERGY PREDICTED BY IDOCK:   -4.84 KCAL/MOL
REMARK 924 INTRA-LIGAND FREE ENERGY PREDICTED BY IDOCK:   -0.23 KCAL/MOL
REMARK 927      BINDING AFFINITY PREDICTED BY RF-SCORE:    0.00 PKD
ROOT
HETATM    1  O   UNL     1      -8.501  13.030  68.694  1.00  0.00    -0.325 OA 
HETATM    2  C   UNL     1      -8.692  11.843  67.929  1.00  0.00    -0.167 C  
HETATM    3  H   UNL     1      -8.655  13.821  68.191  1.00  0.00     0.000 HD 
ENDROOT
BRANCH   2   4
HETATM    4  C   UNL     1      -8.443  10.560  68.746  1.00  0.00    -0.141 C  
HETATM    5  O   UNL     1      -9.469  10.344  69.728  1.00  0.00    -0.154 OA 
HETATM    6  C   UNL     1     -10.724   9.909  69.199  1.00  0.00    -0.224 C  
HETATM    7  O   UNL     1      -7.406   8.380  68.690  1.00  0.00    -0.085 OA 
HETATM    8  C   UNL     1     -10.521   8.513  68.567  1.00  0.00    -0.167 C  
HETATM    9  O   UNL     1     -10.047   7.580  69.563  1.00  0.00    -0.181 OA 
HETATM   10  C   UNL     1      -9.480   8.589  67.437  1.00  0.00    -0.150 C  
HETATM   11  H   UNL     1      -7.249   7.601  68.169  1.00  0.00     0.000 HD 
HETATM   12  H   UNL     1      -9.922   6.722  69.174  1.00  0.00     0.000 HD 
HETATM   13  O   UNL     1     -10.041   9.195  66.270  1.00  0.00    -0.286 OA 
HETATM   14  H   UNL     1      -9.398   9.242  65.572  1.00  0.00     0.000 HD 
HETATM   15  C   UNL     1      -8.188   9.297  67.901  1.00  0.00    -0.115 C  
BRANCH   6  16
HETATM   16  O   UNL     1     -11.711   9.799  70.250  1.00  0.00    -0.251 OA 
BRANCH  16  17
HETATM   17  C   UNL     1     -12.191  11.003  70.707  1.00  0.00    -0.380 A  
HETATM   18  C   UNL     1     -13.047  10.959  71.809  1.00  0.00    -0.564 A  
HETATM   19  C   UNL     1     -13.247  13.361  71.772  1.00  0.00    -0.407 A  
HETATM   20  C   UNL     1     -13.585  12.140  72.341  1.00  0.00    -0.087 A  
HETATM   21  C   UNL     1     -12.372  13.425  70.699  1.00  0.00    -0.423 A  
HETATM   22  O   UNL     1     -13.747  14.540  72.240  1.00  0.00    -0.383 OA 
HETATM   23  C   UNL     1     -11.839  12.247  70.174  1.00  0.00    -0.352 A  
HETATM   24  H   UNL     1     -13.516  15.376  71.851  1.00  0.00     0.000 HD 
ENDBRANCH  16  17
ENDBRANCH   6  16
ENDBRANCH   2   4
TORSDOF 3
ENDMDL
MODEL      123
REMARK 921   NORMALIZED FREE ENERGY PREDICTED BY IDOCK:   -3.91 KCAL/MOL
REMARK 922        TOTAL FREE ENERGY PREDICTED BY IDOCK:   -5.04 KCAL/MOL
REMARK 923 INTER-LIGAND FREE ENERGY PREDICTED BY IDOCK:   -4.45 KCAL/MOL
REMARK 924 INTRA-LIGAND FREE ENERGY PREDICTED BY IDOCK:   -0.59 KCAL/MOL
REMARK 927      BINDING AFFINITY PREDICTED BY RF-SCORE:    0.00 PKD
ROOT
HETATM    1  O   UNL     1      -7.480  10.608  67.827  1.00  0.00    -0.089 OA 
HETATM    2  C   UNL     1      -7.666   9.583  68.801  1.00  0.00    -0.080 C  
HETATM    3  H   UNL     1      -7.506  11.480  68.202  1.00  0.00     0.000 HD 
ENDROOT
BRANCH   2   4
HETATM    4  C   UNL     1      -7.623   8.168  68.193  1.00  0.00    -0.105 C  
HETATM    5  O   UNL     1      -8.539   7.276  68.848  1.00  0.00    -0.128 OA 
HETATM    6  C   UNL     1      -9.918   7.498  68.539  1.00  0.00    -0.168 C  
HETATM    7  O   UNL     1      -7.139   6.921  66.182  1.00  0.00    -0.069 OA 
HETATM    8  C   UNL     1     -10.128   7.202  67.037  1.00  0.00    -0.238 C  
HETATM    9  O   UNL     1      -9.763   5.835  66.743  1.00  0.00    -0.138 OA 
HETATM   10  C   UNL     1      -9.248   8.134  66.185  1.00  0.00    -0.173 C  
HETATM   11  H   UNL     1      -7.236   6.892  65.236  1.00  0.00     0.000 HD 
HETATM   12  H   UNL     1      -9.892   5.653  65.820  1.00  0.00     0.000 HD 
HETATM   13  O   UNL     1      -9.794   9.454  66.149  1.00  0.00    -0.250 OA 
HETATM   14  H   UNL     1      -9.251  10.029  65.622  1.00  0.00     0.000 HD 
HETATM   15  C   UNL     1      -7.779   8.120  66.660  1.00  0.00    -0.094 C  
BRANCH   6  16
HETATM   16  O   UNL     1     -10.763   6.611  69.306  1.00  0.00    -0.224 OA 
BRANCH  16  17
HETATM   17  C   UNL     1     -11.519   7.236  70.268  1.00  0.00    -0.210 A  
HETATM   18  C   UNL     1     -11.021   8.439  70.774  1.00  0.00    -0.276 A  
HETATM   19  C   UNL     1     -12.939   8.645  72.220  1.00  0.00    -0.381 A  
HETATM   20  C   UNL     1     -11.728   9.144  71.758  1.00  0.00    -0.456 A  
HETATM   21  C   UNL     1     -13.463   7.470  71.704  1.00  0.00    -0.429 A  
HETATM   22  O   UNL     1     -13.664   9.281  73.183  1.00  0.00    -0.905 OA 
HETATM   23  C   UNL     1     -12.757   6.773  70.723  1.00  0.00    -0.039 A  
HETATM   24  H   UNL     1     -14.493   8.940  73.499  1.00  0.00     0.000 HD 
ENDBRANCH  16  17
ENDBRANCH   6  16
ENDBRANCH   2   4
TORSDOF 3
ENDMDL
MODEL      124
REMARK 921   NORMALIZED FREE ENERGY PREDICTED BY IDOCK:   -3.90 KCAL/MOL
REMARK 922        TOTAL FREE ENERGY PREDICTED BY IDOCK:   -5.03 KCAL/MOL
REMARK 923 INTER-LIGAND FREE ENERGY PREDICTED BY IDOCK:   -4.46 KCAL/MOL
REMARK 924 INTRA-LIGAND FREE ENERGY PREDICTED BY IDOCK:   -0.57 KCAL/MOL
REMARK 927      BINDING AFFINITY PREDICTED BY RF-SCORE:    0.00 PKD
ROOT
HETATM    1  O   UNL     1     -13.653   8.485  71.189  1.00  0.00    -0.548 OA 
HETATM    2  C   UNL     1     -13.317   7.109  71.020  1.00  0.00    -0.044 C  
HETATM    3  H   UNL     1     -14.392   8.751  70.655  1.00  0.00     0.000 HD 
ENDROOT
BRANCH   2   4
HETATM    4  C   UNL     1     -12.118   6.677  71.887  1.00  0.00    -0.340 C  
HETATM    5  O   UNL     1     -11.120   5.992  71.114  1.00  0.00    -0.277 OA 
HETATM    6  C   UNL     1     -10.348   6.830  70.250  1.00  0.00    -0.198 C  
HETATM    7  O   UNL     1     -10.865   7.198  73.884  1.00  0.00    -0.510 OA 
HETATM    8  C   UNL     1      -9.529   7.803  71.129  1.00  0.00    -0.154 C  
HETATM    9  O   UNL     1      -8.660   7.061  72.014  1.00  0.00    -0.119 OA 
HETATM   10  C   UNL     1     -10.472   8.666  71.985  1.00  0.00    -0.352 C  
HETATM   11  H   UNL     1     -10.486   7.892  74.412  1.00  0.00     0.000 HD 
HETATM   12  H   UNL     1      -8.156   7.659  72.554  1.00  0.00     0.000 HD 
HETATM   13  O   UNL     1     -11.093   9.679  71.191  1.00  0.00    -0.332 OA 
HETATM   14  H   UNL     1     -11.675  10.213  71.719  1.00  0.00     0.000 HD 
HETATM   15  C   UNL     1     -11.504   7.802  72.743  1.00  0.00    -0.359 C  
BRANCH   6  16
HETATM   16  O   UNL     1      -9.432   6.042  69.457  1.00  0.00    -0.137 OA 
BRANCH  16  17
HETATM   17  C   UNL     1      -9.056   6.627  68.272  1.00  0.00    -0.123 A  
HETATM   18  C   UNL     1     -10.038   7.350  67.591  1.00  0.00    -0.240 A  
HETATM   19  C   UNL     1      -8.459   7.892  65.853  1.00  0.00    -0.138 A  
HETATM   20  C   UNL     1      -9.743   7.979  66.374  1.00  0.00    -0.255 A  
HETATM   21  C   UNL     1      -7.464   7.207  66.533  1.00  0.00    -0.088 A  
HETATM   22  O   UNL     1      -8.117   8.474  64.668  1.00  0.00    -0.138 OA 
HETATM   23  C   UNL     1      -7.763   6.584  67.745  1.00  0.00    -0.107 A  
HETATM   24  H   UNL     1      -7.238   8.414  64.312  1.00  0.00     0.000 HD 
ENDBRANCH  16  17
ENDBRANCH   6  16
ENDBRANCH   2   4
TORSDOF 3
ENDMDL
MODEL      125
REMARK 921   NORMALIZED FREE ENERGY PREDICTED BY IDOCK:   -3.86 KCAL/MOL
REMARK 922        TOTAL FREE ENERGY PREDICTED BY IDOCK:   -4.98 KCAL/MOL
REMARK 923 INTER-LIGAND FREE ENERGY PREDICTED BY IDOCK:   -4.62 KCAL/MOL
REMARK 924 INTRA-LIGAND FREE ENERGY PREDICTED BY IDOCK:   -0.36 KCAL/MOL
REMARK 927      BINDING AFFINITY PREDICTED BY RF-SCORE:    0.00 PKD
ROOT
HETATM    1  O   UNL     1      -7.268  11.077  68.464  1.00  0.00    -0.075 OA 
HETATM    2  C   UNL     1      -7.919  12.345  68.432  1.00  0.00    -0.149 C  
HETATM    3  H   UNL     1      -6.733  10.958  69.240  1.00  0.00     0.000 HD 
ENDROOT
BRANCH   2   4
HETATM    4  C   UNL     1      -8.788  12.538  67.174  1.00  0.00    -0.202 C  
HETATM    5  O   UNL     1      -9.407  11.311  66.759  1.00  0.00    -0.171 OA 
HETATM    6  C   UNL     1     -10.488  10.873  67.586  1.00  0.00    -0.209 C  
HETATM    7  O   UNL     1     -10.091  14.146  65.930  1.00  0.00    -0.297 OA 
HETATM    8  C   UNL     1     -11.627  11.914  67.479  1.00  0.00    -0.304 C  
HETATM    9  O   UNL     1     -12.063  12.035  66.107  1.00  0.00    -0.582 OA 
HETATM   10  C   UNL     1     -11.133  13.291  67.955  1.00  0.00    -0.256 C  
HETATM   11  H   UNL     1     -10.721  14.856  65.987  1.00  0.00     0.000 HD 
HETATM   12  H   UNL     1     -12.763  12.674  66.041  1.00  0.00     0.000 HD 
HETATM   13  O   UNL     1     -11.035  13.330  69.381  1.00  0.00    -0.424 OA 
HETATM   14  H   UNL     1     -10.730  14.181  69.675  1.00  0.00     0.000 HD 
HETATM   15  C   UNL     1      -9.809  13.690  67.267  1.00  0.00    -0.241 C  
BRANCH   6  16
HETATM   16  O   UNL     1     -10.990   9.594  67.137  1.00  0.00    -0.190 OA 
BRANCH  16  17
HETATM   17  C   UNL     1     -10.769   8.558  68.012  1.00  0.00    -0.059 A  
HETATM   18  C   UNL     1     -10.573   8.900  69.352  1.00  0.00    -0.226 A  
HETATM   19  C   UNL     1     -10.320   6.573  69.927  1.00  0.00    -0.191 A  
HETATM   20  C   UNL     1     -10.340   7.906  70.314  1.00  0.00    -0.212 A  
HETATM   21  C   UNL     1     -10.545   6.214  68.607  1.00  0.00    -0.324 A  
HETATM   22  O   UNL     1     -10.087   5.565  70.816  1.00  0.00    -0.189 OA 
HETATM   23  C   UNL     1     -10.778   7.207  67.655  1.00  0.00    -0.314 A  
HETATM   24  H   UNL     1     -10.073   4.652  70.551  1.00  0.00     0.000 HD 
ENDBRANCH  16  17
ENDBRANCH   6  16
ENDBRANCH   2   4
TORSDOF 3
ENDMDL
MODEL      126
REMARK 921   NORMALIZED FREE ENERGY PREDICTED BY IDOCK:   -3.85 KCAL/MOL
REMARK 922        TOTAL FREE ENERGY PREDICTED BY IDOCK:   -4.97 KCAL/MOL
REMARK 923 INTER-LIGAND FREE ENERGY PREDICTED BY IDOCK:   -5.59 KCAL/MOL
REMARK 924 INTRA-LIGAND FREE ENERGY PREDICTED BY IDOCK:    0.62 KCAL/MOL
REMARK 927      BINDING AFFINITY PREDICTED BY RF-SCORE:    0.00 PKD
ROOT
HETATM    1  O   UNL     1     -11.490  16.469  71.307  1.00  0.00    -0.554 OA 
HETATM    2  C   UNL     1     -11.499  15.952  69.978  1.00  0.00    -0.354 C  
HETATM    3  H   UNL     1     -11.014  17.288  71.380  1.00  0.00     0.000 HD 
ENDROOT
BRANCH   2   4
HETATM    4  C   UNL     1     -12.273  14.625  69.860  1.00  0.00    -0.316 C  
HETATM    5  O   UNL     1     -12.890  14.479  68.570  1.00  0.00     0.512 OA 
HETATM    6  C   UNL     1     -11.985  14.187  67.502  1.00  0.00    -0.384 C  
HETATM    7  O   UNL     1     -12.394  12.356  70.679  1.00  0.00    -0.351 OA 
HETATM    8  C   UNL     1     -11.357  12.800  67.769  1.00  0.00    -0.294 C  
HETATM    9  O   UNL     1     -12.390  11.792  67.840  1.00  0.00    -0.399 OA 
HETATM   10  C   UNL     1     -10.595  12.811  69.105  1.00  0.00     0.054 C  
HETATM   11  H   UNL     1     -11.897  11.583  70.920  1.00  0.00     0.000 HD 
HETATM   12  H   UNL     1     -12.004  10.939  68.003  1.00  0.00     0.000 HD 
HETATM   13  O   UNL     1      -9.354  13.508  68.977  1.00  0.00    -0.389 OA 
HETATM   14  H   UNL     1      -8.884  13.514  69.802  1.00  0.00     0.000 HD 
HETATM   15  C   UNL     1     -11.466  13.371  70.251  1.00  0.00     0.090 C  
BRANCH   6  16
HETATM   16  O   UNL     1     -12.685  14.141  66.238  1.00  0.00    -0.401 OA 
BRANCH  16  17
HETATM   17  C   UNL     1     -12.060  13.395  65.268  1.00  0.00    -0.413 A  
HETATM   18  C   UNL     1     -10.679  13.563  65.141  1.00  0.00    -0.349 A  
HETATM   19  C   UNL     1     -10.629  11.944  63.355  1.00  0.00    -0.430 A  
HETATM   20  C   UNL     1      -9.960  12.842  64.177  1.00  0.00    -0.152 A  
HETATM   21  C   UNL     1     -11.993  11.741  63.491  1.00  0.00    -0.484 A  
HETATM   22  O   UNL     1      -9.984  11.224  62.393  1.00  0.00    -0.543 OA 
HETATM   23  C   UNL     1     -12.704  12.460  64.453  1.00  0.00    -0.434 A  
HETATM   24  H   UNL     1     -10.442  10.610  61.831  1.00  0.00     0.000 HD 
ENDBRANCH  16  17
ENDBRANCH   6  16
ENDBRANCH   2   4
TORSDOF 3
ENDMDL
MODEL      127
REMARK 921   NORMALIZED FREE ENERGY PREDICTED BY IDOCK:   -3.84 KCAL/MOL
REMARK 922        TOTAL FREE ENERGY PREDICTED BY IDOCK:   -4.96 KCAL/MOL
REMARK 923 INTER-LIGAND FREE ENERGY PREDICTED BY IDOCK:   -4.53 KCAL/MOL
REMARK 924 INTRA-LIGAND FREE ENERGY PREDICTED BY IDOCK:   -0.43 KCAL/MOL
REMARK 927      BINDING AFFINITY PREDICTED BY RF-SCORE:    0.00 PKD
ROOT
HETATM    1  O   UNL     1      -9.241   3.738  71.278  1.00  0.00    -0.109 OA 
HETATM    2  C   UNL     1     -10.378   4.596  71.217  1.00  0.00    -0.078 C  
HETATM    3  H   UNL     1      -9.341   2.955  70.749  1.00  0.00     0.000 HD 
ENDROOT
BRANCH   2   4
HETATM    4  C   UNL     1     -10.214   5.865  72.075  1.00  0.00    -0.197 C  
HETATM    5  O   UNL     1      -9.266   6.779  71.502  1.00  0.00    -0.149 OA 
HETATM    6  C   UNL     1      -9.729   7.477  70.342  1.00  0.00    -0.179 C  
HETATM    7  O   UNL     1     -11.327   7.305  73.663  1.00  0.00    -0.542 OA 
HETATM    8  C   UNL     1     -10.906   8.385  70.765  1.00  0.00    -0.224 C  
HETATM    9  O   UNL     1     -10.472   9.324  71.774  1.00  0.00    -0.337 OA 
HETATM   10  C   UNL     1     -12.047   7.536  71.351  1.00  0.00    -0.327 C  
HETATM   11  H   UNL     1     -12.142   7.739  73.889  1.00  0.00     0.000 HD 
HETATM   12  H   UNL     1     -11.195   9.883  72.034  1.00  0.00     0.000 HD 
HETATM   13  O   UNL     1     -12.757   6.855  70.314  1.00  0.00    -0.539 OA 
HETATM   14  H   UNL     1     -13.462   6.331  70.675  1.00  0.00     0.000 HD 
HETATM   15  C   UNL     1     -11.535   6.570  72.442  1.00  0.00    -0.271 C  
BRANCH   6  16
HETATM   16  O   UNL     1      -8.681   8.306  69.793  1.00  0.00    -0.131 OA 
BRANCH  16  17
HETATM   17  C   UNL     1      -8.899   8.717  68.500  1.00  0.00    -0.142 A  
HETATM   18  C   UNL     1      -9.222   7.724  67.572  1.00  0.00    -0.147 A  
HETATM   19  C   UNL     1      -9.389   9.380  65.830  1.00  0.00    -0.239 A  
HETATM   20  C   UNL     1      -9.460   8.053  66.231  1.00  0.00    -0.241 A  
HETATM   21  C   UNL     1      -9.104  10.382  66.744  1.00  0.00    -0.161 A  
HETATM   22  O   UNL     1      -9.601   9.758  64.537  1.00  0.00    -0.393 OA 
HETATM   23  C   UNL     1      -8.868  10.049  68.079  1.00  0.00    -0.125 A  
HETATM   24  H   UNL     1      -9.552  10.667  64.262  1.00  0.00     0.000 HD 
ENDBRANCH  16  17
ENDBRANCH   6  16
ENDBRANCH   2   4
TORSDOF 3
ENDMDL
MODEL      128
REMARK 921   NORMALIZED FREE ENERGY PREDICTED BY IDOCK:   -3.78 KCAL/MOL
REMARK 922        TOTAL FREE ENERGY PREDICTED BY IDOCK:   -4.89 KCAL/MOL
REMARK 923 INTER-LIGAND FREE ENERGY PREDICTED BY IDOCK:   -4.49 KCAL/MOL
REMARK 924 INTRA-LIGAND FREE ENERGY PREDICTED BY IDOCK:   -0.40 KCAL/MOL
REMARK 927      BINDING AFFINITY PREDICTED BY RF-SCORE:    0.00 PKD
ROOT
HETATM    1  O   UNL     1     -10.450   4.813  70.039  1.00  0.00    -0.194 OA 
HETATM    2  C   UNL     1     -10.890   5.889  69.214  1.00  0.00    -0.344 C  
HETATM    3  H   UNL     1     -10.521   5.008  70.967  1.00  0.00     0.000 HD 
ENDROOT
BRANCH   2   4
HETATM    4  C   UNL     1     -10.775   5.572  67.710  1.00  0.00    -0.102 C  
HETATM    5  O   UNL     1     -10.888   6.756  66.904  1.00  0.00    -0.348 OA 
HETATM    6  C   UNL     1      -9.744   7.614  66.934  1.00  0.00    -0.213 C  
HETATM    7  O   UNL     1      -9.852   4.020  66.107  1.00  0.00    -0.258 OA 
HETATM    8  C   UNL     1      -8.555   6.852  66.305  1.00  0.00    -0.136 C  
HETATM    9  O   UNL     1      -8.867   6.481  64.943  1.00  0.00    -0.356 OA 
HETATM   10  C   UNL     1      -8.264   5.570  67.104  1.00  0.00    -0.101 C  
HETATM   11  H   UNL     1      -9.092   3.502  65.867  1.00  0.00     0.000 HD 
HETATM   12  H   UNL     1      -8.136   6.013  64.557  1.00  0.00     0.000 HD 
HETATM   13  O   UNL     1      -7.603   5.877  68.333  1.00  0.00    -0.087 OA 
HETATM   14  H   UNL     1      -7.423   5.086  68.827  1.00  0.00     0.000 HD 
HETATM   15  C   UNL     1      -9.543   4.732  67.320  1.00  0.00    -0.163 C  
BRANCH   6  16
HETATM   16  O   UNL     1      -9.983   8.813  66.162  1.00  0.00    -0.275 OA 
BRANCH  16  17
HETATM   17  C   UNL     1     -10.227   9.935  66.916  1.00  0.00    -0.240 A  
HETATM   18  C   UNL     1     -10.520   9.732  68.266  1.00  0.00    -0.255 A  
HETATM   19  C   UNL     1     -10.734  12.110  68.596  1.00  0.00    -0.233 A  
HETATM   20  C   UNL     1     -10.783  10.821  69.109  1.00  0.00    -0.265 A  
HETATM   21  C   UNL     1     -10.411  12.331  67.266  1.00  0.00    -0.228 A  
HETATM   22  O   UNL     1     -10.990  13.206  69.365  1.00  0.00    -0.429 OA 
HETATM   23  C   UNL     1     -10.149  11.244  66.431  1.00  0.00    -0.260 A  
HETATM   24  H   UNL     1     -10.957  14.089  69.014  1.00  0.00     0.000 HD 
ENDBRANCH  16  17
ENDBRANCH   6  16
ENDBRANCH   2   4
TORSDOF 3
ENDMDL
MODEL      129
REMARK 921   NORMALIZED FREE ENERGY PREDICTED BY IDOCK:   -3.75 KCAL/MOL
REMARK 922        TOTAL FREE ENERGY PREDICTED BY IDOCK:   -4.85 KCAL/MOL
REMARK 923 INTER-LIGAND FREE ENERGY PREDICTED BY IDOCK:   -4.80 KCAL/MOL
REMARK 924 INTRA-LIGAND FREE ENERGY PREDICTED BY IDOCK:   -0.05 KCAL/MOL
REMARK 927      BINDING AFFINITY PREDICTED BY RF-SCORE:    0.00 PKD
ROOT
HETATM    1  O   UNL     1      -8.686   7.815  65.814  1.00  0.00    -0.156 OA 
HETATM    2  C   UNL     1      -9.520   8.413  66.805  1.00  0.00    -0.197 C  
HETATM    3  H   UNL     1      -9.060   7.862  64.942  1.00  0.00     0.000 HD 
ENDROOT
BRANCH   2   4
HETATM    4  C   UNL     1      -8.914   8.337  68.220  1.00  0.00    -0.136 C  
HETATM    5  O   UNL     1      -9.281   9.471  69.020  1.00  0.00    -0.146 OA 
HETATM    6  C   UNL     1     -10.638   9.474  69.471  1.00  0.00    -0.221 C  
HETATM    7  O   UNL     1      -8.114   6.822  69.922  1.00  0.00    -0.121 OA 
HETATM    8  C   UNL     1     -10.831   8.273  70.425  1.00  0.00    -0.235 C  
HETATM    9  O   UNL     1      -9.930   8.381  71.549  1.00  0.00    -0.183 OA 
HETATM   10  C   UNL     1     -10.532   6.957  69.687  1.00  0.00    -0.218 C  
HETATM   11  H   UNL     1      -8.272   6.003  70.379  1.00  0.00     0.000 HD 
HETATM   12  H   UNL     1     -10.049   7.643  72.135  1.00  0.00     0.000 HD 
HETATM   13  O   UNL     1     -11.603   6.614  68.805  1.00  0.00    -0.587 OA 
HETATM   14  H   UNL     1     -11.419   5.801  68.350  1.00  0.00     0.000 HD 
HETATM   15  C   UNL     1      -9.170   7.009  68.960  1.00  0.00    -0.137 C  
BRANCH   6  16
HETATM   16  O   UNL     1     -10.934  10.690  70.195  1.00  0.00    -0.282 OA 
BRANCH  16  17
HETATM   17  C   UNL     1     -11.193  11.778  69.398  1.00  0.00    -0.234 A  
HETATM   18  C   UNL     1     -11.047  11.596  68.021  1.00  0.00    -0.299 A  
HETATM   19  C   UNL     1     -11.695  13.885  67.631  1.00  0.00    -0.368 A  
HETATM   20  C   UNL     1     -11.290  12.653  67.133  1.00  0.00    -0.373 A  
HETATM   21  C   UNL     1     -11.877  14.073  68.992  1.00  0.00    -0.391 A  
HETATM   22  O   UNL     1     -11.935  14.952  66.816  1.00  0.00    -0.263 OA 
HETATM   23  C   UNL     1     -11.635  13.017  69.872  1.00  0.00    -0.249 A  
HETATM   24  H   UNL     1     -12.211  15.794  67.157  1.00  0.00     0.000 HD 
ENDBRANCH  16  17
ENDBRANCH   6  16
ENDBRANCH   2   4
TORSDOF 3
ENDMDL
MODEL      130
REMARK 921   NORMALIZED FREE ENERGY PREDICTED BY IDOCK:   -3.72 KCAL/MOL
REMARK 922        TOTAL FREE ENERGY PREDICTED BY IDOCK:   -4.83 KCAL/MOL
REMARK 923 INTER-LIGAND FREE ENERGY PREDICTED BY IDOCK:   -4.88 KCAL/MOL
REMARK 924 INTRA-LIGAND FREE ENERGY PREDICTED BY IDOCK:    0.05 KCAL/MOL
REMARK 927      BINDING AFFINITY PREDICTED BY RF-SCORE:    0.00 PKD
ROOT
HETATM    1  O   UNL     1      -8.883   9.733  64.729  1.00  0.00    -0.176 OA 
HETATM    2  C   UNL     1      -8.959   9.600  66.147  1.00  0.00    -0.154 C  
HETATM    3  H   UNL     1      -8.018   9.543  64.387  1.00  0.00     0.000 HD 
ENDROOT
BRANCH   2   4
HETATM    4  C   UNL     1     -10.363   9.908  66.701  1.00  0.00    -0.205 C  
HETATM    5  O   UNL     1     -10.927   8.778  67.387  1.00  0.00    -0.119 OA 
HETATM    6  C   UNL     1     -10.350   8.503  68.666  1.00  0.00    -0.198 C  
HETATM    7  O   UNL     1     -11.809  11.678  67.482  1.00  0.00    -0.591 OA 
HETATM    8  C   UNL     1     -10.662   9.694  69.601  1.00  0.00    -0.240 C  
HETATM    9  O   UNL     1     -12.091   9.868  69.723  1.00  0.00    -0.467 OA 
HETATM   10  C   UNL     1     -10.061  10.989  69.028  1.00  0.00    -0.180 C  
HETATM   11  H   UNL     1     -11.865  12.470  68.004  1.00  0.00     0.000 HD 
HETATM   12  H   UNL     1     -12.283  10.600  70.298  1.00  0.00     0.000 HD 
HETATM   13  O   UNL     1      -8.646  11.022  69.222  1.00  0.00    -0.360 OA 
HETATM   14  H   UNL     1      -8.275  11.822  68.869  1.00  0.00     0.000 HD 
HETATM   15  C   UNL     1     -10.454  11.193  67.548  1.00  0.00    -0.204 C  
BRANCH   6  16
HETATM   16  O   UNL     1     -10.923   7.305  69.238  1.00  0.00    -0.192 OA 
BRANCH  16  17
HETATM   17  C   UNL     1     -10.552   6.142  68.609  1.00  0.00    -0.270 A  
HETATM   18  C   UNL     1     -10.058   5.119  69.422  1.00  0.00    -0.305 A  
HETATM   19  C   UNL     1      -9.765   3.703  67.494  1.00  0.00    -0.052 A  
HETATM   20  C   UNL     1      -9.655   3.897  68.865  1.00  0.00    -0.200 A  
HETATM   21  C   UNL     1     -10.285   4.694  66.677  1.00  0.00    -0.250 A  
HETATM   22  O   UNL     1      -9.380   2.540  66.895  1.00  0.00    -0.333 OA 
HETATM   23  C   UNL     1     -10.686   5.908  67.238  1.00  0.00    -0.380 A  
HETATM   24  H   UNL     1      -9.455   2.406  65.957  1.00  0.00     0.000 HD 
ENDBRANCH  16  17
ENDBRANCH   6  16
ENDBRANCH   2   4
TORSDOF 3
ENDMDL
MODEL      131
REMARK 921   NORMALIZED FREE ENERGY PREDICTED BY IDOCK:   -3.71 KCAL/MOL
REMARK 922        TOTAL FREE ENERGY PREDICTED BY IDOCK:   -4.81 KCAL/MOL
REMARK 923 INTER-LIGAND FREE ENERGY PREDICTED BY IDOCK:   -4.42 KCAL/MOL
REMARK 924 INTRA-LIGAND FREE ENERGY PREDICTED BY IDOCK:   -0.39 KCAL/MOL
REMARK 927      BINDING AFFINITY PREDICTED BY RF-SCORE:    0.00 PKD
ROOT
HETATM    1  O   UNL     1      -8.882   9.886  64.108  1.00  0.00    -0.189 OA 
HETATM    2  C   UNL     1      -9.049  10.591  65.336  1.00  0.00    -0.187 C  
HETATM    3  H   UNL     1      -7.981   9.625  63.954  1.00  0.00     0.000 HD 
ENDROOT
BRANCH   2   4
HETATM    4  C   UNL     1     -10.510  11.012  65.588  1.00  0.00    -0.230 C  
HETATM    5  O   UNL     1     -10.942  10.678  66.917  1.00  0.00    -0.243 OA 
HETATM    6  C   UNL     1     -10.398  11.505  67.950  1.00  0.00    -0.183 C  
HETATM    7  O   UNL     1     -12.232  12.573  64.932  1.00  0.00    -0.441 OA 
HETATM    8  C   UNL     1     -10.926  12.943  67.742  1.00  0.00    -0.243 C  
HETATM    9  O   UNL     1     -12.370  12.957  67.798  1.00  0.00    -0.174 OA 
HETATM   10  C   UNL     1     -10.487  13.475  66.367  1.00  0.00    -0.287 C  
HETATM   11  H   UNL     1     -12.428  13.478  64.715  1.00  0.00     0.000 HD 
HETATM   12  H   UNL     1     -12.693  13.840  67.670  1.00  0.00     0.000 HD 
HETATM   13  O   UNL     1      -9.102  13.830  66.378  1.00  0.00    -0.439 OA 
HETATM   14  H   UNL     1      -8.832  14.159  65.528  1.00  0.00     0.000 HD 
HETATM   15  C   UNL     1     -10.827  12.479  65.236  1.00  0.00    -0.286 C  
BRANCH   6  16
HETATM   16  O   UNL     1     -10.824  11.042  69.251  1.00  0.00    -0.219 OA 
BRANCH  16  17
HETATM   17  C   UNL     1     -10.222   9.878  69.665  1.00  0.00    -0.237 A  
HETATM   18  C   UNL     1     -11.046   8.926  70.269  1.00  0.00    -0.251 A  
HETATM   19  C   UNL     1      -9.162   7.449  70.554  1.00  0.00    -0.157 A  
HETATM   20  C   UNL     1     -10.516   7.710  70.723  1.00  0.00    -0.211 A  
HETATM   21  C   UNL     1      -8.337   8.369  69.926  1.00  0.00    -0.124 A  
HETATM   22  O   UNL     1      -8.590   6.289  70.984  1.00  0.00    -0.130 OA 
HETATM   23  C   UNL     1      -8.870   9.577  69.476  1.00  0.00    -0.185 A  
HETATM   24  H   UNL     1      -7.663   6.111  70.869  1.00  0.00     0.000 HD 
ENDBRANCH  16  17
ENDBRANCH   6  16
ENDBRANCH   2   4
TORSDOF 3
ENDMDL
MODEL      132
REMARK 921   NORMALIZED FREE ENERGY PREDICTED BY IDOCK:   -3.71 KCAL/MOL
REMARK 922        TOTAL FREE ENERGY PREDICTED BY IDOCK:   -4.81 KCAL/MOL
REMARK 923 INTER-LIGAND FREE ENERGY PREDICTED BY IDOCK:   -4.92 KCAL/MOL
REMARK 924 INTRA-LIGAND FREE ENERGY PREDICTED BY IDOCK:    0.12 KCAL/MOL
REMARK 927      BINDING AFFINITY PREDICTED BY RF-SCORE:    0.00 PKD
ROOT
HETATM    1  O   UNL     1      -7.210   8.678  69.469  1.00  0.00    -0.057 OA 
HETATM    2  C   UNL     1      -8.507   9.106  69.880  1.00  0.00    -0.147 C  
HETATM    3  H   UNL     1      -6.557   8.778  70.152  1.00  0.00     0.000 HD 
ENDROOT
BRANCH   2   4
HETATM    4  C   UNL     1      -9.567   8.942  68.774  1.00  0.00    -0.157 C  
HETATM    5  O   UNL     1     -10.867   9.370  69.211  1.00  0.00    -0.226 OA 
HETATM    6  C   UNL     1     -11.027  10.787  69.323  1.00  0.00    -0.241 C  
HETATM    7  O   UNL     1      -9.898   8.866  66.383  1.00  0.00    -0.244 OA 
HETATM    8  C   UNL     1     -10.895  11.399  67.910  1.00  0.00    -0.225 C  
HETATM    9  O   UNL     1     -11.904  10.849  67.033  1.00  0.00    -0.223 OA 
HETATM   10  C   UNL     1      -9.511  11.078  67.320  1.00  0.00    -0.164 C  
HETATM   11  H   UNL     1      -9.663   9.254  65.547  1.00  0.00     0.000 HD 
HETATM   12  H   UNL     1     -11.823  11.225  66.165  1.00  0.00     0.000 HD 
HETATM   13  O   UNL     1      -8.501  11.890  67.923  1.00  0.00    -0.138 OA 
HETATM   14  H   UNL     1      -7.647  11.691  67.558  1.00  0.00     0.000 HD 
HETATM   15  C   UNL     1      -9.186   9.570  67.418  1.00  0.00    -0.133 C  
BRANCH   6  16
HETATM   16  O   UNL     1     -12.334  11.113  69.847  1.00  0.00    -0.303 OA 
BRANCH  16  17
HETATM   17  C   UNL     1     -12.389  12.297  70.542  1.00  0.00    -0.264 A  
HETATM   18  C   UNL     1     -11.769  13.401  69.951  1.00  0.00    -0.337 A  
HETATM   19  C   UNL     1     -12.417  14.785  71.814  1.00  0.00    -0.343 A  
HETATM   20  C   UNL     1     -11.776  14.648  70.590  1.00  0.00    -0.339 A  
HETATM   21  C   UNL     1     -13.065  13.709  72.399  1.00  0.00    -0.498 A  
HETATM   22  O   UNL     1     -12.446  15.971  72.487  1.00  0.00    -0.433 OA 
HETATM   23  C   UNL     1     -13.057  12.469  71.757  1.00  0.00    -0.450 A  
HETATM   24  H   UNL     1     -12.885  16.065  73.325  1.00  0.00     0.000 HD 
ENDBRANCH  16  17
ENDBRANCH   6  16
ENDBRANCH   2   4
TORSDOF 3
ENDMDL
MODEL      133
REMARK 921   NORMALIZED FREE ENERGY PREDICTED BY IDOCK:   -3.71 KCAL/MOL
REMARK 922        TOTAL FREE ENERGY PREDICTED BY IDOCK:   -4.81 KCAL/MOL
REMARK 923 INTER-LIGAND FREE ENERGY PREDICTED BY IDOCK:   -4.51 KCAL/MOL
REMARK 924 INTRA-LIGAND FREE ENERGY PREDICTED BY IDOCK:   -0.30 KCAL/MOL
REMARK 927      BINDING AFFINITY PREDICTED BY RF-SCORE:    0.00 PKD
ROOT
HETATM    1  O   UNL     1      -7.428   4.589  72.256  1.00  0.00    -0.076 OA 
HETATM    2  C   UNL     1      -8.263   5.431  71.464  1.00  0.00    -0.118 C  
HETATM    3  H   UNL     1      -6.745   4.166  71.750  1.00  0.00     0.000 HD 
ENDROOT
BRANCH   2   4
HETATM    4  C   UNL     1      -9.371   6.117  72.285  1.00  0.00    -0.146 C  
HETATM    5  O   UNL     1      -9.310   7.548  72.174  1.00  0.00    -0.136 OA 
HETATM    6  C   UNL     1      -9.750   8.072  70.918  1.00  0.00    -0.164 C  
HETATM    7  O   UNL     1     -11.588   5.828  73.197  1.00  0.00    -0.503 OA 
HETATM    8  C   UNL     1     -11.255   7.755  70.765  1.00  0.00    -0.271 C  
HETATM    9  O   UNL     1     -12.003   8.354  71.846  1.00  0.00    -0.295 OA 
HETATM   10  C   UNL     1     -11.482   6.234  70.801  1.00  0.00    -0.316 C  
HETATM   11  H   UNL     1     -12.465   5.499  73.034  1.00  0.00     0.000 HD 
HETATM   12  H   UNL     1     -12.927   8.159  71.752  1.00  0.00     0.000 HD 
HETATM   13  O   UNL     1     -11.082   5.631  69.569  1.00  0.00    -0.310 OA 
HETATM   14  H   UNL     1     -11.223   4.691  69.591  1.00  0.00     0.000 HD 
HETATM   15  C   UNL     1     -10.793   5.584  72.021  1.00  0.00    -0.226 C  
BRANCH   6  16
HETATM   16  O   UNL     1      -9.574   9.506  70.873  1.00  0.00    -0.251 OA 
BRANCH  16  17
HETATM   17  C   UNL     1      -9.897  10.081  69.668  1.00  0.00    -0.235 A  
HETATM   18  C   UNL     1     -10.918  11.034  69.680  1.00  0.00    -0.286 A  
HETATM   19  C   UNL     1     -10.669  11.358  67.305  1.00  0.00    -0.241 A  
HETATM   20  C   UNL     1     -11.312  11.671  68.495  1.00  0.00    -0.332 A  
HETATM   21  C   UNL     1      -9.632  10.439  67.281  1.00  0.00    -0.182 A  
HETATM   22  O   UNL     1     -11.017  11.937  66.120  1.00  0.00    -0.284 OA 
HETATM   23  C   UNL     1      -9.242   9.810  68.463  1.00  0.00    -0.134 A  
HETATM   24  H   UNL     1     -10.577  11.723  65.306  1.00  0.00     0.000 HD 
ENDBRANCH  16  17
ENDBRANCH   6  16
ENDBRANCH   2   4
TORSDOF 3
ENDMDL
MODEL      134
REMARK 921   NORMALIZED FREE ENERGY PREDICTED BY IDOCK:   -3.66 KCAL/MOL
REMARK 922        TOTAL FREE ENERGY PREDICTED BY IDOCK:   -4.75 KCAL/MOL
REMARK 923 INTER-LIGAND FREE ENERGY PREDICTED BY IDOCK:   -4.14 KCAL/MOL
REMARK 924 INTRA-LIGAND FREE ENERGY PREDICTED BY IDOCK:   -0.61 KCAL/MOL
REMARK 927      BINDING AFFINITY PREDICTED BY RF-SCORE:    0.00 PKD
ROOT
HETATM    1  O   UNL     1      -8.360   7.254  73.533  1.00  0.00    -0.116 OA 
HETATM    2  C   UNL     1      -8.692   8.272  72.591  1.00  0.00    -0.224 C  
HETATM    3  H   UNL     1      -7.435   7.241  73.750  1.00  0.00     0.000 HD 
ENDROOT
BRANCH   2   4
HETATM    4  C   UNL     1     -10.192   8.294  72.240  1.00  0.00    -0.305 C  
HETATM    5  O   UNL     1     -10.415   8.659  70.869  1.00  0.00    -0.198 OA 
HETATM    6  C   UNL     1     -10.084   7.645  69.916  1.00  0.00    -0.198 C  
HETATM    7  O   UNL     1     -12.345   7.366  72.818  1.00  0.00    -0.508 OA 
HETATM    8  C   UNL     1     -11.036   6.447  70.138  1.00  0.00    -0.334 C  
HETATM    9  O   UNL     1     -12.409   6.865  69.968  1.00  0.00    -0.619 OA 
HETATM   10  C   UNL     1     -10.869   5.894  71.564  1.00  0.00    -0.266 C  
HETATM   11  H   UNL     1     -12.820   6.577  73.053  1.00  0.00     0.000 HD 
HETATM   12  H   UNL     1     -12.993   6.129  70.103  1.00  0.00     0.000 HD 
HETATM   13  O   UNL     1      -9.660   5.140  71.678  1.00  0.00    -0.146 OA 
HETATM   14  H   UNL     1      -9.557   4.798  72.558  1.00  0.00     0.000 HD 
HETATM   15  C   UNL     1     -10.962   7.015  72.623  1.00  0.00    -0.278 C  
BRANCH   6  16
HETATM   16  O   UNL     1     -10.263   8.133  68.567  1.00  0.00    -0.199 OA 
BRANCH  16  17
HETATM   17  C   UNL     1      -9.269   7.766  67.693  1.00  0.00    -0.136 A  
HETATM   18  C   UNL     1      -9.611   7.718  66.340  1.00  0.00    -0.235 A  
HETATM   19  C   UNL     1      -7.363   7.052  65.778  1.00  0.00    -0.079 A  
HETATM   20  C   UNL     1      -8.658   7.353  65.378  1.00  0.00    -0.058 A  
HETATM   21  C   UNL     1      -6.999   7.128  67.113  1.00  0.00    -0.078 A  
HETATM   22  O   UNL     1      -6.398   6.681  64.889  1.00  0.00    -0.037 OA 
HETATM   23  C   UNL     1      -7.950   7.494  68.067  1.00  0.00    -0.123 A  
HETATM   24  H   UNL     1      -5.512   6.475  65.163  1.00  0.00     0.000 HD 
ENDBRANCH  16  17
ENDBRANCH   6  16
ENDBRANCH   2   4
TORSDOF 3
ENDMDL
MODEL      135
REMARK 921   NORMALIZED FREE ENERGY PREDICTED BY IDOCK:   -3.64 KCAL/MOL
REMARK 922        TOTAL FREE ENERGY PREDICTED BY IDOCK:   -4.72 KCAL/MOL
REMARK 923 INTER-LIGAND FREE ENERGY PREDICTED BY IDOCK:   -4.40 KCAL/MOL
REMARK 924 INTRA-LIGAND FREE ENERGY PREDICTED BY IDOCK:   -0.33 KCAL/MOL
REMARK 927      BINDING AFFINITY PREDICTED BY RF-SCORE:    0.00 PKD
ROOT
HETATM    1  O   UNL     1     -10.431   8.288  67.571  1.00  0.00    -0.246 OA 
HETATM    2  C   UNL     1      -9.978   8.659  68.871  1.00  0.00    -0.189 C  
HETATM    3  H   UNL     1      -9.756   8.373  66.908  1.00  0.00     0.000 HD 
ENDROOT
BRANCH   2   4
HETATM    4  C   UNL     1     -11.073   8.520  69.946  1.00  0.00    -0.112 C  
HETATM    5  O   UNL     1     -11.333   7.145  70.270  1.00  0.00    -0.281 OA 
HETATM    6  C   UNL     1     -10.317   6.508  71.049  1.00  0.00    -0.206 C  
HETATM    7  O   UNL     1     -12.126   9.631  71.814  1.00  0.00    -0.378 OA 
HETATM    8  C   UNL     1     -10.260   7.206  72.427  1.00  0.00    -0.189 C  
HETATM    9  O   UNL     1     -11.539   7.101  73.091  1.00  0.00    -0.549 OA 
HETATM   10  C   UNL     1      -9.924   8.697  72.254  1.00  0.00    -0.291 C  
HETATM   11  H   UNL     1     -11.986  10.155  72.594  1.00  0.00     0.000 HD 
HETATM   12  H   UNL     1     -11.505   7.529  73.938  1.00  0.00     0.000 HD 
HETATM   13  O   UNL     1      -8.539   8.872  71.947  1.00  0.00    -0.347 OA 
HETATM   14  H   UNL     1      -8.331   9.793  71.840  1.00  0.00     0.000 HD 
HETATM   15  C   UNL     1     -10.844   9.370  71.212  1.00  0.00    -0.361 C  
BRANCH   6  16
HETATM   16  O   UNL     1     -10.628   5.111  71.252  1.00  0.00    -0.208 OA 
BRANCH  16  17
HETATM   17  C   UNL     1     -10.006   4.257  70.374  1.00  0.00    -0.142 A  
HETATM   18  C   UNL     1      -9.716   2.975  70.846  1.00  0.00    -0.155 A  
HETATM   19  C   UNL     1      -8.755   2.388  68.715  1.00  0.00    -0.085 A  
HETATM   20  C   UNL     1      -9.081   2.038  70.018  1.00  0.00    -0.165 A  
HETATM   21  C   UNL     1      -9.067   3.645  68.220  1.00  0.00    -0.199 A  
HETATM   22  O   UNL     1      -8.128   1.523  67.868  1.00  0.00    -0.057 OA 
HETATM   23  C   UNL     1      -9.700   4.573  69.048  1.00  0.00    -0.235 A  
HETATM   24  H   UNL     1      -7.905   1.763  66.976  1.00  0.00     0.000 HD 
ENDBRANCH  16  17
ENDBRANCH   6  16
ENDBRANCH   2   4
TORSDOF 3
ENDMDL
MODEL      136
REMARK 921   NORMALIZED FREE ENERGY PREDICTED BY IDOCK:   -3.59 KCAL/MOL
REMARK 922        TOTAL FREE ENERGY PREDICTED BY IDOCK:   -4.67 KCAL/MOL
REMARK 923 INTER-LIGAND FREE ENERGY PREDICTED BY IDOCK:   -4.28 KCAL/MOL
REMARK 924 INTRA-LIGAND FREE ENERGY PREDICTED BY IDOCK:   -0.39 KCAL/MOL
REMARK 927      BINDING AFFINITY PREDICTED BY RF-SCORE:    0.00 PKD
ROOT
HETATM    1  O   UNL     1     -10.036   4.590  68.974  1.00  0.00    -0.129 OA 
HETATM    2  C   UNL     1     -10.261   5.901  68.461  1.00  0.00    -0.192 C  
HETATM    3  H   UNL     1      -9.816   4.589  69.898  1.00  0.00     0.000 HD 
ENDROOT
BRANCH   2   4
HETATM    4  C   UNL     1     -10.619   5.902  66.962  1.00  0.00    -0.305 C  
HETATM    5  O   UNL     1      -9.891   6.907  66.239  1.00  0.00    -0.082 OA 
HETATM    6  C   UNL     1      -8.507   6.613  66.031  1.00  0.00    -0.142 C  
HETATM    7  O   UNL     1     -11.417   4.526  65.145  1.00  0.00    -1.105 OA 
HETATM    8  C   UNL     1      -8.411   5.364  65.125  1.00  0.00    -0.144 C  
HETATM    9  O   UNL     1      -9.063   5.617  63.860  1.00  0.00    -0.288 OA 
HETATM   10  C   UNL     1      -9.101   4.166  65.797  1.00  0.00    -0.136 C  
HETATM   11  H   UNL     1     -11.358   3.676  64.722  1.00  0.00     0.000 HD 
HETATM   12  H   UNL     1      -9.004   4.850  63.303  1.00  0.00     0.000 HD 
HETATM   13  O   UNL     1      -8.292   3.640  66.852  1.00  0.00    -0.100 OA 
HETATM   14  H   UNL     1      -8.718   2.899  67.267  1.00  0.00     0.000 HD 
HETATM   15  C   UNL     1     -10.525   4.524  66.276  1.00  0.00    -0.112 C  
BRANCH   6  16
HETATM   16  O   UNL     1      -7.843   7.714  65.371  1.00  0.00    -0.100 OA 
BRANCH  16  17
HETATM   17  C   UNL     1      -8.374   8.949  65.653  1.00  0.00    -0.139 A  
HETATM   18  C   UNL     1      -9.147   9.544  64.653  1.00  0.00    -0.263 A  
HETATM   19  C   UNL     1      -9.540  11.455  66.068  1.00  0.00    -0.221 A  
HETATM   20  C   UNL     1      -9.726  10.804  64.855  1.00  0.00    -0.330 A  
HETATM   21  C   UNL     1      -8.805  10.865  67.083  1.00  0.00    -0.135 A  
HETATM   22  O   UNL     1     -10.071  12.686  66.317  1.00  0.00    -0.243 OA 
HETATM   23  C   UNL     1      -8.231   9.609  66.877  1.00  0.00    -0.113 A  
HETATM   24  H   UNL     1      -9.944  13.132  67.146  1.00  0.00     0.000 HD 
ENDBRANCH  16  17
ENDBRANCH   6  16
ENDBRANCH   2   4
TORSDOF 3
ENDMDL
MODEL      137
REMARK 921   NORMALIZED FREE ENERGY PREDICTED BY IDOCK:   -3.58 KCAL/MOL
REMARK 922        TOTAL FREE ENERGY PREDICTED BY IDOCK:   -4.66 KCAL/MOL
REMARK 923 INTER-LIGAND FREE ENERGY PREDICTED BY IDOCK:   -5.84 KCAL/MOL
REMARK 924 INTRA-LIGAND FREE ENERGY PREDICTED BY IDOCK:    1.18 KCAL/MOL
REMARK 927      BINDING AFFINITY PREDICTED BY RF-SCORE:    0.00 PKD
ROOT
HETATM    1  O   UNL     1      -8.294   9.082  71.959  1.00  0.00    -0.366 OA 
HETATM    2  C   UNL     1      -8.726   8.024  72.811  1.00  0.00    -0.202 C  
HETATM    3  H   UNL     1      -7.368   9.274  72.052  1.00  0.00     0.000 HD 
ENDROOT
BRANCH   2   4
HETATM    4  C   UNL     1     -10.227   7.712  72.660  1.00  0.00    -0.265 C  
HETATM    5  O   UNL     1     -10.844   8.529  71.652  1.00  0.00    -0.245 OA 
HETATM    6  C   UNL     1     -10.511   8.176  70.306  1.00  0.00    -0.219 C  
HETATM    7  O   UNL     1     -11.902   5.994  72.936  1.00  0.00    -0.509 OA 
HETATM    8  C   UNL     1     -11.071   6.762  70.027  1.00  0.00    -0.315 C  
HETATM    9  O   UNL     1     -12.505   6.750  70.208  1.00  0.00    -0.579 OA 
HETATM   10  C   UNL     1     -10.450   5.745  70.999  1.00  0.00    -0.244 C  
HETATM   11  H   UNL     1     -12.106   5.073  72.816  1.00  0.00     0.000 HD 
HETATM   12  H   UNL     1     -12.849   5.882  70.036  1.00  0.00     0.000 HD 
HETATM   13  O   UNL     1      -9.104   5.442  70.627  1.00  0.00    -0.139 OA 
HETATM   14  H   UNL     1      -8.720   4.814  71.227  1.00  0.00     0.000 HD 
HETATM   15  C   UNL     1     -10.559   6.219  72.466  1.00  0.00    -0.212 C  
BRANCH   6  16
HETATM   16  O   UNL     1     -11.111   9.102  69.372  1.00  0.00    -0.148 OA 
BRANCH  16  17
HETATM   17  C   UNL     1     -11.572  10.264  69.940  1.00  0.00    -0.256 A  
HETATM   18  C   UNL     1     -12.440  10.130  71.026  1.00  0.00    -0.474 A  
HETATM   19  C   UNL     1     -12.594  12.528  71.222  1.00  0.00    -0.231 A  
HETATM   20  C   UNL     1     -12.960  11.264  71.667  1.00  0.00    -0.537 A  
HETATM   21  C   UNL     1     -11.709  12.678  70.166  1.00  0.00    -0.247 A  
HETATM   22  O   UNL     1     -13.076  13.666  71.798  1.00  0.00    -0.349 OA 
HETATM   23  C   UNL     1     -11.193  11.547  69.534  1.00  0.00    -0.305 A  
HETATM   24  H   UNL     1     -12.826  14.530  71.494  1.00  0.00     0.000 HD 
ENDBRANCH  16  17
ENDBRANCH   6  16
ENDBRANCH   2   4
TORSDOF 3
ENDMDL
MODEL      138
REMARK 921   NORMALIZED FREE ENERGY PREDICTED BY IDOCK:   -3.51 KCAL/MOL
REMARK 922        TOTAL FREE ENERGY PREDICTED BY IDOCK:   -4.58 KCAL/MOL
REMARK 923 INTER-LIGAND FREE ENERGY PREDICTED BY IDOCK:   -4.19 KCAL/MOL
REMARK 924 INTRA-LIGAND FREE ENERGY PREDICTED BY IDOCK:   -0.38 KCAL/MOL
REMARK 927      BINDING AFFINITY PREDICTED BY RF-SCORE:    0.00 PKD
ROOT
HETATM    1  O   UNL     1     -11.304   9.608  71.309  1.00  0.00    -0.344 OA 
HETATM    2  C   UNL     1     -10.701   8.801  70.299  1.00  0.00    -0.227 C  
HETATM    3  H   UNL     1     -11.964   9.141  71.808  1.00  0.00     0.000 HD 
ENDROOT
BRANCH   2   4
HETATM    4  C   UNL     1      -9.630   9.558  69.491  1.00  0.00    -0.188 C  
HETATM    5  O   UNL     1      -9.253   8.845  68.303  1.00  0.00    -0.140 OA 
HETATM    6  C   UNL     1     -10.228   8.863  67.257  1.00  0.00    -0.258 C  
HETATM    7  O   UNL     1      -8.737  11.749  69.005  1.00  0.00    -0.373 OA 
HETATM    8  C   UNL     1     -10.389  10.323  66.774  1.00  0.00    -0.227 C  
HETATM    9  O   UNL     1      -9.125  10.828  66.289  1.00  0.00    -0.165 OA 
HETATM   10  C   UNL     1     -10.856  11.217  67.935  1.00  0.00    -0.228 C  
HETATM   11  H   UNL     1      -8.948  12.657  68.818  1.00  0.00     0.000 HD 
HETATM   12  H   UNL     1      -9.223  11.725  65.992  1.00  0.00     0.000 HD 
HETATM   13  O   UNL     1     -12.242  11.005  68.213  1.00  0.00    -0.769 OA 
HETATM   14  H   UNL     1     -12.531  11.557  68.930  1.00  0.00     0.000 HD 
HETATM   15  C   UNL     1      -9.972  11.031  69.188  1.00  0.00    -0.121 C  
BRANCH   6  16
HETATM   16  O   UNL     1      -9.795   8.053  66.140  1.00  0.00    -0.146 OA 
BRANCH  16  17
HETATM   17  C   UNL     1      -9.413   6.777  66.478  1.00  0.00    -0.150 A  
HETATM   18  C   UNL     1     -10.335   6.017  67.201  1.00  0.00    -0.284 A  
HETATM   19  C   UNL     1      -8.802   4.157  67.233  1.00  0.00    -0.116 A  
HETATM   20  C   UNL     1     -10.028   4.705  67.588  1.00  0.00    -0.161 A  
HETATM   21  C   UNL     1      -7.890   4.886  66.487  1.00  0.00    -0.099 A  
HETATM   22  O   UNL     1      -8.445   2.891  67.591  1.00  0.00    -0.080 OA 
HETATM   23  C   UNL     1      -8.201   6.191  66.103  1.00  0.00    -0.119 A  
HETATM   24  H   UNL     1      -7.606   2.516  67.349  1.00  0.00     0.000 HD 
ENDBRANCH  16  17
ENDBRANCH   6  16
ENDBRANCH   2   4
TORSDOF 3
ENDMDL
MODEL      139
REMARK 921   NORMALIZED FREE ENERGY PREDICTED BY IDOCK:   -3.50 KCAL/MOL
REMARK 922        TOTAL FREE ENERGY PREDICTED BY IDOCK:   -4.56 KCAL/MOL
REMARK 923 INTER-LIGAND FREE ENERGY PREDICTED BY IDOCK:   -4.10 KCAL/MOL
REMARK 924 INTRA-LIGAND FREE ENERGY PREDICTED BY IDOCK:   -0.46 KCAL/MOL
REMARK 927      BINDING AFFINITY PREDICTED BY RF-SCORE:    0.00 PKD
ROOT
HETATM    1  O   UNL     1     -12.235  12.282  65.995  1.00  0.00    -0.646 OA 
HETATM    2  C   UNL     1     -11.497  11.479  66.912  1.00  0.00    -0.184 C  
HETATM    3  H   UNL     1     -12.551  11.790  65.246  1.00  0.00     0.000 HD 
ENDROOT
BRANCH   2   4
HETATM    4  C   UNL     1     -10.986  12.277  68.127  1.00  0.00    -0.231 C  
HETATM    5  O   UNL     1      -9.771  11.724  68.658  1.00  0.00    -0.191 OA 
HETATM    6  C   UNL     1      -8.606  11.958  67.862  1.00  0.00    -0.162 C  
HETATM    7  O   UNL     1     -10.986  14.454  69.173  1.00  0.00    -0.253 OA 
HETATM    8  C   UNL     1      -8.338  13.480  67.838  1.00  0.00    -0.175 C  
HETATM    9  O   UNL     1      -8.132  13.970  69.182  1.00  0.00    -0.333 OA 
HETATM   10  C   UNL     1      -9.541  14.222  67.230  1.00  0.00    -0.232 C  
HETATM   11  H   UNL     1     -10.913  15.391  69.031  1.00  0.00     0.000 HD 
HETATM   12  H   UNL     1      -7.967  14.905  69.168  1.00  0.00     0.000 HD 
HETATM   13  O   UNL     1      -9.572  14.060  65.810  1.00  0.00    -0.481 OA 
HETATM   14  H   UNL     1     -10.315  14.518  65.434  1.00  0.00     0.000 HD 
HETATM   15  C   UNL     1     -10.868  13.796  67.897  1.00  0.00    -0.244 C  
BRANCH   6  16
HETATM   16  O   UNL     1      -7.455  11.296  68.432  1.00  0.00    -0.095 OA 
BRANCH  16  17
HETATM   17  C   UNL     1      -7.728  10.083  69.016  1.00  0.00    -0.094 A  
HETATM   18  C   UNL     1      -8.037   9.028  68.155  1.00  0.00    -0.105 A  
HETATM   19  C   UNL     1      -8.297   7.544  70.038  1.00  0.00    -0.136 A  
HETATM   20  C   UNL     1      -8.330   7.755  68.665  1.00  0.00    -0.129 A  
HETATM   21  C   UNL     1      -7.959   8.572  70.904  1.00  0.00    -0.120 A  
HETATM   22  O   UNL     1      -8.583   6.331  70.591  1.00  0.00    -0.135 OA 
HETATM   23  C   UNL     1      -7.667   9.837  70.391  1.00  0.00    -0.159 A  
HETATM   24  H   UNL     1      -8.560   6.187  71.530  1.00  0.00     0.000 HD 
ENDBRANCH  16  17
ENDBRANCH   6  16
ENDBRANCH   2   4
TORSDOF 3
ENDMDL
MODEL      140
REMARK 921   NORMALIZED FREE ENERGY PREDICTED BY IDOCK:   -3.50 KCAL/MOL
REMARK 922        TOTAL FREE ENERGY PREDICTED BY IDOCK:   -4.56 KCAL/MOL
REMARK 923 INTER-LIGAND FREE ENERGY PREDICTED BY IDOCK:   -4.30 KCAL/MOL
REMARK 924 INTRA-LIGAND FREE ENERGY PREDICTED BY IDOCK:   -0.25 KCAL/MOL
REMARK 927      BINDING AFFINITY PREDICTED BY RF-SCORE:    0.00 PKD
ROOT
HETATM    1  O   UNL     1      -6.731  11.640  67.710  1.00  0.00    -0.063 OA 
HETATM    2  C   UNL     1      -6.187  11.115  66.501  1.00  0.00    -0.139 C  
HETATM    3  H   UNL     1      -6.369  12.489  67.937  1.00  0.00     0.000 HD 
ENDROOT
BRANCH   2   4
HETATM    4  C   UNL     1      -6.774   9.738  66.132  1.00  0.00    -0.085 C  
HETATM    5  O   UNL     1      -8.193   9.802  65.919  1.00  0.00    -0.114 OA 
HETATM    6  C   UNL     1      -8.590  10.433  64.699  1.00  0.00    -0.185 C  
HETATM    7  O   UNL     1      -6.261   7.604  65.126  1.00  0.00    -0.038 OA 
HETATM    8  C   UNL     1      -8.080   9.569  63.523  1.00  0.00    -0.151 C  
HETATM    9  O   UNL     1      -8.639   8.239  63.603  1.00  0.00    -0.406 OA 
HETATM   10  C   UNL     1      -6.547   9.455  63.574  1.00  0.00    -0.095 C  
HETATM   11  H   UNL     1      -5.818   7.161  64.411  1.00  0.00     0.000 HD 
HETATM   12  H   UNL     1      -8.326   7.708  62.881  1.00  0.00     0.000 HD 
HETATM   13  O   UNL     1      -5.932  10.669  63.137  1.00  0.00    -0.268 OA 
HETATM   14  H   UNL     1      -4.985  10.599  63.169  1.00  0.00     0.000 HD 
HETATM   15  C   UNL     1      -6.055   9.021  64.973  1.00  0.00    -0.064 C  
BRANCH   6  16
HETATM   16  O   UNL     1     -10.030  10.523  64.614  1.00  0.00    -0.308 OA 
BRANCH  16  17
HETATM   17  C   UNL     1     -10.592  11.456  65.450  1.00  0.00    -0.275 A  
HETATM   18  C   UNL     1     -11.078  10.991  66.674  1.00  0.00    -0.201 A  
HETATM   19  C   UNL     1     -11.753  13.225  67.276  1.00  0.00    -0.377 A  
HETATM   20  C   UNL     1     -11.668  11.875  67.589  1.00  0.00    -0.346 A  
HETATM   21  C   UNL     1     -11.246  13.709  66.081  1.00  0.00    -0.309 A  
HETATM   22  O   UNL     1     -12.326  14.129  68.122  1.00  0.00    -0.557 OA 
HETATM   23  C   UNL     1     -10.658  12.825  65.175  1.00  0.00    -0.324 A  
HETATM   24  H   UNL     1     -12.384  15.053  67.908  1.00  0.00     0.000 HD 
ENDBRANCH  16  17
ENDBRANCH   6  16
ENDBRANCH   2   4
TORSDOF 3
ENDMDL
MODEL      141
REMARK 921   NORMALIZED FREE ENERGY PREDICTED BY IDOCK:   -3.49 KCAL/MOL
REMARK 922        TOTAL FREE ENERGY PREDICTED BY IDOCK:   -4.55 KCAL/MOL
REMARK 923 INTER-LIGAND FREE ENERGY PREDICTED BY IDOCK:   -4.33 KCAL/MOL
REMARK 924 INTRA-LIGAND FREE ENERGY PREDICTED BY IDOCK:   -0.22 KCAL/MOL
REMARK 927      BINDING AFFINITY PREDICTED BY RF-SCORE:    0.00 PKD
ROOT
HETATM    1  O   UNL     1     -10.635  14.211  63.996  1.00  0.00    -0.471 OA 
HETATM    2  C   UNL     1     -11.072  13.393  65.080  1.00  0.00    -0.319 C  
HETATM    3  H   UNL     1     -11.223  14.935  63.821  1.00  0.00     0.000 HD 
ENDROOT
BRANCH   2   4
HETATM    4  C   UNL     1     -10.117  12.219  65.364  1.00  0.00    -0.269 C  
HETATM    5  O   UNL     1      -8.920  12.652  66.031  1.00  0.00     0.012 OA 
HETATM    6  C   UNL     1      -9.093  13.003  67.407  1.00  0.00    -0.201 C  
HETATM    7  O   UNL     1     -10.012   9.837  65.751  1.00  0.00    -0.284 OA 
HETATM    8  C   UNL     1      -9.504  11.730  68.180  1.00  0.00    -0.193 C  
HETATM    9  O   UNL     1      -8.483  10.716  68.047  1.00  0.00    -0.115 OA 
HETATM   10  C   UNL     1     -10.822  11.170  67.618  1.00  0.00    -0.247 C  
HETATM   11  H   UNL     1     -10.412   9.097  66.194  1.00  0.00     0.000 HD 
HETATM   12  H   UNL     1      -8.735   9.933  68.522  1.00  0.00     0.000 HD 
HETATM   13  O   UNL     1     -11.933  11.962  68.045  1.00  0.00    -0.527 OA 
HETATM   14  H   UNL     1     -12.747  11.616  67.698  1.00  0.00     0.000 HD 
HETATM   15  C   UNL     1     -10.766  11.019  66.082  1.00  0.00    -0.194 C  
BRANCH   6  16
HETATM   16  O   UNL     1      -7.857  13.503  67.965  1.00  0.00    -0.120 OA 
BRANCH  16  17
HETATM   17  C   UNL     1      -7.595  14.821  67.678  1.00  0.00    -0.174 A  
HETATM   18  C   UNL     1      -8.596  15.528  67.010  1.00  0.00    -0.262 A  
HETATM   19  C   UNL     1      -7.230  17.515  67.027  1.00  0.00    -0.181 A  
HETATM   20  C   UNL     1      -8.413  16.878  66.675  1.00  0.00    -0.285 A  
HETATM   21  C   UNL     1      -6.240  16.836  67.720  1.00  0.00    -0.161 A  
HETATM   22  O   UNL     1      -6.993  18.821  66.719  1.00  0.00    -0.194 OA 
HETATM   23  C   UNL     1      -6.428  15.494  68.051  1.00  0.00    -0.148 A  
HETATM   24  H   UNL     1      -6.183  19.257  66.960  1.00  0.00     0.000 HD 
ENDBRANCH  16  17
ENDBRANCH   6  16
ENDBRANCH   2   4
TORSDOF 3
ENDMDL
MODEL      142
REMARK 921   NORMALIZED FREE ENERGY PREDICTED BY IDOCK:   -3.49 KCAL/MOL
REMARK 922        TOTAL FREE ENERGY PREDICTED BY IDOCK:   -4.55 KCAL/MOL
REMARK 923 INTER-LIGAND FREE ENERGY PREDICTED BY IDOCK:   -4.20 KCAL/MOL
REMARK 924 INTRA-LIGAND FREE ENERGY PREDICTED BY IDOCK:   -0.34 KCAL/MOL
REMARK 927      BINDING AFFINITY PREDICTED BY RF-SCORE:    0.00 PKD
ROOT
HETATM    1  O   UNL     1     -12.237  12.295  66.386  1.00  0.00    -0.613 OA 
HETATM    2  C   UNL     1     -10.843  11.997  66.347  1.00  0.00    -0.278 C  
HETATM    3  H   UNL     1     -12.708  11.949  65.637  1.00  0.00     0.000 HD 
ENDROOT
BRANCH   2   4
HETATM    4  C   UNL     1     -10.079  12.557  67.563  1.00  0.00    -0.207 C  
HETATM    5  O   UNL     1     -10.081  11.637  68.666  1.00  0.00    -0.211 OA 
HETATM    6  C   UNL     1      -9.228  10.501  68.501  1.00  0.00    -0.168 C  
HETATM    7  O   UNL     1      -8.317  14.066  68.235  1.00  0.00    -0.149 OA 
HETATM    8  C   UNL     1      -7.766  11.001  68.441  1.00  0.00    -0.119 C  
HETATM    9  O   UNL     1      -7.432  11.706  69.658  1.00  0.00    -0.346 OA 
HETATM   10  C   UNL     1      -7.583  11.963  67.255  1.00  0.00    -0.154 C  
HETATM   11  H   UNL     1      -7.442  14.383  68.043  1.00  0.00     0.000 HD 
HETATM   12  H   UNL     1      -6.534  12.013  69.621  1.00  0.00     0.000 HD 
HETATM   13  O   UNL     1      -7.540  11.245  66.020  1.00  0.00    -0.343 OA 
HETATM   14  H   UNL     1      -7.427  11.840  65.288  1.00  0.00     0.000 HD 
HETATM   15  C   UNL     1      -8.660  13.072  67.251  1.00  0.00    -0.206 C  
BRANCH   6  16
HETATM   16  O   UNL     1      -9.360   9.596  69.621  1.00  0.00    -0.181 OA 
BRANCH  16  17
HETATM   17  C   UNL     1      -9.515   8.277  69.271  1.00  0.00    -0.155 A  
HETATM   18  C   UNL     1      -8.359   7.492  69.256  1.00  0.00    -0.132 A  
HETATM   19  C   UNL     1      -9.653   5.568  68.594  1.00  0.00    -0.135 A  
HETATM   20  C   UNL     1      -8.425   6.135  68.909  1.00  0.00    -0.118 A  
HETATM   21  C   UNL     1     -10.813   6.325  68.636  1.00  0.00    -0.401 A  
HETATM   22  O   UNL     1      -9.776   4.258  68.239  1.00  0.00    -0.151 OA 
HETATM   23  C   UNL     1     -10.743   7.675  68.983  1.00  0.00    -0.134 A  
HETATM   24  H   UNL     1     -10.616   3.870  68.023  1.00  0.00     0.000 HD 
ENDBRANCH  16  17
ENDBRANCH   6  16
ENDBRANCH   2   4
TORSDOF 3
ENDMDL
MODEL      143
REMARK 921   NORMALIZED FREE ENERGY PREDICTED BY IDOCK:   -3.45 KCAL/MOL
REMARK 922        TOTAL FREE ENERGY PREDICTED BY IDOCK:   -4.51 KCAL/MOL
REMARK 923 INTER-LIGAND FREE ENERGY PREDICTED BY IDOCK:   -4.74 KCAL/MOL
REMARK 924 INTRA-LIGAND FREE ENERGY PREDICTED BY IDOCK:    0.24 KCAL/MOL
REMARK 927      BINDING AFFINITY PREDICTED BY RF-SCORE:    0.00 PKD
ROOT
HETATM    1  O   UNL     1      -6.748  13.151  67.031  1.00  0.00    -0.443 OA 
HETATM    2  C   UNL     1      -6.661  12.621  68.352  1.00  0.00    -0.081 C  
HETATM    3  H   UNL     1      -6.250  13.953  66.923  1.00  0.00     0.000 HD 
ENDROOT
BRANCH   2   4
HETATM    4  C   UNL     1      -7.467  11.319  68.527  1.00  0.00    -0.115 C  
HETATM    5  O   UNL     1      -8.880  11.544  68.400  1.00  0.00    -0.157 OA 
HETATM    6  C   UNL     1      -9.332  11.787  67.065  1.00  0.00    -0.184 C  
HETATM    7  O   UNL     1      -7.368   8.917  68.299  1.00  0.00    -0.081 OA 
HETATM    8  C   UNL     1      -9.086  10.507  66.234  1.00  0.00    -0.164 C  
HETATM    9  O   UNL     1      -9.805   9.394  66.811  1.00  0.00    -0.186 OA 
HETATM   10  C   UNL     1      -7.587  10.162  66.220  1.00  0.00    -0.111 C  
HETATM   11  H   UNL     1      -7.078   8.193  67.756  1.00  0.00     0.000 HD 
HETATM   12  H   UNL     1      -9.655   8.607  66.301  1.00  0.00     0.000 HD 
HETATM   13  O   UNL     1      -6.873  11.039  65.347  1.00  0.00    -0.363 OA 
HETATM   14  H   UNL     1      -5.947  10.826  65.338  1.00  0.00     0.000 HD 
HETATM   15  C   UNL     1      -6.994  10.145  67.647  1.00  0.00    -0.085 C  
BRANCH   6  16
HETATM   16  O   UNL     1     -10.746  12.082  67.050  1.00  0.00    -0.227 OA 
BRANCH  16  17
HETATM   17  C   UNL     1     -11.328  12.144  68.294  1.00  0.00    -0.289 A  
HETATM   18  C   UNL     1     -11.462  13.413  68.861  1.00  0.00    -0.347 A  
HETATM   19  C   UNL     1     -12.501  12.451  70.812  1.00  0.00    -0.267 A  
HETATM   20  C   UNL     1     -12.043  13.569  70.127  1.00  0.00    -0.425 A  
HETATM   21  C   UNL     1     -12.405  11.188  70.249  1.00  0.00    -0.397 A  
HETATM   22  O   UNL     1     -13.064  12.541  72.050  1.00  0.00    -0.421 OA 
HETATM   23  C   UNL     1     -11.827  11.038  68.987  1.00  0.00    -0.399 A  
HETATM   24  H   UNL     1     -13.377  11.776  72.518  1.00  0.00     0.000 HD 
ENDBRANCH  16  17
ENDBRANCH   6  16
ENDBRANCH   2   4
TORSDOF 3
ENDMDL
MODEL      144
REMARK 921   NORMALIZED FREE ENERGY PREDICTED BY IDOCK:   -3.44 KCAL/MOL
REMARK 922        TOTAL FREE ENERGY PREDICTED BY IDOCK:   -4.49 KCAL/MOL
REMARK 923 INTER-LIGAND FREE ENERGY PREDICTED BY IDOCK:   -4.07 KCAL/MOL
REMARK 924 INTRA-LIGAND FREE ENERGY PREDICTED BY IDOCK:   -0.42 KCAL/MOL
REMARK 927      BINDING AFFINITY PREDICTED BY RF-SCORE:    0.00 PKD
ROOT
HETATM    1  O   UNL     1     -10.415   8.309  67.558  1.00  0.00    -0.246 OA 
HETATM    2  C   UNL     1      -9.993   8.707  68.860  1.00  0.00    -0.189 C  
HETATM    3  H   UNL     1      -9.718   8.359  66.914  1.00  0.00     0.000 HD 
ENDROOT
BRANCH   2   4
HETATM    4  C   UNL     1     -11.123   8.625  69.904  1.00  0.00    -0.116 C  
HETATM    5  O   UNL     1     -11.435   7.266  70.249  1.00  0.00    -0.271 OA 
HETATM    6  C   UNL     1     -10.462   6.617  71.073  1.00  0.00    -0.214 C  
HETATM    7  O   UNL     1     -12.199   9.808  71.714  1.00  0.00    -0.382 OA 
HETATM    8  C   UNL     1     -10.426   7.343  72.437  1.00  0.00    -0.233 C  
HETATM    9  O   UNL     1     -11.727   7.291  73.063  1.00  0.00    -0.564 OA 
HETATM   10  C   UNL     1     -10.040   8.819  72.242  1.00  0.00    -0.238 C  
HETATM   11  H   UNL     1     -12.066  10.345  72.487  1.00  0.00     0.000 HD 
HETATM   12  H   UNL     1     -11.705   7.737  73.902  1.00  0.00     0.000 HD 
HETATM   13  O   UNL     1      -8.642   8.947  71.974  1.00  0.00    -0.367 OA 
HETATM   14  H   UNL     1      -8.403   9.859  71.854  1.00  0.00     0.000 HD 
HETATM   15  C   UNL     1     -10.908   9.496  71.158  1.00  0.00    -0.355 C  
BRANCH   6  16
HETATM   16  O   UNL     1     -10.822   5.235  71.296  1.00  0.00    -0.182 OA 
BRANCH  16  17
HETATM   17  C   UNL     1      -9.761   4.412  71.589  1.00  0.00    -0.171 A  
HETATM   18  C   UNL     1      -9.944   3.500  72.631  1.00  0.00    -0.225 A  
HETATM   19  C   UNL     1      -7.710   2.654  72.306  1.00  0.00    -0.053 A  
HETATM   20  C   UNL     1      -8.914   2.622  72.998  1.00  0.00    -0.092 A  
HETATM   21  C   UNL     1      -7.525   3.529  71.248  1.00  0.00    -0.043 A  
HETATM   22  O   UNL     1      -6.670   1.832  72.625  1.00  0.00    -0.017 OA 
HETATM   23  C   UNL     1      -8.554   4.399  70.885  1.00  0.00    -0.117 A  
HETATM   24  H   UNL     1      -5.847   1.853  72.152  1.00  0.00     0.000 HD 
ENDBRANCH  16  17
ENDBRANCH   6  16
ENDBRANCH   2   4
TORSDOF 3
ENDMDL
MODEL      145
REMARK 921   NORMALIZED FREE ENERGY PREDICTED BY IDOCK:   -3.38 KCAL/MOL
REMARK 922        TOTAL FREE ENERGY PREDICTED BY IDOCK:   -4.43 KCAL/MOL
REMARK 923 INTER-LIGAND FREE ENERGY PREDICTED BY IDOCK:   -4.34 KCAL/MOL
REMARK 924 INTRA-LIGAND FREE ENERGY PREDICTED BY IDOCK:   -0.08 KCAL/MOL
REMARK 927      BINDING AFFINITY PREDICTED BY RF-SCORE:    0.00 PKD
ROOT
HETATM    1  O   UNL     1     -11.246   5.949  66.381  1.00  0.00    -0.749 OA 
HETATM    2  C   UNL     1     -10.778   7.126  67.035  1.00  0.00    -0.350 C  
HETATM    3  H   UNL     1     -11.942   5.514  66.860  1.00  0.00     0.000 HD 
ENDROOT
BRANCH   2   4
HETATM    4  C   UNL     1      -9.650   7.832  66.258  1.00  0.00    -0.108 C  
HETATM    5  O   UNL     1      -9.433   9.171  66.729  1.00  0.00    -0.154 OA 
HETATM    6  C   UNL     1      -8.781   9.264  67.999  1.00  0.00    -0.125 C  
HETATM    7  O   UNL     1      -7.627   7.465  64.992  1.00  0.00    -0.088 OA 
HETATM    8  C   UNL     1      -7.353   8.691  67.849  1.00  0.00    -0.092 C  
HETATM    9  O   UNL     1      -6.619   9.439  66.854  1.00  0.00    -0.066 OA 
HETATM   10  C   UNL     1      -7.416   7.220  67.403  1.00  0.00    -0.096 C  
HETATM   11  H   UNL     1      -6.814   6.975  64.939  1.00  0.00     0.000 HD 
HETATM   12  H   UNL     1      -5.742   9.087  66.762  1.00  0.00     0.000 HD 
HETATM   13  O   UNL     1      -7.796   6.375  68.491  1.00  0.00    -0.102 OA 
HETATM   14  H   UNL     1      -7.834   5.466  68.216  1.00  0.00     0.000 HD 
HETATM   15  C   UNL     1      -8.332   7.037  66.173  1.00  0.00    -0.130 C  
BRANCH   6  16
HETATM   16  O   UNL     1      -8.683  10.642  68.424  1.00  0.00    -0.128 OA 
BRANCH  16  17
HETATM   17  C   UNL     1      -9.645  11.469  67.898  1.00  0.00    -0.177 A  
HETATM   18  C   UNL     1      -9.328  12.119  66.703  1.00  0.00    -0.226 A  
HETATM   19  C   UNL     1     -11.494  13.178  66.685  1.00  0.00    -0.348 A  
HETATM   20  C   UNL     1     -10.251  12.983  66.096  1.00  0.00    -0.288 A  
HETATM   21  C   UNL     1     -11.836  12.515  67.852  1.00  0.00    -0.383 A  
HETATM   22  O   UNL     1     -12.426  14.014  66.146  1.00  0.00    -0.467 OA 
HETATM   23  C   UNL     1     -10.915  11.655  68.452  1.00  0.00    -0.265 A  
HETATM   24  H   UNL     1     -13.277  14.148  66.548  1.00  0.00     0.000 HD 
ENDBRANCH  16  17
ENDBRANCH   6  16
ENDBRANCH   2   4
TORSDOF 3
ENDMDL
MODEL      146
REMARK 921   NORMALIZED FREE ENERGY PREDICTED BY IDOCK:   -3.38 KCAL/MOL
REMARK 922        TOTAL FREE ENERGY PREDICTED BY IDOCK:   -4.42 KCAL/MOL
REMARK 923 INTER-LIGAND FREE ENERGY PREDICTED BY IDOCK:   -4.52 KCAL/MOL
REMARK 924 INTRA-LIGAND FREE ENERGY PREDICTED BY IDOCK:    0.11 KCAL/MOL
REMARK 927      BINDING AFFINITY PREDICTED BY RF-SCORE:    0.00 PKD
ROOT
HETATM    1  O   UNL     1      -9.322  15.062  70.682  1.00  0.00     0.157 OA 
HETATM    2  C   UNL     1     -10.429  15.715  71.298  1.00  0.00     0.652 C  
HETATM    3  H   UNL     1      -8.567  14.996  71.256  1.00  0.00     0.000 HD 
ENDROOT
BRANCH   2   4
HETATM    4  C   UNL     1     -11.653  15.821  70.367  1.00  0.00    -0.360 C  
HETATM    5  O   UNL     1     -11.283  16.240  69.044  1.00  0.00    -0.326 OA 
HETATM    6  C   UNL     1     -10.621  15.243  68.261  1.00  0.00    -0.244 C  
HETATM    7  O   UNL     1     -13.881  14.979  69.969  1.00  0.00     0.154 OA 
HETATM    8  C   UNL     1     -11.617  14.085  68.016  1.00  0.00    -0.337 C  
HETATM    9  O   UNL     1     -12.786  14.574  67.320  1.00  0.00    -0.376 OA 
HETATM   10  C   UNL     1     -12.066  13.479  69.356  1.00  0.00    -0.289 C  
HETATM   11  H   UNL     1     -14.434  14.206  69.951  1.00  0.00     0.000 HD 
HETATM   12  H   UNL     1     -13.397  13.863  67.169  1.00  0.00     0.000 HD 
HETATM   13  O   UNL     1     -11.034  12.665  69.916  1.00  0.00    -0.411 OA 
HETATM   14  H   UNL     1     -11.311  12.290  70.744  1.00  0.00     0.000 HD 
HETATM   15  C   UNL     1     -12.551  14.568  70.339  1.00  0.00    -0.346 C  
BRANCH   6  16
HETATM   16  O   UNL     1     -10.217  15.782  66.982  1.00  0.00    -0.267 OA 
BRANCH  16  17
HETATM   17  C   UNL     1      -9.811  17.094  67.021  1.00  0.00    -0.276 A  
HETATM   18  C   UNL     1     -10.594  18.014  66.319  1.00  0.00    -0.262 A  
HETATM   19  C   UNL     1      -9.135  19.806  67.006  1.00  0.00    -0.340 A  
HETATM   20  C   UNL     1     -10.253  19.374  66.304  1.00  0.00    -0.566 A  
HETATM   21  C   UNL     1      -8.367  18.911  67.735  1.00  0.00    -0.305 A  
HETATM   22  O   UNL     1      -8.749  21.113  67.019  1.00  0.00    -0.549 OA 
HETATM   23  C   UNL     1      -8.712  17.559  67.748  1.00  0.00    -0.230 A  
HETATM   24  H   UNL     1      -7.984  21.409  67.499  1.00  0.00     0.000 HD 
ENDBRANCH  16  17
ENDBRANCH   6  16
ENDBRANCH   2   4
TORSDOF 3
ENDMDL
MODEL      147
REMARK 921   NORMALIZED FREE ENERGY PREDICTED BY IDOCK:   -3.36 KCAL/MOL
REMARK 922        TOTAL FREE ENERGY PREDICTED BY IDOCK:   -4.39 KCAL/MOL
REMARK 923 INTER-LIGAND FREE ENERGY PREDICTED BY IDOCK:   -4.02 KCAL/MOL
REMARK 924 INTRA-LIGAND FREE ENERGY PREDICTED BY IDOCK:   -0.37 KCAL/MOL
REMARK 927      BINDING AFFINITY PREDICTED BY RF-SCORE:    0.00 PKD
ROOT
HETATM    1  O   UNL     1      -9.019  10.710  66.682  1.00  0.00    -0.147 OA 
HETATM    2  C   UNL     1      -9.052   9.870  67.834  1.00  0.00    -0.131 C  
HETATM    3  H   UNL     1      -8.135  10.930  66.413  1.00  0.00     0.000 HD 
ENDROOT
BRANCH   2   4
HETATM    4  C   UNL     1     -10.485   9.512  68.270  1.00  0.00    -0.223 C  
HETATM    5  O   UNL     1     -10.923   8.267  67.702  1.00  0.00    -0.083 OA 
HETATM    6  C   UNL     1     -10.327   7.102  68.279  1.00  0.00    -0.195 C  
HETATM    7  O   UNL     1     -12.127   9.814  70.016  1.00  0.00    -0.466 OA 
HETATM    8  C   UNL     1     -10.778   7.011  69.755  1.00  0.00    -0.241 C  
HETATM    9  O   UNL     1     -12.218   6.927  69.831  1.00  0.00    -0.626 OA 
HETATM   10  C   UNL     1     -10.323   8.263  70.526  1.00  0.00    -0.202 C  
HETATM   11  H   UNL     1     -12.275   9.843  70.954  1.00  0.00     0.000 HD 
HETATM   12  H   UNL     1     -12.496   6.871  70.737  1.00  0.00     0.000 HD 
HETATM   13  O   UNL     1      -8.922   8.209  70.801  1.00  0.00    -0.139 OA 
HETATM   14  H   UNL     1      -8.641   8.982  71.277  1.00  0.00     0.000 HD 
HETATM   15  C   UNL     1     -10.727   9.561  69.792  1.00  0.00    -0.239 C  
BRANCH   6  16
HETATM   16  O   UNL     1     -10.764   5.909  67.590  1.00  0.00    -0.252 OA 
BRANCH  16  17
HETATM   17  C   UNL     1      -9.946   5.515  66.559  1.00  0.00    -0.185 A  
HETATM   18  C   UNL     1     -10.427   4.501  65.728  1.00  0.00    -0.268 A  
HETATM   19  C   UNL     1      -8.414   4.604  64.407  1.00  0.00    -0.130 A  
HETATM   20  C   UNL     1      -9.657   4.036  64.652  1.00  0.00    -0.175 A  
HETATM   21  C   UNL     1      -7.936   5.634  65.201  1.00  0.00    -0.113 A  
HETATM   22  O   UNL     1      -7.617   4.186  63.382  1.00  0.00    -0.060 OA 
HETATM   23  C   UNL     1      -8.707   6.094  66.270  1.00  0.00    -0.144 A  
HETATM   24  H   UNL     1      -6.767   4.574  63.214  1.00  0.00     0.000 HD 
ENDBRANCH  16  17
ENDBRANCH   6  16
ENDBRANCH   2   4
TORSDOF 3
ENDMDL
MODEL      148
REMARK 921   NORMALIZED FREE ENERGY PREDICTED BY IDOCK:   -3.34 KCAL/MOL
REMARK 922        TOTAL FREE ENERGY PREDICTED BY IDOCK:   -4.37 KCAL/MOL
REMARK 923 INTER-LIGAND FREE ENERGY PREDICTED BY IDOCK:   -3.96 KCAL/MOL
REMARK 924 INTRA-LIGAND FREE ENERGY PREDICTED BY IDOCK:   -0.41 KCAL/MOL
REMARK 927      BINDING AFFINITY PREDICTED BY RF-SCORE:    0.00 PKD
ROOT
HETATM    1  O   UNL     1     -12.174  11.037  70.501  1.00  0.00    -0.320 OA 
HETATM    2  C   UNL     1     -11.821  10.053  71.471  1.00  0.00    -0.324 C  
HETATM    3  H   UNL     1     -11.851  11.903  70.721  1.00  0.00     0.000 HD 
ENDROOT
BRANCH   2   4
HETATM    4  C   UNL     1     -12.344   8.649  71.114  1.00  0.00    -0.213 C  
HETATM    5  O   UNL     1     -11.552   8.028  70.089  1.00  0.00    -0.097 OA 
HETATM    6  C   UNL     1     -10.266   7.572  70.517  1.00  0.00    -0.201 C  
HETATM    7  O   UNL     1     -13.555   6.742  71.968  1.00  0.00    -0.517 OA 
HETATM    8  C   UNL     1     -10.476   6.444  71.553  1.00  0.00    -0.219 C  
HETATM    9  O   UNL     1     -11.221   5.357  70.961  1.00  0.00    -0.058 OA 
HETATM   10  C   UNL     1     -11.267   6.975  72.761  1.00  0.00    -0.257 C  
HETATM   11  H   UNL     1     -13.682   6.164  72.712  1.00  0.00     0.000 HD 
HETATM   12  H   UNL     1     -11.350   4.664  71.598  1.00  0.00     0.000 HD 
HETATM   13  O   UNL     1     -10.437   7.784  73.596  1.00  0.00    -0.281 OA 
HETATM   14  H   UNL     1     -10.925   8.112  74.342  1.00  0.00     0.000 HD 
HETATM   15  C   UNL     1     -12.551   7.712  72.321  1.00  0.00    -0.114 C  
BRANCH   6  16
HETATM   16  O   UNL     1      -9.516   7.039  69.402  1.00  0.00    -0.147 OA 
BRANCH  16  17
HETATM   17  C   UNL     1      -9.183   7.967  68.445  1.00  0.00    -0.135 A  
HETATM   18  C   UNL     1      -8.479   9.092  68.881  1.00  0.00    -0.129 A  
HETATM   19  C   UNL     1      -8.415   9.947  66.628  1.00  0.00    -0.125 A  
HETATM   20  C   UNL     1      -8.099  10.091  67.973  1.00  0.00    -0.112 A  
HETATM   21  C   UNL     1      -9.084   8.821  66.174  1.00  0.00    -0.251 A  
HETATM   22  O   UNL     1      -8.081  10.890  65.701  1.00  0.00    -0.262 OA 
HETATM   23  C   UNL     1      -9.458   7.830  67.082  1.00  0.00    -0.198 A  
HETATM   24  H   UNL     1      -8.298  10.792  64.781  1.00  0.00     0.000 HD 
ENDBRANCH  16  17
ENDBRANCH   6  16
ENDBRANCH   2   4
TORSDOF 3
ENDMDL
MODEL      149
REMARK 921   NORMALIZED FREE ENERGY PREDICTED BY IDOCK:   -3.34 KCAL/MOL
REMARK 922        TOTAL FREE ENERGY PREDICTED BY IDOCK:   -4.37 KCAL/MOL
REMARK 923 INTER-LIGAND FREE ENERGY PREDICTED BY IDOCK:   -4.15 KCAL/MOL
REMARK 924 INTRA-LIGAND FREE ENERGY PREDICTED BY IDOCK:   -0.22 KCAL/MOL
REMARK 927      BINDING AFFINITY PREDICTED BY RF-SCORE:    0.00 PKD
ROOT
HETATM    1  O   UNL     1      -7.073  10.370  68.964  1.00  0.00    -0.064 OA 
HETATM    2  C   UNL     1      -6.213   9.964  67.901  1.00  0.00    -0.051 C  
HETATM    3  H   UNL     1      -6.741  11.124  69.438  1.00  0.00     0.000 HD 
ENDROOT
BRANCH   2   4
HETATM    4  C   UNL     1      -6.751   8.742  67.132  1.00  0.00    -0.066 C  
HETATM    5  O   UNL     1      -8.181   8.635  67.231  1.00  0.00    -0.104 OA 
HETATM    6  C   UNL     1      -8.909   9.594  66.459  1.00  0.00    -0.142 C  
HETATM    7  O   UNL     1      -6.313   7.251  65.284  1.00  0.00    -0.037 OA 
HETATM    8  C   UNL     1      -8.622   9.326  64.964  1.00  0.00    -0.177 C  
HETATM    9  O   UNL     1      -9.031   7.985  64.612  1.00  0.00    -0.341 OA 
HETATM   10  C   UNL     1      -7.117   9.466  64.679  1.00  0.00    -0.100 C  
HETATM   11  H   UNL     1      -6.017   7.186  64.383  1.00  0.00     0.000 HD 
HETATM   12  H   UNL     1      -8.856   7.820  63.693  1.00  0.00     0.000 HD 
HETATM   13  O   UNL     1      -6.731  10.841  64.655  1.00  0.00    -0.359 OA 
HETATM   14  H   UNL     1      -5.801  10.928  64.478  1.00  0.00     0.000 HD 
HETATM   15  C   UNL     1      -6.271   8.637  65.671  1.00  0.00    -0.052 C  
BRANCH   6  16
HETATM   16  O   UNL     1     -10.330   9.461  66.687  1.00  0.00    -0.249 OA 
BRANCH  16  17
HETATM   17  C   UNL     1     -10.825  10.270  67.680  1.00  0.00    -0.307 A  
HETATM   18  C   UNL     1     -10.801   9.757  68.979  1.00  0.00    -0.223 A  
HETATM   19  C   UNL     1     -11.782  11.792  69.821  1.00  0.00    -0.335 A  
HETATM   20  C   UNL     1     -11.287  10.515  70.054  1.00  0.00    -0.392 A  
HETATM   21  C   UNL     1     -11.782  12.329  68.543  1.00  0.00    -0.381 A  
HETATM   22  O   UNL     1     -12.277  12.570  70.825  1.00  0.00    -0.402 OA 
HETATM   23  C   UNL     1     -11.295  11.571  67.477  1.00  0.00    -0.366 A  
HETATM   24  H   UNL     1     -12.615  13.444  70.666  1.00  0.00     0.000 HD 
ENDBRANCH  16  17
ENDBRANCH   6  16
ENDBRANCH   2   4
TORSDOF 3
ENDMDL
MODEL      150
REMARK 921   NORMALIZED FREE ENERGY PREDICTED BY IDOCK:   -3.33 KCAL/MOL
REMARK 922        TOTAL FREE ENERGY PREDICTED BY IDOCK:   -4.36 KCAL/MOL
REMARK 923 INTER-LIGAND FREE ENERGY PREDICTED BY IDOCK:   -3.96 KCAL/MOL
REMARK 924 INTRA-LIGAND FREE ENERGY PREDICTED BY IDOCK:   -0.40 KCAL/MOL
REMARK 927      BINDING AFFINITY PREDICTED BY RF-SCORE:    0.00 PKD
ROOT
HETATM    1  O   UNL     1     -10.964  14.951  69.342  1.00  0.00    -0.252 OA 
HETATM    2  C   UNL     1     -10.090  14.033  68.689  1.00  0.00    -0.217 C  
HETATM    3  H   UNL     1     -10.771  15.047  70.267  1.00  0.00     0.000 HD 
ENDROOT
BRANCH   2   4
HETATM    4  C   UNL     1     -10.402  13.878  67.188  1.00  0.00    -0.265 C  
HETATM    5  O   UNL     1      -9.367  13.159  66.498  1.00  0.00    -0.252 OA 
HETATM    6  C   UNL     1      -9.335  11.753  66.761  1.00  0.00    -0.194 C  
HETATM    7  O   UNL     1     -12.188  13.764  65.567  1.00  0.00    -0.387 OA 
HETATM    8  C   UNL     1     -10.641  11.132  66.215  1.00  0.00    -0.253 C  
HETATM    9  O   UNL     1     -10.750  11.374  64.794  1.00  0.00    -0.299 OA 
HETATM   10  C   UNL     1     -11.859  11.763  66.910  1.00  0.00    -0.006 C  
HETATM   11  H   UNL     1     -13.050  13.411  65.375  1.00  0.00     0.000 HD 
HETATM   12  H   UNL     1     -11.553  10.992  64.458  1.00  0.00     0.000 HD 
HETATM   13  O   UNL     1     -12.004  11.256  68.239  1.00  0.00    -0.582 OA 
HETATM   14  H   UNL     1     -12.756  11.645  68.669  1.00  0.00     0.000 HD 
HETATM   15  C   UNL     1     -11.799  13.306  66.876  1.00  0.00    -0.392 C  
BRANCH   6  16
HETATM   16  O   UNL     1      -8.214  11.134  66.090  1.00  0.00    -0.169 OA 
BRANCH  16  17
HETATM   17  C   UNL     1      -7.992   9.825  66.444  1.00  0.00    -0.109 A  
HETATM   18  C   UNL     1      -7.889   8.902  65.402  1.00  0.00    -0.102 A  
HETATM   19  C   UNL     1      -7.528   7.123  66.988  1.00  0.00    -0.097 A  
HETATM   20  C   UNL     1      -7.664   7.544  65.672  1.00  0.00    -0.100 A  
HETATM   21  C   UNL     1      -7.594   8.032  68.033  1.00  0.00    -0.112 A  
HETATM   22  O   UNL     1      -7.319   5.815  67.311  1.00  0.00    -0.074 OA 
HETATM   23  C   UNL     1      -7.817   9.382  67.758  1.00  0.00    -0.095 A  
HETATM   24  H   UNL     1      -7.226   5.527  68.212  1.00  0.00     0.000 HD 
ENDBRANCH  16  17
ENDBRANCH   6  16
ENDBRANCH   2   4
TORSDOF 3
ENDMDL
MODEL      151
REMARK 921   NORMALIZED FREE ENERGY PREDICTED BY IDOCK:   -3.28 KCAL/MOL
REMARK 922        TOTAL FREE ENERGY PREDICTED BY IDOCK:   -4.30 KCAL/MOL
REMARK 923 INTER-LIGAND FREE ENERGY PREDICTED BY IDOCK:   -3.92 KCAL/MOL
REMARK 924 INTRA-LIGAND FREE ENERGY PREDICTED BY IDOCK:   -0.38 KCAL/MOL
REMARK 927      BINDING AFFINITY PREDICTED BY RF-SCORE:    0.00 PKD
ROOT
HETATM    1  O   UNL     1      -8.785   8.579  73.366  1.00  0.00    -0.331 OA 
HETATM    2  C   UNL     1      -8.917   7.986  72.076  1.00  0.00    -0.156 C  
HETATM    3  H   UNL     1      -8.804   7.940  74.069  1.00  0.00     0.000 HD 
ENDROOT
BRANCH   2   4
HETATM    4  C   UNL     1      -8.885   9.023  70.937  1.00  0.00    -0.240 C  
HETATM    5  O   UNL     1      -8.144   8.548  69.802  1.00  0.00    -0.110 OA 
HETATM    6  C   UNL     1      -8.807   7.542  69.030  1.00  0.00    -0.132 C  
HETATM    7  O   UNL     1     -10.075  10.881  69.955  1.00  0.00    -0.414 OA 
HETATM    8  C   UNL     1     -10.074   8.171  68.406  1.00  0.00    -0.200 C  
HETATM    9  O   UNL     1      -9.711   9.289  67.565  1.00  0.00    -0.147 OA 
HETATM   10  C   UNL     1     -11.013   8.680  69.513  1.00  0.00    -0.055 C  
HETATM   11  H   UNL     1     -10.926  11.220  69.702  1.00  0.00     0.000 HD 
HETATM   12  H   UNL     1     -10.489   9.675  67.181  1.00  0.00     0.000 HD 
HETATM   13  O   UNL     1     -11.690   7.592  70.145  1.00  0.00    -0.489 OA 
HETATM   14  H   UNL     1     -12.271   7.907  70.828  1.00  0.00     0.000 HD 
HETATM   15  C   UNL     1     -10.266   9.573  70.528  1.00  0.00    -0.287 C  
BRANCH   6  16
HETATM   16  O   UNL     1      -7.953   7.070  67.964  1.00  0.00    -0.112 OA 
BRANCH  16  17
HETATM   17  C   UNL     1      -8.416   5.948  67.319  1.00  0.00    -0.103 A  
HETATM   18  C   UNL     1      -8.416   5.983  65.923  1.00  0.00    -0.143 A  
HETATM   19  C   UNL     1      -9.311   3.746  65.851  1.00  0.00    -0.167 A  
HETATM   20  C   UNL     1      -8.872   4.882  65.184  1.00  0.00    -0.153 A  
HETATM   21  C   UNL     1      -9.286   3.683  67.235  1.00  0.00    -0.215 A  
HETATM   22  O   UNL     1      -9.775   2.650  65.185  1.00  0.00    -0.347 OA 
HETATM   23  C   UNL     1      -8.830   4.780  67.966  1.00  0.00    -0.115 A  
HETATM   24  H   UNL     1     -10.075   1.872  65.641  1.00  0.00     0.000 HD 
ENDBRANCH  16  17
ENDBRANCH   6  16
ENDBRANCH   2   4
TORSDOF 3
ENDMDL
MODEL      152
REMARK 921   NORMALIZED FREE ENERGY PREDICTED BY IDOCK:   -3.23 KCAL/MOL
REMARK 922        TOTAL FREE ENERGY PREDICTED BY IDOCK:   -4.25 KCAL/MOL
REMARK 923 INTER-LIGAND FREE ENERGY PREDICTED BY IDOCK:   -3.86 KCAL/MOL
REMARK 924 INTRA-LIGAND FREE ENERGY PREDICTED BY IDOCK:   -0.38 KCAL/MOL
REMARK 927      BINDING AFFINITY PREDICTED BY RF-SCORE:    0.00 PKD
ROOT
HETATM    1  O   UNL     1     -11.708   7.872  73.209  1.00  0.00    -0.632 OA 
HETATM    2  C   UNL     1     -10.829   7.049  72.446  1.00  0.00    -0.240 C  
HETATM    3  H   UNL     1     -12.482   7.407  73.506  1.00  0.00     0.000 HD 
ENDROOT
BRANCH   2   4
HETATM    4  C   UNL     1      -9.573   7.803  71.967  1.00  0.00    -0.168 C  
HETATM    5  O   UNL     1      -8.550   6.903  71.512  1.00  0.00    -0.122 OA 
HETATM    6  C   UNL     1      -8.810   6.287  70.248  1.00  0.00    -0.153 C  
HETATM    7  O   UNL     1      -8.783   9.889  71.042  1.00  0.00    -0.279 OA 
HETATM    8  C   UNL     1      -8.833   7.393  69.169  1.00  0.00    -0.136 C  
HETATM    9  O   UNL     1      -7.563   8.083  69.138  1.00  0.00    -0.093 OA 
HETATM   10  C   UNL     1      -9.935   8.419  69.484  1.00  0.00    -0.190 C  
HETATM   11  H   UNL     1      -8.951  10.579  70.410  1.00  0.00     0.000 HD 
HETATM   12  H   UNL     1      -7.576   8.763  68.474  1.00  0.00     0.000 HD 
HETATM   13  O   UNL     1     -11.225   7.889  69.172  1.00  0.00    -0.421 OA 
HETATM   14  H   UNL     1     -11.907   8.522  69.366  1.00  0.00     0.000 HD 
HETATM   15  C   UNL     1      -9.845   8.922  70.942  1.00  0.00    -0.242 C  
BRANCH   6  16
HETATM   16  O   UNL     1      -7.769   5.341  69.916  1.00  0.00    -0.067 OA 
BRANCH  16  17
HETATM   17  C   UNL     1      -8.110   4.439  68.937  1.00  0.00    -0.072 A  
HETATM   18  C   UNL     1      -9.112   3.519  69.254  1.00  0.00    -0.200 A  
HETATM   19  C   UNL     1      -8.935   2.545  67.056  1.00  0.00    -0.146 A  
HETATM   20  C   UNL     1      -9.522   2.562  68.314  1.00  0.00    -0.222 A  
HETATM   21  C   UNL     1      -7.964   3.472  66.715  1.00  0.00    -0.084 A  
HETATM   22  O   UNL     1      -9.286   1.631  66.106  1.00  0.00    -0.319 OA 
HETATM   23  C   UNL     1      -7.560   4.423  67.653  1.00  0.00    -0.077 A  
HETATM   24  H   UNL     1      -8.885   1.619  65.245  1.00  0.00     0.000 HD 
ENDBRANCH  16  17
ENDBRANCH   6  16
ENDBRANCH   2   4
TORSDOF 3
ENDMDL
MODEL      153
REMARK 921   NORMALIZED FREE ENERGY PREDICTED BY IDOCK:   -3.20 KCAL/MOL
REMARK 922        TOTAL FREE ENERGY PREDICTED BY IDOCK:   -4.21 KCAL/MOL
REMARK 923 INTER-LIGAND FREE ENERGY PREDICTED BY IDOCK:   -4.11 KCAL/MOL
REMARK 924 INTRA-LIGAND FREE ENERGY PREDICTED BY IDOCK:   -0.09 KCAL/MOL
REMARK 927      BINDING AFFINITY PREDICTED BY RF-SCORE:    0.00 PKD
ROOT
HETATM    1  O   UNL     1     -11.254  12.125  63.203  1.00  0.00    -0.679 OA 
HETATM    2  C   UNL     1     -10.511  11.033  63.741  1.00  0.00    -0.341 C  
HETATM    3  H   UNL     1     -12.145  11.886  62.973  1.00  0.00     0.000 HD 
ENDROOT
BRANCH   2   4
HETATM    4  C   UNL     1      -9.068  11.420  64.114  1.00  0.00     0.116 C  
HETATM    5  O   UNL     1      -8.958  11.811  65.492  1.00  0.00    -0.064 OA 
HETATM    6  C   UNL     1      -9.041  10.735  66.430  1.00  0.00    -0.171 C  
HETATM    7  O   UNL     1      -6.745  11.060  63.561  1.00  0.00    -0.213 OA 
HETATM    8  C   UNL     1      -7.820   9.812  66.212  1.00  0.00    -0.106 C  
HETATM    9  O   UNL     1      -6.595  10.553  66.407  1.00  0.00    -0.090 OA 
HETATM   10  C   UNL     1      -7.827   9.253  64.779  1.00  0.00    -0.118 C  
HETATM   11  H   UNL     1      -6.087  10.416  63.325  1.00  0.00     0.000 HD 
HETATM   12  H   UNL     1      -5.845   9.986  66.273  1.00  0.00     0.000 HD 
HETATM   13  O   UNL     1      -8.811   8.226  64.639  1.00  0.00    -0.406 OA 
HETATM   14  H   UNL     1      -8.815   7.881  63.753  1.00  0.00     0.000 HD 
HETATM   15  C   UNL     1      -8.001  10.376  63.731  1.00  0.00    -0.086 C  
BRANCH   6  16
HETATM   16  O   UNL     1      -9.004  11.234  67.786  1.00  0.00    -0.136 OA 
BRANCH  16  17
HETATM   17  C   UNL     1      -9.544  12.487  67.945  1.00  0.00    -0.206 A  
HETATM   18  C   UNL     1     -10.882  12.549  68.341  1.00  0.00    -0.266 A  
HETATM   19  C   UNL     1     -10.794  14.958  68.328  1.00  0.00    -0.257 A  
HETATM   20  C   UNL     1     -11.514  13.787  68.526  1.00  0.00    -0.342 A  
HETATM   21  C   UNL     1      -9.456  14.914  67.969  1.00  0.00    -0.198 A  
HETATM   22  O   UNL     1     -11.359  16.189  68.483  1.00  0.00    -0.359 OA 
HETATM   23  C   UNL     1      -8.832  13.680  67.787  1.00  0.00    -0.190 A  
HETATM   24  H   UNL     1     -10.866  16.990  68.348  1.00  0.00     0.000 HD 
ENDBRANCH  16  17
ENDBRANCH   6  16
ENDBRANCH   2   4
TORSDOF 3
ENDMDL
MODEL      154
REMARK 921   NORMALIZED FREE ENERGY PREDICTED BY IDOCK:   -3.15 KCAL/MOL
REMARK 922        TOTAL FREE ENERGY PREDICTED BY IDOCK:   -4.15 KCAL/MOL
REMARK 923 INTER-LIGAND FREE ENERGY PREDICTED BY IDOCK:   -4.01 KCAL/MOL
REMARK 924 INTRA-LIGAND FREE ENERGY PREDICTED BY IDOCK:   -0.14 KCAL/MOL
REMARK 927      BINDING AFFINITY PREDICTED BY RF-SCORE:    0.00 PKD
ROOT
HETATM    1  O   UNL     1      -7.120  14.559  68.015  1.00  0.00    -0.109 OA 
HETATM    2  C   UNL     1      -8.380  15.160  68.304  1.00  0.00    -0.149 C  
HETATM    3  H   UNL     1      -6.457  14.764  68.664  1.00  0.00     0.000 HD 
ENDROOT
BRANCH   2   4
HETATM    4  C   UNL     1      -9.455  14.827  67.251  1.00  0.00    -0.214 C  
HETATM    5  O   UNL     1      -9.523  13.417  66.983  1.00  0.00    -0.230 OA 
HETATM    6  C   UNL     1     -10.125  12.638  68.020  1.00  0.00    -0.229 C  
HETATM    7  O   UNL     1     -11.541  15.571  66.288  1.00  0.00    -0.017 OA 
HETATM    8  C   UNL     1     -11.607  13.061  68.142  1.00  0.00    -0.341 C  
HETATM    9  O   UNL     1     -12.292  12.841  66.888  1.00  0.00    -0.412 OA 
HETATM   10  C   UNL     1     -11.704  14.556  68.493  1.00  0.00    -0.318 C  
HETATM   11  H   UNL     1     -12.400  15.937  66.467  1.00  0.00     0.000 HD 
HETATM   12  H   UNL     1     -13.202  13.101  66.963  1.00  0.00     0.000 HD 
HETATM   13  O   UNL     1     -11.379  14.777  69.867  1.00  0.00    -0.255 OA 
HETATM   14  H   UNL     1     -11.439  15.700  70.083  1.00  0.00     0.000 HD 
HETATM   15  C   UNL     1     -10.847  15.420  67.541  1.00  0.00    -0.305 C  
BRANCH   6  16
HETATM   16  O   UNL     1     -10.073  11.230  67.697  1.00  0.00    -0.176 OA 
BRANCH  16  17
HETATM   17  C   UNL     1      -9.350  10.932  66.568  1.00  0.00    -0.173 A  
HETATM   18  C   UNL     1      -7.994  10.651  66.747  1.00  0.00    -0.132 A  
HETATM   19  C   UNL     1      -7.736  10.293  64.377  1.00  0.00    -0.104 A  
HETATM   20  C   UNL     1      -7.180  10.338  65.649  1.00  0.00    -0.148 A  
HETATM   21  C   UNL     1      -9.087  10.536  64.186  1.00  0.00    -0.258 A  
HETATM   22  O   UNL     1      -6.992  10.005  63.272  1.00  0.00    -0.124 OA 
HETATM   23  C   UNL     1      -9.893  10.846  65.282  1.00  0.00    -0.318 A  
HETATM   24  H   UNL     1      -7.372   9.974  62.402  1.00  0.00     0.000 HD 
ENDBRANCH  16  17
ENDBRANCH   6  16
ENDBRANCH   2   4
TORSDOF 3
ENDMDL
MODEL      155
REMARK 921   NORMALIZED FREE ENERGY PREDICTED BY IDOCK:   -3.09 KCAL/MOL
REMARK 922        TOTAL FREE ENERGY PREDICTED BY IDOCK:   -4.08 KCAL/MOL
REMARK 923 INTER-LIGAND FREE ENERGY PREDICTED BY IDOCK:   -3.69 KCAL/MOL
REMARK 924 INTRA-LIGAND FREE ENERGY PREDICTED BY IDOCK:   -0.39 KCAL/MOL
REMARK 927      BINDING AFFINITY PREDICTED BY RF-SCORE:    0.00 PKD
ROOT
HETATM    1  O   UNL     1      -8.295   4.742  68.490  1.00  0.00    -0.084 OA 
HETATM    2  C   UNL     1      -9.207   5.494  69.288  1.00  0.00    -0.113 C  
HETATM    3  H   UNL     1      -8.727   4.260  67.793  1.00  0.00     0.000 HD 
ENDROOT
BRANCH   2   4
HETATM    4  C   UNL     1      -8.507   6.276  70.416  1.00  0.00    -0.134 C  
HETATM    5  O   UNL     1      -8.600   7.696  70.220  1.00  0.00    -0.139 OA 
HETATM    6  C   UNL     1      -9.893   8.253  70.471  1.00  0.00    -0.183 C  
HETATM    7  O   UNL     1      -7.846   6.182  72.737  1.00  0.00    -0.105 OA 
HETATM    8  C   UNL     1     -10.214   8.067  71.972  1.00  0.00    -0.226 C  
HETATM    9  O   UNL     1      -9.217   8.732  72.780  1.00  0.00    -0.305 OA 
HETATM   10  C   UNL     1     -10.214   6.572  72.333  1.00  0.00    -0.185 C  
HETATM   11  H   UNL     1      -8.107   5.931  73.616  1.00  0.00     0.000 HD 
HETATM   12  H   UNL     1      -9.413   8.618  73.702  1.00  0.00     0.000 HD 
HETATM   13  O   UNL     1     -11.399   5.933  71.853  1.00  0.00    -0.276 OA 
HETATM   14  H   UNL     1     -11.399   5.010  72.076  1.00  0.00     0.000 HD 
HETATM   15  C   UNL     1      -8.929   5.868  71.841  1.00  0.00    -0.138 C  
BRANCH   6  16
HETATM   16  O   UNL     1      -9.909   9.667  70.168  1.00  0.00    -0.233 OA 
BRANCH  16  17
HETATM   17  C   UNL     1      -9.630   9.970  68.858  1.00  0.00    -0.181 A  
HETATM   18  C   UNL     1      -8.536  10.807  68.627  1.00  0.00    -0.151 A  
HETATM   19  C   UNL     1      -8.917  10.677  66.250  1.00  0.00    -0.165 A  
HETATM   20  C   UNL     1      -8.181  11.170  67.320  1.00  0.00    -0.136 A  
HETATM   21  C   UNL     1      -9.984   9.819  66.460  1.00  0.00    -0.304 A  
HETATM   22  O   UNL     1      -8.624  11.004  64.959  1.00  0.00    -0.346 OA 
HETATM   23  C   UNL     1     -10.333   9.460  67.763  1.00  0.00    -0.291 A  
HETATM   24  H   UNL     1      -9.128  10.667  64.227  1.00  0.00     0.000 HD 
ENDBRANCH  16  17
ENDBRANCH   6  16
ENDBRANCH   2   4
TORSDOF 3
ENDMDL
MODEL      156
REMARK 921   NORMALIZED FREE ENERGY PREDICTED BY IDOCK:   -3.03 KCAL/MOL
REMARK 922        TOTAL FREE ENERGY PREDICTED BY IDOCK:   -4.01 KCAL/MOL
REMARK 923 INTER-LIGAND FREE ENERGY PREDICTED BY IDOCK:   -3.67 KCAL/MOL
REMARK 924 INTRA-LIGAND FREE ENERGY PREDICTED BY IDOCK:   -0.35 KCAL/MOL
REMARK 927      BINDING AFFINITY PREDICTED BY RF-SCORE:    0.00 PKD
ROOT
HETATM    1  O   UNL     1      -9.165   6.478  73.533  1.00  0.00    -0.130 OA 
HETATM    2  C   UNL     1      -9.828   6.903  72.345  1.00  0.00    -0.157 C  
HETATM    3  H   UNL     1      -8.573   5.750  73.384  1.00  0.00     0.000 HD 
ENDROOT
BRANCH   2   4
HETATM    4  C   UNL     1     -10.788   8.084  72.587  1.00  0.00    -0.368 C  
HETATM    5  O   UNL     1     -10.345   9.278  71.921  1.00  0.00    -0.286 OA 
HETATM    6  C   UNL     1     -10.517   9.272  70.501  1.00  0.00    -0.255 C  
HETATM    7  O   UNL     1     -13.077   8.669  73.088  1.00  0.00    -0.765 OA 
HETATM    8  C   UNL     1     -12.032   9.223  70.200  1.00  0.00     0.203 C  
HETATM    9  O   UNL     1     -12.692  10.371  70.779  1.00  0.00    -0.340 OA 
HETATM   10  C   UNL     1     -12.652   7.951  70.803  1.00  0.00     0.133 C  
HETATM   11  H   UNL     1     -13.991   8.482  72.905  1.00  0.00     0.000 HD 
HETATM   12  H   UNL     1     -13.623  10.341  70.594  1.00  0.00     0.000 HD 
HETATM   13  O   UNL     1     -12.314   6.802  70.023  1.00  0.00    -0.605 OA 
HETATM   14  H   UNL     1     -12.697   6.016  70.395  1.00  0.00     0.000 HD 
HETATM   15  C   UNL     1     -12.270   7.782  72.290  1.00  0.00    -0.256 C  
BRANCH   6  16
HETATM   16  O   UNL     1      -9.969  10.474  69.915  1.00  0.00    -0.138 OA 
BRANCH  16  17
HETATM   17  C   UNL     1      -8.880  10.266  69.103  1.00  0.00    -0.176 A  
HETATM   18  C   UNL     1      -7.789   9.608  69.674  1.00  0.00    -0.129 A  
HETATM   19  C   UNL     1      -6.589   9.751  67.588  1.00  0.00    -0.068 A  
HETATM   20  C   UNL     1      -6.635   9.355  68.919  1.00  0.00    -0.047 A  
HETATM   21  C   UNL     1      -7.676  10.374  66.997  1.00  0.00    -0.105 A  
HETATM   22  O   UNL     1      -5.490   9.541  66.808  1.00  0.00    -0.044 OA 
HETATM   23  C   UNL     1      -8.823  10.623  67.753  1.00  0.00    -0.133 A  
HETATM   24  H   UNL     1      -5.459   9.811  65.898  1.00  0.00     0.000 HD 
ENDBRANCH  16  17
ENDBRANCH   6  16
ENDBRANCH   2   4
TORSDOF 3
ENDMDL
MODEL      157
REMARK 921   NORMALIZED FREE ENERGY PREDICTED BY IDOCK:   -3.00 KCAL/MOL
REMARK 922        TOTAL FREE ENERGY PREDICTED BY IDOCK:   -3.98 KCAL/MOL
REMARK 923 INTER-LIGAND FREE ENERGY PREDICTED BY IDOCK:   -3.61 KCAL/MOL
REMARK 924 INTRA-LIGAND FREE ENERGY PREDICTED BY IDOCK:   -0.37 KCAL/MOL
REMARK 927      BINDING AFFINITY PREDICTED BY RF-SCORE:    0.00 PKD
ROOT
HETATM    1  O   UNL     1      -9.602   2.251  68.414  1.00  0.00    -0.201 OA 
HETATM    2  C   UNL     1      -9.429   3.334  69.326  1.00  0.00    -0.129 C  
HETATM    3  H   UNL     1     -10.326   1.683  68.651  1.00  0.00     0.000 HD 
ENDROOT
BRANCH   2   4
HETATM    4  C   UNL     1      -8.256   4.256  68.940  1.00  0.00    -0.075 C  
HETATM    5  O   UNL     1      -8.663   5.631  68.852  1.00  0.00    -0.107 OA 
HETATM    6  C   UNL     1      -8.908   6.267  70.109  1.00  0.00    -0.149 C  
HETATM    7  O   UNL     1      -5.855   4.500  69.029  1.00  0.00    -0.016 OA 
HETATM    8  C   UNL     1      -7.573   6.328  70.886  1.00  0.00    -0.096 C  
HETATM    9  O   UNL     1      -6.592   7.074  70.130  1.00  0.00    -0.045 OA 
HETATM   10  C   UNL     1      -7.030   4.908  71.119  1.00  0.00    -0.051 C  
HETATM   11  H   UNL     1      -5.076   4.398  69.565  1.00  0.00     0.000 HD 
HETATM   12  H   UNL     1      -5.772   7.112  70.607  1.00  0.00     0.000 HD 
HETATM   13  O   UNL     1      -7.766   4.246  72.151  1.00  0.00    -0.076 OA 
HETATM   14  H   UNL     1      -7.430   3.369  72.295  1.00  0.00     0.000 HD 
HETATM   15  C   UNL     1      -6.993   4.090  69.809  1.00  0.00    -0.042 C  
BRANCH   6  16
HETATM   16  O   UNL     1      -9.390   7.616  69.914  1.00  0.00    -0.151 OA 
BRANCH  16  17
HETATM   17  C   UNL     1     -10.553   7.907  70.585  1.00  0.00    -0.219 A  
HETATM   18  C   UNL     1     -11.021   9.219  70.489  1.00  0.00    -0.318 A  
HETATM   19  C   UNL     1     -12.912   8.665  71.878  1.00  0.00    -0.372 A  
HETATM   20  C   UNL     1     -12.200   9.604  71.143  1.00  0.00    -0.437 A  
HETATM   21  C   UNL     1     -12.479   7.351  71.956  1.00  0.00    -0.280 A  
HETATM   22  O   UNL     1     -14.058   8.984  72.544  1.00  0.00    -0.539 OA 
HETATM   23  C   UNL     1     -11.306   6.972  71.302  1.00  0.00    -0.309 A  
HETATM   24  H   UNL     1     -14.545   8.342  73.047  1.00  0.00     0.000 HD 
ENDBRANCH  16  17
ENDBRANCH   6  16
ENDBRANCH   2   4
TORSDOF 3
ENDMDL
MODEL      158
REMARK 921   NORMALIZED FREE ENERGY PREDICTED BY IDOCK:   -2.97 KCAL/MOL
REMARK 922        TOTAL FREE ENERGY PREDICTED BY IDOCK:   -3.94 KCAL/MOL
REMARK 923 INTER-LIGAND FREE ENERGY PREDICTED BY IDOCK:   -3.55 KCAL/MOL
REMARK 924 INTRA-LIGAND FREE ENERGY PREDICTED BY IDOCK:   -0.39 KCAL/MOL
REMARK 927      BINDING AFFINITY PREDICTED BY RF-SCORE:    0.00 PKD
ROOT
HETATM    1  O   UNL     1     -11.676  11.160  69.697  1.00  0.00    -0.276 OA 
HETATM    2  C   UNL     1     -11.453  10.179  70.708  1.00  0.00    -0.357 C  
HETATM    3  H   UNL     1     -11.777  12.036  70.050  1.00  0.00     0.000 HD 
ENDROOT
BRANCH   2   4
HETATM    4  C   UNL     1     -11.287   8.759  70.135  1.00  0.00    -0.090 C  
HETATM    5  O   UNL     1      -9.948   8.521  69.674  1.00  0.00    -0.185 OA 
HETATM    6  C   UNL     1      -8.978   8.346  70.710  1.00  0.00    -0.155 C  
HETATM    7  O   UNL     1     -12.137   6.501  70.239  1.00  0.00    -0.512 OA 
HETATM    8  C   UNL     1      -9.332   7.059  71.489  1.00  0.00    -0.154 C  
HETATM    9  O   UNL     1      -9.324   5.921  70.599  1.00  0.00    -0.156 OA 
HETATM   10  C   UNL     1     -10.736   7.183  72.107  1.00  0.00    -0.215 C  
HETATM   11  H   UNL     1     -12.441   5.804  70.810  1.00  0.00     0.000 HD 
HETATM   12  H   UNL     1      -9.542   5.130  71.078  1.00  0.00     0.000 HD 
HETATM   13  O   UNL     1     -10.713   8.041  73.250  1.00  0.00    -0.272 OA 
HETATM   14  H   UNL     1     -11.580   8.117  73.632  1.00  0.00     0.000 HD 
HETATM   15  C   UNL     1     -11.781   7.629  71.060  1.00  0.00    -0.286 C  
BRANCH   6  16
HETATM   16  O   UNL     1      -7.653   8.196  70.150  1.00  0.00    -0.074 OA 
BRANCH  16  17
HETATM   17  C   UNL     1      -7.221   9.273  69.416  1.00  0.00    -0.068 A  
HETATM   18  C   UNL     1      -6.932   9.040  68.070  1.00  0.00    -0.077 A  
HETATM   19  C   UNL     1      -6.342  11.358  67.775  1.00  0.00    -0.057 A  
HETATM   20  C   UNL     1      -6.484  10.082  67.246  1.00  0.00    -0.068 A  
HETATM   21  C   UNL     1      -6.656  11.614  69.101  1.00  0.00    -0.101 A  
HETATM   22  O   UNL     1      -5.900  12.408  67.025  1.00  0.00    -0.299 OA 
HETATM   23  C   UNL     1      -7.103  10.574  69.916  1.00  0.00    -0.148 A  
HETATM   24  H   UNL     1      -5.803  13.281  67.387  1.00  0.00     0.000 HD 
ENDBRANCH  16  17
ENDBRANCH   6  16
ENDBRANCH   2   4
TORSDOF 3
ENDMDL
MODEL      159
REMARK 921   NORMALIZED FREE ENERGY PREDICTED BY IDOCK:   -2.93 KCAL/MOL
REMARK 922        TOTAL FREE ENERGY PREDICTED BY IDOCK:   -3.89 KCAL/MOL
REMARK 923 INTER-LIGAND FREE ENERGY PREDICTED BY IDOCK:   -3.78 KCAL/MOL
REMARK 924 INTRA-LIGAND FREE ENERGY PREDICTED BY IDOCK:   -0.11 KCAL/MOL
REMARK 927      BINDING AFFINITY PREDICTED BY RF-SCORE:    0.00 PKD
ROOT
HETATM    1  O   UNL     1      -7.889  13.839  68.089  1.00  0.00    -0.125 OA 
HETATM    2  C   UNL     1      -9.274  13.862  68.426  1.00  0.00    -0.194 C  
HETATM    3  H   UNL     1      -7.388  14.506  68.545  1.00  0.00     0.000 HD 
ENDROOT
BRANCH   2   4
HETATM    4  C   UNL     1     -10.085  12.780  67.688  1.00  0.00    -0.220 C  
HETATM    5  O   UNL     1      -9.473  11.485  67.796  1.00  0.00    -0.161 OA 
HETATM    6  C   UNL     1      -9.592  10.869  69.081  1.00  0.00    -0.106 C  
HETATM    7  O   UNL     1     -12.299  12.172  66.939  1.00  0.00    -0.402 OA 
HETATM    8  C   UNL     1     -11.090  10.590  69.343  1.00  0.00    -0.258 C  
HETATM    9  O   UNL     1     -11.620   9.719  68.319  1.00  0.00    -0.504 OA 
HETATM   10  C   UNL     1     -11.886  11.906  69.322  1.00  0.00    -0.318 C  
HETATM   11  H   UNL     1     -13.222  12.144  67.165  1.00  0.00     0.000 HD 
HETATM   12  H   UNL     1     -12.540   9.548  68.480  1.00  0.00     0.000 HD 
HETATM   13  O   UNL     1     -11.667  12.652  70.521  1.00  0.00    -0.529 OA 
HETATM   14  H   UNL     1     -12.159  13.465  70.508  1.00  0.00     0.000 HD 
HETATM   15  C   UNL     1     -11.582  12.735  68.054  1.00  0.00    -0.341 C  
BRANCH   6  16
HETATM   16  O   UNL     1      -8.877   9.614  69.114  1.00  0.00    -0.140 OA 
BRANCH  16  17
HETATM   17  C   UNL     1      -8.009   9.425  68.066  1.00  0.00    -0.092 A  
HETATM   18  C   UNL     1      -6.667   9.732  68.299  1.00  0.00    -0.060 A  
HETATM   19  C   UNL     1      -6.109   9.087  66.045  1.00  0.00    -0.052 A  
HETATM   20  C   UNL     1      -5.713   9.571  67.285  1.00  0.00    -0.040 A  
HETATM   21  C   UNL     1      -7.431   8.746  65.807  1.00  0.00    -0.085 A  
HETATM   22  O   UNL     1      -5.227   8.920  65.018  1.00  0.00    -0.037 OA 
HETATM   23  C   UNL     1      -8.377   8.907  66.821  1.00  0.00    -0.111 A  
HETATM   24  H   UNL     1      -5.498   8.589  64.170  1.00  0.00     0.000 HD 
ENDBRANCH  16  17
ENDBRANCH   6  16
ENDBRANCH   2   4
TORSDOF 3
ENDMDL
MODEL      160
REMARK 921   NORMALIZED FREE ENERGY PREDICTED BY IDOCK:   -2.92 KCAL/MOL
REMARK 922        TOTAL FREE ENERGY PREDICTED BY IDOCK:   -3.88 KCAL/MOL
REMARK 923 INTER-LIGAND FREE ENERGY PREDICTED BY IDOCK:   -4.07 KCAL/MOL
REMARK 924 INTRA-LIGAND FREE ENERGY PREDICTED BY IDOCK:    0.19 KCAL/MOL
REMARK 927      BINDING AFFINITY PREDICTED BY RF-SCORE:    0.00 PKD
ROOT
HETATM    1  O   UNL     1      -7.100   8.620  69.497  1.00  0.00    -0.053 OA 
HETATM    2  C   UNL     1      -8.334   9.298  69.725  1.00  0.00    -0.142 C  
HETATM    3  H   UNL     1      -6.505   8.681  70.234  1.00  0.00     0.000 HD 
ENDROOT
BRANCH   2   4
HETATM    4  C   UNL     1      -9.300   9.198  68.529  1.00  0.00    -0.135 C  
HETATM    5  O   UNL     1     -10.417  10.091  68.668  1.00  0.00    -0.187 OA 
HETATM    6  C   UNL     1     -10.110  11.472  68.459  1.00  0.00    -0.207 C  
HETATM    7  O   UNL     1      -9.453   8.644  66.184  1.00  0.00    -0.223 OA 
HETATM    8  C   UNL     1      -9.676  11.652  66.987  1.00  0.00    -0.186 C  
HETATM    9  O   UNL     1     -10.739  11.236  66.101  1.00  0.00    -0.265 OA 
HETATM   10  C   UNL     1      -8.433  10.794  66.692  1.00  0.00    -0.142 C  
HETATM   11  H   UNL     1      -9.040   8.726  65.331  1.00  0.00     0.000 HD 
HETATM   12  H   UNL     1     -10.473  11.346  65.196  1.00  0.00     0.000 HD 
HETATM   13  O   UNL     1      -7.262  11.384  67.259  1.00  0.00    -0.103 OA 
HETATM   14  H   UNL     1      -6.495  10.854  67.077  1.00  0.00     0.000 HD 
HETATM   15  C   UNL     1      -8.631   9.331  67.147  1.00  0.00    -0.128 C  
BRANCH   6  16
HETATM   16  O   UNL     1     -11.273  12.296  68.701  1.00  0.00    -0.222 OA 
BRANCH  16  17
HETATM   17  C   UNL     1     -11.004  13.637  68.826  1.00  0.00    -0.264 A  
HETATM   18  C   UNL     1     -11.721  14.333  69.802  1.00  0.00    -0.367 A  
HETATM   19  C   UNL     1     -10.569  16.370  69.223  1.00  0.00    -0.311 A  
HETATM   20  C   UNL     1     -11.511  15.705  69.998  1.00  0.00    -0.352 A  
HETATM   21  C   UNL     1      -9.825  15.688  68.274  1.00  0.00    -0.209 A  
HETATM   22  O   UNL     1     -10.330  17.705  69.362  1.00  0.00    -0.342 OA 
HETATM   23  C   UNL     1     -10.037  14.322  68.084  1.00  0.00    -0.232 A  
HETATM   24  H   UNL     1      -9.685  18.159  68.832  1.00  0.00     0.000 HD 
ENDBRANCH  16  17
ENDBRANCH   6  16
ENDBRANCH   2   4
TORSDOF 3
ENDMDL
MODEL      161
REMARK 921   NORMALIZED FREE ENERGY PREDICTED BY IDOCK:   -2.88 KCAL/MOL
REMARK 922        TOTAL FREE ENERGY PREDICTED BY IDOCK:   -3.83 KCAL/MOL
REMARK 923 INTER-LIGAND FREE ENERGY PREDICTED BY IDOCK:   -3.85 KCAL/MOL
REMARK 924 INTRA-LIGAND FREE ENERGY PREDICTED BY IDOCK:    0.03 KCAL/MOL
REMARK 927      BINDING AFFINITY PREDICTED BY RF-SCORE:    0.00 PKD
ROOT
HETATM    1  O   UNL     1     -10.323  14.971  72.655  1.00  0.00     1.159 OA 
HETATM    2  C   UNL     1     -11.685  15.258  72.964  1.00  0.00    -0.340 C  
HETATM    3  H   UNL     1      -9.832  14.664  73.408  1.00  0.00     0.000 HD 
ENDROOT
BRANCH   2   4
HETATM    4  C   UNL     1     -12.482  15.754  71.743  1.00  0.00    -0.459 C  
HETATM    5  O   UNL     1     -11.661  16.511  70.840  1.00  0.00    -0.280 OA 
HETATM    6  C   UNL     1     -10.737  15.734  70.073  1.00  0.00    -0.341 C  
HETATM    7  O   UNL     1     -14.390  15.288  70.336  1.00  0.00    -0.233 OA 
HETATM    8  C   UNL     1     -11.547  14.804  69.141  1.00  0.00    -0.303 C  
HETATM    9  O   UNL     1     -12.389  15.588  68.266  1.00  0.00    -0.410 OA 
HETATM   10  C   UNL     1     -12.445  13.872  69.972  1.00  0.00    -0.266 C  
HETATM   11  H   UNL     1     -14.882  14.613  69.882  1.00  0.00     0.000 HD 
HETATM   12  H   UNL     1     -12.887  15.017  67.693  1.00  0.00     0.000 HD 
HETATM   13  O   UNL     1     -11.675  12.832  70.578  1.00  0.00    -0.531 OA 
HETATM   14  H   UNL     1     -12.229  12.256  71.091  1.00  0.00     0.000 HD 
HETATM   15  C   UNL     1     -13.281  14.660  71.006  1.00  0.00    -0.374 C  
BRANCH   6  16
HETATM   16  O   UNL     1      -9.902  16.589  69.259  1.00  0.00    -0.257 OA 
BRANCH  16  17
HETATM   17  C   UNL     1      -8.742  15.998  68.819  1.00  0.00    -0.223 A  
HETATM   18  C   UNL     1      -8.321  16.328  67.529  1.00  0.00    -0.174 A  
HETATM   19  C   UNL     1      -6.396  14.898  67.773  1.00  0.00    -0.155 A  
HETATM   20  C   UNL     1      -7.148  15.772  66.999  1.00  0.00    -0.169 A  
HETATM   21  C   UNL     1      -6.782  14.586  69.067  1.00  0.00    -0.105 A  
HETATM   22  O   UNL     1      -5.253  14.318  67.306  1.00  0.00    -0.282 OA 
HETATM   23  C   UNL     1      -7.949  15.144  69.591  1.00  0.00    -0.113 A  
HETATM   24  H   UNL     1      -4.739  13.720  67.836  1.00  0.00     0.000 HD 
ENDBRANCH  16  17
ENDBRANCH   6  16
ENDBRANCH   2   4
TORSDOF 3
ENDMDL
MODEL      162
REMARK 921   NORMALIZED FREE ENERGY PREDICTED BY IDOCK:   -2.87 KCAL/MOL
REMARK 922        TOTAL FREE ENERGY PREDICTED BY IDOCK:   -3.82 KCAL/MOL
REMARK 923 INTER-LIGAND FREE ENERGY PREDICTED BY IDOCK:   -3.73 KCAL/MOL
REMARK 924 INTRA-LIGAND FREE ENERGY PREDICTED BY IDOCK:   -0.10 KCAL/MOL
REMARK 927      BINDING AFFINITY PREDICTED BY RF-SCORE:    0.00 PKD
ROOT
HETATM    1  O   UNL     1     -11.668   9.435  70.877  1.00  0.00    -0.281 OA 
HETATM    2  C   UNL     1     -10.943   8.693  71.854  1.00  0.00    -0.342 C  
HETATM    3  H   UNL     1     -11.576  10.375  70.986  1.00  0.00     0.000 HD 
ENDROOT
BRANCH   2   4
HETATM    4  C   UNL     1     -11.090   7.169  71.677  1.00  0.00    -0.235 C  
HETATM    5  O   UNL     1     -11.494   6.823  70.342  1.00  0.00    -0.321 OA 
HETATM    6  C   UNL     1     -10.473   6.962  69.350  1.00  0.00    -0.217 C  
HETATM    7  O   UNL     1     -10.327   5.026  72.488  1.00  0.00    -0.189 OA 
HETATM    8  C   UNL     1      -9.351   5.947  69.670  1.00  0.00    -0.140 C  
HETATM    9  O   UNL     1      -9.880   4.602  69.659  1.00  0.00    -0.197 OA 
HETATM   10  C   UNL     1      -8.763   6.228  71.063  1.00  0.00    -0.136 C  
HETATM   11  H   UNL     1      -9.575   4.518  72.770  1.00  0.00     0.000 HD 
HETATM   12  H   UNL     1      -9.191   3.979  69.855  1.00  0.00     0.000 HD 
HETATM   13  O   UNL     1      -7.914   7.377  71.034  1.00  0.00    -0.095 OA 
HETATM   14  H   UNL     1      -7.550   7.550  71.895  1.00  0.00     0.000 HD 
HETATM   15  C   UNL     1      -9.870   6.346  72.135  1.00  0.00    -0.158 C  
BRANCH   6  16
HETATM   16  O   UNL     1     -10.996   6.672  68.034  1.00  0.00    -0.263 OA 
BRANCH  16  17
HETATM   17  C   UNL     1     -10.188   7.077  67.000  1.00  0.00    -0.260 A  
HETATM   18  C   UNL     1     -10.239   8.430  66.657  1.00  0.00    -0.335 A  
HETATM   19  C   UNL     1      -8.599   8.072  64.927  1.00  0.00     0.027 A  
HETATM   20  C   UNL     1      -9.448   8.931  65.613  1.00  0.00    -0.230 A  
HETATM   21  C   UNL     1      -8.512   6.734  65.276  1.00  0.00    -0.067 A  
HETATM   22  O   UNL     1      -7.815   8.500  63.896  1.00  0.00    -0.134 OA 
HETATM   23  C   UNL     1      -9.300   6.241  66.317  1.00  0.00    -0.155 A  
HETATM   24  H   UNL     1      -7.234   7.912  63.427  1.00  0.00     0.000 HD 
ENDBRANCH  16  17
ENDBRANCH   6  16
ENDBRANCH   2   4
TORSDOF 3
ENDMDL
MODEL      163
REMARK 921   NORMALIZED FREE ENERGY PREDICTED BY IDOCK:   -2.81 KCAL/MOL
REMARK 922        TOTAL FREE ENERGY PREDICTED BY IDOCK:   -3.75 KCAL/MOL
REMARK 923 INTER-LIGAND FREE ENERGY PREDICTED BY IDOCK:   -3.38 KCAL/MOL
REMARK 924 INTRA-LIGAND FREE ENERGY PREDICTED BY IDOCK:   -0.37 KCAL/MOL
REMARK 927      BINDING AFFINITY PREDICTED BY RF-SCORE:    0.00 PKD
ROOT
HETATM    1  O   UNL     1      -6.695   4.948  64.933  1.00  0.00    -0.046 OA 
HETATM    2  C   UNL     1      -7.102   6.032  65.764  1.00  0.00    -0.073 C  
HETATM    3  H   UNL     1      -5.986   4.441  65.311  1.00  0.00     0.000 HD 
ENDROOT
BRANCH   2   4
HETATM    4  C   UNL     1      -8.253   6.854  65.152  1.00  0.00    -0.115 C  
HETATM    5  O   UNL     1      -9.351   7.001  66.067  1.00  0.00    -0.096 OA 
HETATM    6  C   UNL     1      -9.115   7.910  67.146  1.00  0.00    -0.137 C  
HETATM    7  O   UNL     1      -8.785   8.562  63.530  1.00  0.00    -0.422 OA 
HETATM    8  C   UNL     1      -8.938   9.326  66.552  1.00  0.00    -0.149 C  
HETATM    9  O   UNL     1     -10.125   9.712  65.823  1.00  0.00    -0.290 OA 
HETATM   10  C   UNL     1      -7.744   9.350  65.583  1.00  0.00    -0.099 C  
HETATM   11  H   UNL     1      -8.523   9.397  63.157  1.00  0.00     0.000 HD 
HETATM   12  H   UNL     1     -10.017  10.582  65.458  1.00  0.00     0.000 HD 
HETATM   13  O   UNL     1      -6.508   9.340  66.300  1.00  0.00    -0.064 OA 
HETATM   14  H   UNL     1      -5.770   9.354  65.701  1.00  0.00     0.000 HD 
HETATM   15  C   UNL     1      -7.829   8.207  64.547  1.00  0.00    -0.138 C  
BRANCH   6  16
HETATM   16  O   UNL     1     -10.239   7.928  68.054  1.00  0.00    -0.192 OA 
BRANCH  16  17
HETATM   17  C   UNL     1      -9.896   7.948  69.384  1.00  0.00    -0.180 A  
HETATM   18  C   UNL     1     -10.423   8.988  70.153  1.00  0.00    -0.240 A  
HETATM   19  C   UNL     1      -9.308   8.130  72.110  1.00  0.00    -0.206 A  
HETATM   20  C   UNL     1     -10.124   9.086  71.519  1.00  0.00    -0.409 A  
HETATM   21  C   UNL     1      -8.804   7.073  71.369  1.00  0.00    -0.129 A  
HETATM   22  O   UNL     1      -8.975   8.180  73.432  1.00  0.00    -0.254 OA 
HETATM   23  C   UNL     1      -9.106   6.979  70.010  1.00  0.00    -0.145 A  
HETATM   24  H   UNL     1      -8.417   7.526  73.836  1.00  0.00     0.000 HD 
ENDBRANCH  16  17
ENDBRANCH   6  16
ENDBRANCH   2   4
TORSDOF 3
ENDMDL
MODEL      164
REMARK 921   NORMALIZED FREE ENERGY PREDICTED BY IDOCK:   -2.79 KCAL/MOL
REMARK 922        TOTAL FREE ENERGY PREDICTED BY IDOCK:   -3.73 KCAL/MOL
REMARK 923 INTER-LIGAND FREE ENERGY PREDICTED BY IDOCK:   -3.14 KCAL/MOL
REMARK 924 INTRA-LIGAND FREE ENERGY PREDICTED BY IDOCK:   -0.59 KCAL/MOL
REMARK 927      BINDING AFFINITY PREDICTED BY RF-SCORE:    0.00 PKD
ROOT
HETATM    1  O   UNL     1      -6.559   8.442  73.816  1.00  0.00    -0.118 OA 
HETATM    2  C   UNL     1      -7.868   7.934  73.570  1.00  0.00    -0.167 C  
HETATM    3  H   UNL     1      -6.552   9.153  74.446  1.00  0.00     0.000 HD 
ENDROOT
BRANCH   2   4
HETATM    4  C   UNL     1      -7.879   6.781  72.548  1.00  0.00    -0.100 C  
HETATM    5  O   UNL     1      -8.959   6.909  71.609  1.00  0.00    -0.136 OA 
HETATM    6  C   UNL     1      -8.784   7.936  70.630  1.00  0.00    -0.135 C  
HETATM    7  O   UNL     1      -6.490   5.158  71.422  1.00  0.00    -0.029 OA 
HETATM    8  C   UNL     1      -7.572   7.559  69.748  1.00  0.00    -0.094 C  
HETATM    9  O   UNL     1      -7.803   6.287  69.103  1.00  0.00    -0.101 OA 
HETATM   10  C   UNL     1      -6.304   7.444  70.610  1.00  0.00    -0.039 C  
HETATM   11  H   UNL     1      -5.660   5.007  70.985  1.00  0.00     0.000 HD 
HETATM   12  H   UNL     1      -7.059   6.055  68.561  1.00  0.00     0.000 HD 
HETATM   13  O   UNL     1      -5.818   8.737  70.976  1.00  0.00    -0.033 OA 
HETATM   14  H   UNL     1      -5.035   8.666  71.508  1.00  0.00     0.000 HD 
HETATM   15  C   UNL     1      -6.532   6.536  71.839  1.00  0.00    -0.050 C  
BRANCH   6  16
HETATM   16  O   UNL     1      -9.953   8.042  69.786  1.00  0.00    -0.185 OA 
BRANCH  16  17
HETATM   17  C   UNL     1     -10.628   9.233  69.896  1.00  0.00    -0.226 A  
HETATM   18  C   UNL     1     -11.648   9.290  70.849  1.00  0.00    -0.364 A  
HETATM   19  C   UNL     1     -12.093  11.585  70.261  1.00  0.00    -0.359 A  
HETATM   20  C   UNL     1     -12.390  10.466  71.028  1.00  0.00    -0.490 A  
HETATM   21  C   UNL     1     -11.062  11.556  69.335  1.00  0.00    -0.287 A  
HETATM   22  O   UNL     1     -12.787  12.752  70.384  1.00  0.00     0.017 OA 
HETATM   23  C   UNL     1     -10.326  10.383  69.161  1.00  0.00    -0.241 A  
HETATM   24  H   UNL     1     -12.584  13.518  69.859  1.00  0.00     0.000 HD 
ENDBRANCH  16  17
ENDBRANCH   6  16
ENDBRANCH   2   4
TORSDOF 3
ENDMDL
MODEL      165
REMARK 921   NORMALIZED FREE ENERGY PREDICTED BY IDOCK:   -2.75 KCAL/MOL
REMARK 922        TOTAL FREE ENERGY PREDICTED BY IDOCK:   -3.68 KCAL/MOL
REMARK 923 INTER-LIGAND FREE ENERGY PREDICTED BY IDOCK:   -3.32 KCAL/MOL
REMARK 924 INTRA-LIGAND FREE ENERGY PREDICTED BY IDOCK:   -0.36 KCAL/MOL
REMARK 927      BINDING AFFINITY PREDICTED BY RF-SCORE:    0.00 PKD
ROOT
HETATM    1  O   UNL     1      -9.508   2.931  68.481  1.00  0.00    -0.189 OA 
HETATM    2  C   UNL     1      -9.600   3.362  69.837  1.00  0.00    -0.127 C  
HETATM    3  H   UNL     1     -10.358   2.778  68.085  1.00  0.00     0.000 HD 
ENDROOT
BRANCH   2   4
HETATM    4  C   UNL     1      -8.222   3.611  70.478  1.00  0.00    -0.053 C  
HETATM    5  O   UNL     1      -7.939   5.013  70.612  1.00  0.00    -0.079 OA 
HETATM    6  C   UNL     1      -8.674   5.679  71.643  1.00  0.00    -0.136 C  
HETATM    7  O   UNL     1      -6.559   2.673  71.957  1.00  0.00    -0.014 OA 
HETATM    8  C   UNL     1      -8.240   5.085  73.002  1.00  0.00    -0.105 C  
HETATM    9  O   UNL     1      -6.821   5.275  73.197  1.00  0.00    -0.073 OA 
HETATM   10  C   UNL     1      -8.539   3.577  73.042  1.00  0.00    -0.086 C  
HETATM   11  H   UNL     1      -6.409   2.205  72.771  1.00  0.00     0.000 HD 
HETATM   12  H   UNL     1      -6.554   4.910  74.033  1.00  0.00     0.000 HD 
HETATM   13  O   UNL     1      -9.937   3.341  73.223  1.00  0.00    -0.107 OA 
HETATM   14  H   UNL     1     -10.122   2.409  73.248  1.00  0.00     0.000 HD 
HETATM   15  C   UNL     1      -7.979   2.853  71.798  1.00  0.00    -0.057 C  
BRANCH   6  16
HETATM   16  O   UNL     1      -8.385   7.095  71.644  1.00  0.00    -0.109 OA 
BRANCH  16  17
HETATM   17  C   UNL     1      -9.438   7.891  71.265  1.00  0.00    -0.157 A  
HETATM   18  C   UNL     1     -10.415   8.140  72.231  1.00  0.00    -0.371 A  
HETATM   19  C   UNL     1     -11.641   9.502  70.665  1.00  0.00    -0.283 A  
HETATM   20  C   UNL     1     -11.526   8.942  71.931  1.00  0.00    -0.442 A  
HETATM   21  C   UNL     1     -10.664   9.293  69.706  1.00  0.00    -0.245 A  
HETATM   22  O   UNL     1     -12.704  10.281  70.313  1.00  0.00    -0.513 OA 
HETATM   23  C   UNL     1      -9.560   8.495  70.011  1.00  0.00    -0.170 A  
HETATM   24  H   UNL     1     -12.783  10.664  69.447  1.00  0.00     0.000 HD 
ENDBRANCH  16  17
ENDBRANCH   6  16
ENDBRANCH   2   4
TORSDOF 3
ENDMDL
MODEL      166
REMARK 921   NORMALIZED FREE ENERGY PREDICTED BY IDOCK:   -2.73 KCAL/MOL
REMARK 922        TOTAL FREE ENERGY PREDICTED BY IDOCK:   -3.66 KCAL/MOL
REMARK 923 INTER-LIGAND FREE ENERGY PREDICTED BY IDOCK:   -3.09 KCAL/MOL
REMARK 924 INTRA-LIGAND FREE ENERGY PREDICTED BY IDOCK:   -0.57 KCAL/MOL
REMARK 927      BINDING AFFINITY PREDICTED BY RF-SCORE:    0.00 PKD
ROOT
HETATM    1  O   UNL     1     -10.972   4.764  65.630  1.00  0.00    -0.734 OA 
HETATM    2  C   UNL     1     -10.781   5.303  66.936  1.00  0.00    -0.130 C  
HETATM    3  H   UNL     1     -11.645   4.094  65.603  1.00  0.00     0.000 HD 
ENDROOT
BRANCH   2   4
HETATM    4  C   UNL     1      -9.691   6.391  66.979  1.00  0.00    -0.149 C  
HETATM    5  O   UNL     1      -9.080   6.484  68.276  1.00  0.00    -0.121 OA 
HETATM    6  C   UNL     1      -8.192   5.411  68.601  1.00  0.00    -0.094 C  
HETATM    7  O   UNL     1      -8.093   7.607  65.638  1.00  0.00    -0.112 OA 
HETATM    8  C   UNL     1      -6.994   5.466  67.625  1.00  0.00    -0.066 C  
HETATM    9  O   UNL     1      -6.312   6.734  67.745  1.00  0.00    -0.043 OA 
HETATM   10  C   UNL     1      -7.484   5.313  66.175  1.00  0.00    -0.083 C  
HETATM   11  H   UNL     1      -7.443   7.546  64.947  1.00  0.00     0.000 HD 
HETATM   12  H   UNL     1      -5.576   6.767  67.146  1.00  0.00     0.000 HD 
HETATM   13  O   UNL     1      -7.834   3.956  65.897  1.00  0.00    -0.089 OA 
HETATM   14  H   UNL     1      -8.137   3.862  65.001  1.00  0.00     0.000 HD 
HETATM   15  C   UNL     1      -8.637   6.292  65.858  1.00  0.00    -0.148 C  
BRANCH   6  16
HETATM   16  O   UNL     1      -7.693   5.550  69.950  1.00  0.00    -0.078 OA 
BRANCH  16  17
HETATM   17  C   UNL     1      -8.580   5.164  70.926  1.00  0.00    -0.123 A  
HETATM   18  C   UNL     1      -8.974   6.145  71.839  1.00  0.00    -0.140 A  
HETATM   19  C   UNL     1     -10.388   4.552  72.968  1.00  0.00    -0.178 A  
HETATM   20  C   UNL     1      -9.875   5.839  72.869  1.00  0.00    -0.174 A  
HETATM   21  C   UNL     1     -10.033   3.575  72.050  1.00  0.00    -0.227 A  
HETATM   22  O   UNL     1     -11.258   4.193  73.954  1.00  0.00    -0.216 OA 
HETATM   23  C   UNL     1      -9.137   3.886  71.026  1.00  0.00    -0.184 A  
HETATM   24  H   UNL     1     -11.609   3.313  74.022  1.00  0.00     0.000 HD 
ENDBRANCH  16  17
ENDBRANCH   6  16
ENDBRANCH   2   4
TORSDOF 3
ENDMDL
MODEL      167
REMARK 921   NORMALIZED FREE ENERGY PREDICTED BY IDOCK:   -2.68 KCAL/MOL
REMARK 922        TOTAL FREE ENERGY PREDICTED BY IDOCK:   -3.59 KCAL/MOL
REMARK 923 INTER-LIGAND FREE ENERGY PREDICTED BY IDOCK:   -3.52 KCAL/MOL
REMARK 924 INTRA-LIGAND FREE ENERGY PREDICTED BY IDOCK:   -0.08 KCAL/MOL
REMARK 927      BINDING AFFINITY PREDICTED BY RF-SCORE:    0.00 PKD
ROOT
HETATM    1  O   UNL     1      -7.297  10.461  68.914  1.00  0.00    -0.081 OA 
HETATM    2  C   UNL     1      -6.414  10.029  67.882  1.00  0.00    -0.059 C  
HETATM    3  H   UNL     1      -7.114  11.346  69.208  1.00  0.00     0.000 HD 
ENDROOT
BRANCH   2   4
HETATM    4  C   UNL     1      -6.712   8.594  67.404  1.00  0.00    -0.063 C  
HETATM    5  O   UNL     1      -8.112   8.282  67.489  1.00  0.00    -0.118 OA 
HETATM    6  C   UNL     1      -8.929   8.911  66.498  1.00  0.00    -0.155 C  
HETATM    7  O   UNL     1      -5.939   6.817  65.964  1.00  0.00    -0.032 OA 
HETATM    8  C   UNL     1      -8.513   8.363  65.114  1.00  0.00    -0.160 C  
HETATM    9  O   UNL     1      -8.690   6.929  65.073  1.00  0.00    -0.354 OA 
HETATM   10  C   UNL     1      -7.032   8.678  64.842  1.00  0.00    -0.073 C  
HETATM   11  H   UNL     1      -5.582   6.600  65.110  1.00  0.00     0.000 HD 
HETATM   12  H   UNL     1      -8.436   6.593  64.222  1.00  0.00     0.000 HD 
HETATM   13  O   UNL     1      -6.859  10.057  64.508  1.00  0.00    -0.121 OA 
HETATM   14  H   UNL     1      -5.944  10.251  64.340  1.00  0.00     0.000 HD 
HETATM   15  C   UNL     1      -6.132   8.243  66.020  1.00  0.00    -0.045 C  
BRANCH   6  16
HETATM   16  O   UNL     1     -10.324   8.603  66.716  1.00  0.00    -0.286 OA 
BRANCH  16  17
HETATM   17  C   UNL     1     -10.605   8.085  67.956  1.00  0.00    -0.128 A  
HETATM   18  C   UNL     1     -10.862   6.713  68.020  1.00  0.00    -0.345 A  
HETATM   19  C   UNL     1     -11.181   6.865  70.404  1.00  0.00    -0.312 A  
HETATM   20  C   UNL     1     -11.159   6.100  69.245  1.00  0.00    -0.463 A  
HETATM   21  C   UNL     1     -10.896   8.220  70.364  1.00  0.00    -0.241 A  
HETATM   22  O   UNL     1     -11.474   6.325  71.622  1.00  0.00    -0.282 OA 
HETATM   23  C   UNL     1     -10.600   8.826  69.142  1.00  0.00    -0.200 A  
HETATM   24  H   UNL     1     -11.490   6.848  72.415  1.00  0.00     0.000 HD 
ENDBRANCH  16  17
ENDBRANCH   6  16
ENDBRANCH   2   4
TORSDOF 3
ENDMDL
MODEL      168
REMARK 921   NORMALIZED FREE ENERGY PREDICTED BY IDOCK:   -2.65 KCAL/MOL
REMARK 922        TOTAL FREE ENERGY PREDICTED BY IDOCK:   -3.56 KCAL/MOL
REMARK 923 INTER-LIGAND FREE ENERGY PREDICTED BY IDOCK:   -3.22 KCAL/MOL
REMARK 924 INTRA-LIGAND FREE ENERGY PREDICTED BY IDOCK:   -0.34 KCAL/MOL
REMARK 927      BINDING AFFINITY PREDICTED BY RF-SCORE:    0.00 PKD
ROOT
HETATM    1  O   UNL     1      -7.861  13.756  68.147  1.00  0.00    -0.125 OA 
HETATM    2  C   UNL     1      -9.238  13.721  68.513  1.00  0.00    -0.138 C  
HETATM    3  H   UNL     1      -7.333  14.266  68.750  1.00  0.00     0.000 HD 
ENDROOT
BRANCH   2   4
HETATM    4  C   UNL     1     -10.095  12.894  67.535  1.00  0.00    -0.214 C  
HETATM    5  O   UNL     1      -9.557  11.577  67.336  1.00  0.00    -0.167 OA 
HETATM    6  C   UNL     1      -9.734  10.682  68.437  1.00  0.00    -0.166 C  
HETATM    7  O   UNL     1     -12.324  12.609  66.652  1.00  0.00    -0.474 OA 
HETATM    8  C   UNL     1     -11.249  10.437  68.619  1.00  0.00    -0.248 C  
HETATM    9  O   UNL     1     -11.808   9.865  67.415  1.00  0.00     0.152 OA 
HETATM   10  C   UNL     1     -11.971  11.765  68.906  1.00  0.00    -0.271 C  
HETATM   11  H   UNL     1     -13.252  12.582  66.861  1.00  0.00     0.000 HD 
HETATM   12  H   UNL     1     -12.739   9.714  67.526  1.00  0.00     0.000 HD 
HETATM   13  O   UNL     1     -11.733  12.191  70.249  1.00  0.00    -0.497 OA 
HETATM   14  H   UNL     1     -12.179  13.011  70.427  1.00  0.00     0.000 HD 
HETATM   15  C   UNL     1     -11.598  12.850  67.873  1.00  0.00    -0.345 C  
BRANCH   6  16
HETATM   16  O   UNL     1      -9.090   9.415  68.176  1.00  0.00    -0.128 OA 
BRANCH  16  17
HETATM   17  C   UNL     1      -8.116   9.074  69.083  1.00  0.00    -0.109 A  
HETATM   18  C   UNL     1      -8.485   9.078  70.430  1.00  0.00    -0.201 A  
HETATM   19  C   UNL     1      -6.261   8.392  71.059  1.00  0.00    -0.036 A  
HETATM   20  C   UNL     1      -7.554   8.743  71.424  1.00  0.00    -0.131 A  
HETATM   21  C   UNL     1      -5.888   8.351  69.725  1.00  0.00    -0.025 A  
HETATM   22  O   UNL     1      -5.311   8.068  71.982  1.00  0.00    -0.035 OA 
HETATM   23  C   UNL     1      -6.819   8.683  68.739  1.00  0.00    -0.062 A  
HETATM   24  H   UNL     1      -4.426   7.828  71.732  1.00  0.00     0.000 HD 
ENDBRANCH  16  17
ENDBRANCH   6  16
ENDBRANCH   2   4
TORSDOF 3
ENDMDL
MODEL      169
REMARK 921   NORMALIZED FREE ENERGY PREDICTED BY IDOCK:   -2.54 KCAL/MOL
REMARK 922        TOTAL FREE ENERGY PREDICTED BY IDOCK:   -3.43 KCAL/MOL
REMARK 923 INTER-LIGAND FREE ENERGY PREDICTED BY IDOCK:   -3.05 KCAL/MOL
REMARK 924 INTRA-LIGAND FREE ENERGY PREDICTED BY IDOCK:   -0.39 KCAL/MOL
REMARK 927      BINDING AFFINITY PREDICTED BY RF-SCORE:    0.00 PKD
ROOT
HETATM    1  O   UNL     1      -5.944  11.461  68.183  1.00  0.00    -0.046 OA 
HETATM    2  C   UNL     1      -7.071  10.677  67.800  1.00  0.00    -0.083 C  
HETATM    3  H   UNL     1      -5.574  11.191  69.016  1.00  0.00     0.000 HD 
ENDROOT
BRANCH   2   4
HETATM    4  C   UNL     1      -7.670  11.114  66.449  1.00  0.00    -0.124 C  
HETATM    5  O   UNL     1      -7.655  10.046  65.487  1.00  0.00    -0.123 OA 
HETATM    6  C   UNL     1      -8.619   9.016  65.719  1.00  0.00    -0.160 C  
HETATM    7  O   UNL     1      -9.220  12.642  65.404  1.00  0.00    -0.423 OA 
HETATM    8  C   UNL     1     -10.028   9.632  65.563  1.00  0.00    -0.209 C  
HETATM    9  O   UNL     1     -10.188  10.178  64.234  1.00  0.00    -0.426 OA 
HETATM   10  C   UNL     1     -10.227  10.767  66.582  1.00  0.00    -0.233 C  
HETATM   11  H   UNL     1     -10.076  13.051  65.462  1.00  0.00     0.000 HD 
HETATM   12  H   UNL     1     -11.054  10.556  64.138  1.00  0.00     0.000 HD 
HETATM   13  O   UNL     1     -10.444  10.240  67.892  1.00  0.00    -0.182 OA 
HETATM   14  H   UNL     1     -10.567  10.941  68.522  1.00  0.00     0.000 HD 
HETATM   15  C   UNL     1      -9.058  11.777  66.544  1.00  0.00    -0.203 C  
BRANCH   6  16
HETATM   16  O   UNL     1      -8.471   7.951  64.752  1.00  0.00    -0.108 OA 
BRANCH  16  17
HETATM   17  C   UNL     1      -8.311   6.703  65.301  1.00  0.00    -0.111 A  
HETATM   18  C   UNL     1      -8.166   6.641  66.688  1.00  0.00    -0.112 A  
HETATM   19  C   UNL     1      -7.988   4.240  66.582  1.00  0.00    -0.098 A  
HETATM   20  C   UNL     1      -7.997   5.408  67.333  1.00  0.00    -0.101 A  
HETATM   21  C   UNL     1      -8.164   4.280  65.208  1.00  0.00    -0.106 A  
HETATM   22  O   UNL     1      -7.816   3.013  67.153  1.00  0.00    -0.074 OA 
HETATM   23  C   UNL     1      -8.334   5.510  64.571  1.00  0.00    -0.127 A  
HETATM   24  H   UNL     1      -7.811   2.214  66.639  1.00  0.00     0.000 HD 
ENDBRANCH  16  17
ENDBRANCH   6  16
ENDBRANCH   2   4
TORSDOF 3
ENDMDL
MODEL      170
REMARK 921   NORMALIZED FREE ENERGY PREDICTED BY IDOCK:   -2.54 KCAL/MOL
REMARK 922        TOTAL FREE ENERGY PREDICTED BY IDOCK:   -3.43 KCAL/MOL
REMARK 923 INTER-LIGAND FREE ENERGY PREDICTED BY IDOCK:   -3.03 KCAL/MOL
REMARK 924 INTRA-LIGAND FREE ENERGY PREDICTED BY IDOCK:   -0.40 KCAL/MOL
REMARK 927      BINDING AFFINITY PREDICTED BY RF-SCORE:    0.00 PKD
ROOT
HETATM    1  O   UNL     1     -10.150   4.467  69.743  1.00  0.00    -0.214 OA 
HETATM    2  C   UNL     1     -10.013   5.742  69.121  1.00  0.00    -0.177 C  
HETATM    3  H   UNL     1      -9.906   4.477  70.662  1.00  0.00     0.000 HD 
ENDROOT
BRANCH   2   4
HETATM    4  C   UNL     1     -10.409   5.725  67.632  1.00  0.00    -0.217 C  
HETATM    5  O   UNL     1     -10.101   6.968  66.982  1.00  0.00    -0.189 OA 
HETATM    6  C   UNL     1      -8.710   7.187  66.733  1.00  0.00    -0.127 C  
HETATM    7  O   UNL     1     -10.757   4.290  65.721  1.00  0.00    -0.481 OA 
HETATM    8  C   UNL     1      -8.227   6.117  65.728  1.00  0.00    -0.138 C  
HETATM    9  O   UNL     1      -8.977   6.216  64.497  1.00  0.00    -0.310 OA 
HETATM   10  C   UNL     1      -8.434   4.709  66.312  1.00  0.00    -0.113 C  
HETATM   11  H   UNL     1     -10.427   3.546  65.230  1.00  0.00     0.000 HD 
HETATM   12  H   UNL     1      -8.680   5.559  63.879  1.00  0.00     0.000 HD 
HETATM   13  O   UNL     1      -7.452   4.422  67.309  1.00  0.00    -0.076 OA 
HETATM   14  H   UNL     1      -7.580   3.553  67.670  1.00  0.00     0.000 HD 
HETATM   15  C   UNL     1      -9.875   4.517  66.836  1.00  0.00    -0.213 C  
BRANCH   6  16
HETATM   16  O   UNL     1      -8.493   8.494  66.155  1.00  0.00    -0.118 OA 
BRANCH  16  17
HETATM   17  C   UNL     1      -7.873   9.390  66.991  1.00  0.00    -0.098 A  
HETATM   18  C   UNL     1      -8.656   9.950  68.003  1.00  0.00    -0.121 A  
HETATM   19  C   UNL     1      -6.765  11.222  68.788  1.00  0.00    -0.070 A  
HETATM   20  C   UNL     1      -8.105  10.875  68.901  1.00  0.00    -0.144 A  
HETATM   21  C   UNL     1      -5.966  10.650  67.811  1.00  0.00    -0.043 A  
HETATM   22  O   UNL     1      -6.178  12.123  69.626  1.00  0.00    -0.114 OA 
HETATM   23  C   UNL     1      -6.519   9.729  66.920  1.00  0.00    -0.066 A  
HETATM   24  H   UNL     1      -5.261  12.360  69.549  1.00  0.00     0.000 HD 
ENDBRANCH  16  17
ENDBRANCH   6  16
ENDBRANCH   2   4
TORSDOF 3
ENDMDL
MODEL      171
REMARK 921   NORMALIZED FREE ENERGY PREDICTED BY IDOCK:   -2.53 KCAL/MOL
REMARK 922        TOTAL FREE ENERGY PREDICTED BY IDOCK:   -3.42 KCAL/MOL
REMARK 923 INTER-LIGAND FREE ENERGY PREDICTED BY IDOCK:   -3.03 KCAL/MOL
REMARK 924 INTRA-LIGAND FREE ENERGY PREDICTED BY IDOCK:   -0.39 KCAL/MOL
REMARK 927      BINDING AFFINITY PREDICTED BY RF-SCORE:    0.00 PKD
ROOT
HETATM    1  O   UNL     1      -5.615  16.186  67.321  1.00  0.00    -0.249 OA 
HETATM    2  C   UNL     1      -6.570  15.389  66.624  1.00  0.00     1.290 C  
HETATM    3  H   UNL     1      -4.776  15.752  67.419  1.00  0.00     0.000 HD 
ENDROOT
BRANCH   2   4
HETATM    4  C   UNL     1      -7.932  16.092  66.464  1.00  0.00    -0.259 C  
HETATM    5  O   UNL     1      -8.993  15.351  67.087  1.00  0.00    -0.196 OA 
HETATM    6  C   UNL     1      -9.000  15.398  68.516  1.00  0.00    -0.192 C  
HETATM    7  O   UNL     1      -8.996  18.239  66.163  1.00  0.00    -0.469 OA 
HETATM    8  C   UNL     1      -9.269  16.858  68.948  1.00  0.00    -0.229 C  
HETATM    9  O   UNL     1     -10.540  17.305  68.426  1.00  0.00    -0.360 OA 
HETATM   10  C   UNL     1      -8.167  17.783  68.404  1.00  0.00    -0.298 C  
HETATM   11  H   UNL     1      -9.005  19.153  66.425  1.00  0.00     0.000 HD 
HETATM   12  H   UNL     1     -10.705  18.202  68.692  1.00  0.00     0.000 HD 
HETATM   13  O   UNL     1      -6.960  17.631  69.154  1.00  0.00    -0.257 OA 
HETATM   14  H   UNL     1      -6.279  18.203  68.818  1.00  0.00     0.000 HD 
HETATM   15  C   UNL     1      -7.945  17.574  66.889  1.00  0.00    -0.226 C  
BRANCH   6  16
HETATM   16  O   UNL     1     -10.049  14.559  69.050  1.00  0.00    -0.227 OA 
BRANCH  16  17
HETATM   17  C   UNL     1     -10.078  13.286  68.533  1.00  0.00    -0.206 A  
HETATM   18  C   UNL     1     -11.153  12.972  67.698  1.00  0.00    -0.296 A  
HETATM   19  C   UNL     1     -10.283  10.746  67.387  1.00  0.00    -0.204 A  
HETATM   20  C   UNL     1     -11.262  11.696  67.128  1.00  0.00    -0.371 A  
HETATM   21  C   UNL     1      -9.193  11.052  68.186  1.00  0.00    -0.165 A  
HETATM   22  O   UNL     1     -10.343   9.486  66.868  1.00  0.00    -0.240 OA 
HETATM   23  C   UNL     1      -9.088  12.324  68.750  1.00  0.00     0.129 A  
HETATM   24  H   UNL     1      -9.673   8.836  67.045  1.00  0.00     0.000 HD 
ENDBRANCH  16  17
ENDBRANCH   6  16
ENDBRANCH   2   4
TORSDOF 3
ENDMDL
MODEL      172
REMARK 921   NORMALIZED FREE ENERGY PREDICTED BY IDOCK:   -2.43 KCAL/MOL
REMARK 922        TOTAL FREE ENERGY PREDICTED BY IDOCK:   -3.31 KCAL/MOL
REMARK 923 INTER-LIGAND FREE ENERGY PREDICTED BY IDOCK:   -3.99 KCAL/MOL
REMARK 924 INTRA-LIGAND FREE ENERGY PREDICTED BY IDOCK:    0.68 KCAL/MOL
REMARK 927      BINDING AFFINITY PREDICTED BY RF-SCORE:    0.00 PKD
ROOT
HETATM    1  O   UNL     1     -10.589   9.134  68.668  1.00  0.00    -0.245 OA 
HETATM    2  C   UNL     1     -10.775  10.451  69.182  1.00  0.00    -0.234 C  
HETATM    3  H   UNL     1     -10.371   8.503  69.344  1.00  0.00     0.000 HD 
ENDROOT
BRANCH   2   4
HETATM    4  C   UNL     1     -11.129  11.475  68.085  1.00  0.00    -0.246 C  
HETATM    5  O   UNL     1     -10.240  12.602  68.099  1.00  0.00    -0.226 OA 
HETATM    6  C   UNL     1      -8.927  12.338  67.597  1.00  0.00    -0.181 C  
HETATM    7  O   UNL     1     -12.153  11.733  65.913  1.00  0.00    -0.381 OA 
HETATM    8  C   UNL     1      -9.047  11.983  66.098  1.00  0.00    -0.129 C  
HETATM    9  O   UNL     1      -9.648  13.080  65.374  1.00  0.00    -0.476 OA 
HETATM   10  C   UNL     1      -9.933  10.738  65.917  1.00  0.00    -0.250 C  
HETATM   11  H   UNL     1     -12.242  11.366  65.041  1.00  0.00     0.000 HD 
HETATM   12  H   UNL     1      -9.722  12.862  64.452  1.00  0.00     0.000 HD 
HETATM   13  O   UNL     1      -9.225   9.553  66.289  1.00  0.00    -0.153 OA 
HETATM   14  H   UNL     1      -9.772   8.784  66.177  1.00  0.00     0.000 HD 
HETATM   15  C   UNL     1     -11.274  10.879  66.671  1.00  0.00     0.016 C  
BRANCH   6  16
HETATM   16  O   UNL     1      -8.084  13.505  67.728  1.00  0.00    -0.147 OA 
BRANCH  16  17
HETATM   17  C   UNL     1      -8.764  14.670  67.991  1.00  0.00    -0.167 A  
HETATM   18  C   UNL     1      -8.404  15.358  69.152  1.00  0.00    -0.242 A  
HETATM   19  C   UNL     1     -10.037  17.064  68.669  1.00  0.00    -0.303 A  
HETATM   20  C   UNL     1      -9.046  16.555  69.499  1.00  0.00     0.177 A  
HETATM   21  C   UNL     1     -10.383  16.411  67.497  1.00  0.00    -0.288 A  
HETATM   22  O   UNL     1     -10.702  18.218  68.961  1.00  0.00    -0.295 OA 
HETATM   23  C   UNL     1      -9.740  15.221  67.156  1.00  0.00    -0.220 A  
HETATM   24  H   UNL     1     -11.380  18.566  68.393  1.00  0.00     0.000 HD 
ENDBRANCH  16  17
ENDBRANCH   6  16
ENDBRANCH   2   4
TORSDOF 3
ENDMDL
MODEL      173
REMARK 921   NORMALIZED FREE ENERGY PREDICTED BY IDOCK:   -2.17 KCAL/MOL
REMARK 922        TOTAL FREE ENERGY PREDICTED BY IDOCK:   -3.00 KCAL/MOL
REMARK 923 INTER-LIGAND FREE ENERGY PREDICTED BY IDOCK:   -3.43 KCAL/MOL
REMARK 924 INTRA-LIGAND FREE ENERGY PREDICTED BY IDOCK:    0.44 KCAL/MOL
REMARK 927      BINDING AFFINITY PREDICTED BY RF-SCORE:    0.00 PKD
ROOT
HETATM    1  O   UNL     1      -6.979  10.146  68.616  1.00  0.00    -0.060 OA 
HETATM    2  C   UNL     1      -6.530   9.611  67.373  1.00  0.00    -0.069 C  
HETATM    3  H   UNL     1      -6.482  10.908  68.889  1.00  0.00     0.000 HD 
ENDROOT
BRANCH   2   4
HETATM    4  C   UNL     1      -7.338   8.376  66.930  1.00  0.00    -0.083 C  
HETATM    5  O   UNL     1      -8.336   8.013  67.897  1.00  0.00    -0.127 OA 
HETATM    6  C   UNL     1      -9.468   8.886  67.948  1.00  0.00    -0.142 C  
HETATM    7  O   UNL     1      -8.099   7.129  65.006  1.00  0.00    -0.125 OA 
HETATM    8  C   UNL     1     -10.213   8.786  66.596  1.00  0.00    -0.270 C  
HETATM    9  O   UNL     1     -10.639   7.425  66.363  1.00  0.00    -0.461 OA 
HETATM   10  C   UNL     1      -9.283   9.208  65.446  1.00  0.00    -0.202 C  
HETATM   11  H   UNL     1      -8.464   7.186  64.130  1.00  0.00     0.000 HD 
HETATM   12  H   UNL     1     -11.097   7.364  65.533  1.00  0.00     0.000 HD 
HETATM   13  O   UNL     1      -9.123  10.628  65.418  1.00  0.00    -0.174 OA 
HETATM   14  H   UNL     1      -8.548  10.889  64.707  1.00  0.00     0.000 HD 
HETATM   15  C   UNL     1      -7.928   8.468  65.508  1.00  0.00    -0.110 C  
BRANCH   6  16
HETATM   16  O   UNL     1     -10.373   8.489  69.003  1.00  0.00    -0.212 OA 
BRANCH  16  17
HETATM   17  C   UNL     1      -9.946   7.413  69.743  1.00  0.00    -0.188 A  
HETATM   18  C   UNL     1     -10.586   6.195  69.508  1.00  0.00    -0.350 A  
HETATM   19  C   UNL     1      -9.190   5.122  71.154  1.00  0.00    -0.145 A  
HETATM   20  C   UNL     1     -10.215   5.045  70.219  1.00  0.00    -0.328 A  
HETATM   21  C   UNL     1      -8.522   6.315  71.376  1.00  0.00    -0.127 A  
HETATM   22  O   UNL     1      -8.794   4.040  71.883  1.00  0.00    -0.108 OA 
HETATM   23  C   UNL     1      -8.895   7.456  70.664  1.00  0.00    -0.150 A  
HETATM   24  H   UNL     1      -8.093   4.092  72.523  1.00  0.00     0.000 HD 
ENDBRANCH  16  17
ENDBRANCH   6  16
ENDBRANCH   2   4
TORSDOF 3
ENDMDL
MODEL      174
REMARK 921   NORMALIZED FREE ENERGY PREDICTED BY IDOCK:   -2.06 KCAL/MOL
REMARK 922        TOTAL FREE ENERGY PREDICTED BY IDOCK:   -2.87 KCAL/MOL
REMARK 923 INTER-LIGAND FREE ENERGY PREDICTED BY IDOCK:   -2.78 KCAL/MOL
REMARK 924 INTRA-LIGAND FREE ENERGY PREDICTED BY IDOCK:   -0.09 KCAL/MOL
REMARK 927      BINDING AFFINITY PREDICTED BY RF-SCORE:    0.00 PKD
ROOT
HETATM    1  O   UNL     1      -9.997  14.790  72.071  1.00  0.00     1.749 OA 
HETATM    2  C   UNL     1     -11.114  15.600  72.431  1.00  0.00     0.251 C  
HETATM    3  H   UNL     1      -9.399  14.646  72.795  1.00  0.00     0.000 HD 
ENDROOT
BRANCH   2   4
HETATM    4  C   UNL     1     -12.084  15.832  71.257  1.00  0.00    -0.437 C  
HETATM    5  O   UNL     1     -11.390  16.194  70.053  1.00  0.00    -0.334 OA 
HETATM    6  C   UNL     1     -10.689  15.121  69.418  1.00  0.00    -0.265 C  
HETATM    7  O   UNL     1     -14.251  15.242  70.369  1.00  0.00    -0.337 OA 
HETATM    8  C   UNL     1     -11.729  14.080  68.944  1.00  0.00    -0.340 C  
HETATM    9  O   UNL     1     -12.655  14.689  68.018  1.00  0.00    -0.457 OA 
HETATM   10  C   UNL     1     -12.525  13.542  70.145  1.00  0.00    -0.209 C  
HETATM   11  H   UNL     1     -14.870  14.536  70.219  1.00  0.00     0.000 HD 
HETATM   12  H   UNL     1     -13.294  14.050  67.726  1.00  0.00     0.000 HD 
HETATM   13  O   UNL     1     -11.738  12.622  70.906  1.00  0.00    -0.303 OA 
HETATM   14  H   UNL     1     -12.230  12.290  71.647  1.00  0.00     0.000 HD 
HETATM   15  C   UNL     1     -13.089  14.688  71.014  1.00  0.00    -0.367 C  
BRANCH   6  16
HETATM   16  O   UNL     1      -9.957  15.598  68.267  1.00  0.00    -0.211 OA 
BRANCH  16  17
HETATM   17  C   UNL     1      -8.974  16.513  68.557  1.00  0.00    -0.231 A  
HETATM   18  C   UNL     1      -7.868  16.041  69.269  1.00  0.00    -0.222 A  
HETATM   19  C   UNL     1      -6.876  18.238  69.219  1.00  0.00    -0.192 A  
HETATM   20  C   UNL     1      -6.818  16.906  69.608  1.00  0.00    -0.014 A  
HETATM   21  C   UNL     1      -7.950  18.714  68.483  1.00  0.00    -0.365 A  
HETATM   22  O   UNL     1      -5.890  19.127  69.530  1.00  0.00    -0.228 OA 
HETATM   23  C   UNL     1      -8.992  17.849  68.146  1.00  0.00    -0.268 A  
HETATM   24  H   UNL     1      -5.930  20.038  69.263  1.00  0.00     0.000 HD 
ENDBRANCH  16  17
ENDBRANCH   6  16
ENDBRANCH   2   4
TORSDOF 3
ENDMDL
MODEL      175
REMARK 921   NORMALIZED FREE ENERGY PREDICTED BY IDOCK:   -2.05 KCAL/MOL
REMARK 922        TOTAL FREE ENERGY PREDICTED BY IDOCK:   -2.86 KCAL/MOL
REMARK 923 INTER-LIGAND FREE ENERGY PREDICTED BY IDOCK:   -3.98 KCAL/MOL
REMARK 924 INTRA-LIGAND FREE ENERGY PREDICTED BY IDOCK:    1.12 KCAL/MOL
REMARK 927      BINDING AFFINITY PREDICTED BY RF-SCORE:    0.00 PKD
ROOT
HETATM    1  O   UNL     1     -11.427  13.817  65.048  1.00  0.00    -0.315 OA 
HETATM    2  C   UNL     1     -12.204  13.924  66.239  1.00  0.00    -0.461 C  
HETATM    3  H   UNL     1     -11.894  14.114  64.276  1.00  0.00     0.000 HD 
ENDROOT
BRANCH   2   4
HETATM    4  C   UNL     1     -11.445  13.443  67.491  1.00  0.00    -0.323 C  
HETATM    5  O   UNL     1     -10.026  13.617  67.356  1.00  0.00    -0.229 OA 
HETATM    6  C   UNL     1      -9.575  14.970  67.456  1.00  0.00    -0.203 C  
HETATM    7  O   UNL     1     -11.634  13.093  69.873  1.00  0.00    -0.448 OA 
HETATM    8  C   UNL     1      -9.873  15.473  68.887  1.00  0.00    -0.219 C  
HETATM    9  O   UNL     1      -9.192  14.646  69.857  1.00  0.00    -0.279 OA 
HETATM   10  C   UNL     1     -11.384  15.407  69.168  1.00  0.00    -0.315 C  
HETATM   11  H   UNL     1     -11.956  13.448  70.694  1.00  0.00     0.000 HD 
HETATM   12  H   UNL     1      -9.374  14.955  70.736  1.00  0.00     0.000 HD 
HETATM   13  O   UNL     1     -12.071  16.466  68.498  1.00  0.00    -0.063 OA 
HETATM   14  H   UNL     1     -13.005  16.426  68.671  1.00  0.00     0.000 HD 
HETATM   15  C   UNL     1     -11.967  14.019  68.822  1.00  0.00    -0.347 C  
BRANCH   6  16
HETATM   16  O   UNL     1      -8.150  15.052  67.226  1.00  0.00    -0.181 OA 
BRANCH  16  17
HETATM   17  C   UNL     1      -7.469  13.881  67.452  1.00  0.00    -0.128 A  
HETATM   18  C   UNL     1      -6.281  13.976  68.179  1.00  0.00    -0.132 A  
HETATM   19  C   UNL     1      -5.966  11.592  68.013  1.00  0.00    -0.046 A  
HETATM   20  C   UNL     1      -5.521  12.830  68.456  1.00  0.00    -0.062 A  
HETATM   21  C   UNL     1      -7.160  11.475  67.319  1.00  0.00    -0.128 A  
HETATM   22  O   UNL     1      -5.264  10.446  68.242  1.00  0.00    -0.035 OA 
HETATM   23  C   UNL     1      -7.914  12.619  67.048  1.00  0.00    -0.063 A  
HETATM   24  H   UNL     1      -5.569   9.598  67.940  1.00  0.00     0.000 HD 
ENDBRANCH  16  17
ENDBRANCH   6  16
ENDBRANCH   2   4
TORSDOF 3
ENDMDL
MODEL      176
REMARK 921   NORMALIZED FREE ENERGY PREDICTED BY IDOCK:   -1.92 KCAL/MOL
REMARK 922        TOTAL FREE ENERGY PREDICTED BY IDOCK:   -2.70 KCAL/MOL
REMARK 923 INTER-LIGAND FREE ENERGY PREDICTED BY IDOCK:   -5.47 KCAL/MOL
REMARK 924 INTRA-LIGAND FREE ENERGY PREDICTED BY IDOCK:    2.77 KCAL/MOL
REMARK 927      BINDING AFFINITY PREDICTED BY RF-SCORE:    0.00 PKD
ROOT
HETATM    1  O   UNL     1      -9.822   8.616  69.617  1.00  0.00    -0.180 OA 
HETATM    2  C   UNL     1      -9.861  10.042  69.628  1.00  0.00    -0.235 C  
HETATM    3  H   UNL     1      -9.802   8.242  70.490  1.00  0.00     0.000 HD 
ENDROOT
BRANCH   2   4
HETATM    4  C   UNL     1      -9.894  10.648  68.212  1.00  0.00    -0.163 C  
HETATM    5  O   UNL     1     -10.446  11.975  68.211  1.00  0.00    -0.192 OA 
HETATM    6  C   UNL     1      -9.587  12.982  68.754  1.00  0.00     0.093 C  
HETATM    7  O   UNL     1      -8.838  10.597  66.041  1.00  0.00    -0.162 OA 
HETATM    8  C   UNL     1      -8.346  13.099  67.840  1.00  0.00    -0.170 C  
HETATM    9  O   UNL     1      -8.748  13.454  66.498  1.00  0.00    -0.440 OA 
HETATM   10  C   UNL     1      -7.599  11.755  67.785  1.00  0.00    -0.127 C  
HETATM   11  H   UNL     1      -8.011  10.559  65.573  1.00  0.00     0.000 HD 
HETATM   12  H   UNL     1      -7.985  13.526  65.936  1.00  0.00     0.000 HD 
HETATM   13  O   UNL     1      -6.868  11.531  68.992  1.00  0.00    -0.090 OA 
HETATM   14  H   UNL     1      -6.406  10.701  68.958  1.00  0.00     0.000 HD 
HETATM   15  C   UNL     1      -8.554  10.587  67.453  1.00  0.00    -0.122 C  
BRANCH   6  16
HETATM   16  O   UNL     1     -10.258  14.262  68.786  1.00  0.00    -0.231 OA 
BRANCH  16  17
HETATM   17  C   UNL     1     -10.548  14.784  67.549  1.00  0.00    -0.259 A  
HETATM   18  C   UNL     1     -10.136  16.097  67.310  1.00  0.00    -0.265 A  
HETATM   19  C   UNL     1     -11.045  15.995  65.079  1.00  0.00    -0.336 A  
HETATM   20  C   UNL     1     -10.391  16.709  66.075  1.00  0.00    -0.352 A  
HETATM   21  C   UNL     1     -11.430  14.680  65.288  1.00  0.00    -0.361 A  
HETATM   22  O   UNL     1     -11.329  16.542  63.863  1.00  0.00    -1.557 OA 
HETATM   23  C   UNL     1     -11.173  14.074  66.519  1.00  0.00    -0.326 A  
HETATM   24  H   UNL     1     -11.776  16.053  63.182  1.00  0.00     0.000 HD 
ENDBRANCH  16  17
ENDBRANCH   6  16
ENDBRANCH   2   4
TORSDOF 3
ENDMDL
MODEL      177
REMARK 921   NORMALIZED FREE ENERGY PREDICTED BY IDOCK:   -1.91 KCAL/MOL
REMARK 922        TOTAL FREE ENERGY PREDICTED BY IDOCK:   -2.69 KCAL/MOL
REMARK 923 INTER-LIGAND FREE ENERGY PREDICTED BY IDOCK:   -5.05 KCAL/MOL
REMARK 924 INTRA-LIGAND FREE ENERGY PREDICTED BY IDOCK:    2.36 KCAL/MOL
REMARK 927      BINDING AFFINITY PREDICTED BY RF-SCORE:    0.00 PKD
ROOT
HETATM    1  O   UNL     1     -10.940  16.765  65.109  1.00  0.00    -0.492 OA 
HETATM    2  C   UNL     1     -11.483  15.466  64.883  1.00  0.00    -0.311 C  
HETATM    3  H   UNL     1     -11.610  17.431  65.207  1.00  0.00     0.000 HD 
ENDROOT
BRANCH   2   4
HETATM    4  C   UNL     1     -10.396  14.385  64.726  1.00  0.00    -0.320 C  
HETATM    5  O   UNL     1      -9.755  14.084  65.976  1.00  0.00    -0.294 OA 
HETATM    6  C   UNL     1     -10.550  13.324  66.891  1.00  0.00    -0.264 C  
HETATM    7  O   UNL     1      -9.706  12.490  63.398  1.00  0.00    -0.624 OA 
HETATM    8  C   UNL     1     -10.806  11.934  66.265  1.00  0.00    -0.282 C  
HETATM    9  O   UNL     1      -9.551  11.263  66.015  1.00  0.00    -0.203 OA 
HETATM   10  C   UNL     1     -11.552  12.083  64.928  1.00  0.00    -0.273 C  
HETATM   11  H   UNL     1      -9.991  11.701  62.951  1.00  0.00     0.000 HD 
HETATM   12  H   UNL     1      -9.708  10.408  65.630  1.00  0.00     0.000 HD 
HETATM   13  O   UNL     1     -12.929  12.397  65.148  1.00  0.00    -0.607 OA 
HETATM   14  H   UNL     1     -13.390  12.489  64.322  1.00  0.00     0.000 HD 
HETATM   15  C   UNL     1     -10.859  13.106  64.001  1.00  0.00    -0.318 C  
BRANCH   6  16
HETATM   16  O   UNL     1      -9.855  13.144  68.145  1.00  0.00    -0.217 OA 
BRANCH  16  17
HETATM   17  C   UNL     1      -8.722  12.372  68.061  1.00  0.00    -0.186 A  
HETATM   18  C   UNL     1      -7.575  12.993  67.560  1.00  0.00    -0.166 A  
HETATM   19  C   UNL     1      -6.326  10.949  67.837  1.00  0.00    -0.057 A  
HETATM   20  C   UNL     1      -6.374  12.279  67.439  1.00  0.00    -0.152 A  
HETATM   21  C   UNL     1      -7.446  10.328  68.367  1.00  0.00    -0.090 A  
HETATM   22  O   UNL     1      -5.190  10.203  67.732  1.00  0.00    -0.035 OA 
HETATM   23  C   UNL     1      -8.638  11.043  68.487  1.00  0.00    -0.158 A  
HETATM   24  H   UNL     1      -5.157   9.293  68.004  1.00  0.00     0.000 HD 
ENDBRANCH  16  17
ENDBRANCH   6  16
ENDBRANCH   2   4
TORSDOF 3
ENDMDL
MODEL      178
REMARK 921   NORMALIZED FREE ENERGY PREDICTED BY IDOCK:   -1.51 KCAL/MOL
REMARK 922        TOTAL FREE ENERGY PREDICTED BY IDOCK:   -2.22 KCAL/MOL
REMARK 923 INTER-LIGAND FREE ENERGY PREDICTED BY IDOCK:   -2.63 KCAL/MOL
REMARK 924 INTRA-LIGAND FREE ENERGY PREDICTED BY IDOCK:    0.41 KCAL/MOL
REMARK 927      BINDING AFFINITY PREDICTED BY RF-SCORE:    0.00 PKD
ROOT
HETATM    1  O   UNL     1     -10.269  14.887  72.322  1.00  0.00     1.154 OA 
HETATM    2  C   UNL     1     -11.338  15.817  72.484  1.00  0.00    -0.047 C  
HETATM    3  H   UNL     1      -9.723  14.816  73.096  1.00  0.00     0.000 HD 
ENDROOT
BRANCH   2   4
HETATM    4  C   UNL     1     -12.224  15.932  71.228  1.00  0.00    -0.422 C  
HETATM    5  O   UNL     1     -11.441  16.053  70.030  1.00  0.00    -0.323 OA 
HETATM    6  C   UNL     1     -10.794  14.848  69.611  1.00  0.00    -0.253 C  
HETATM    7  O   UNL     1     -14.381  15.363  70.303  1.00  0.00    -0.066 OA 
HETATM    8  C   UNL     1     -11.886  13.822  69.234  1.00  0.00    -0.344 C  
HETATM    9  O   UNL     1     -12.712  14.343  68.169  1.00  0.00    -0.282 OA 
HETATM   10  C   UNL     1     -12.785  13.533  70.449  1.00  0.00    -0.104 C  
HETATM   11  H   UNL     1     -15.045  14.687  70.222  1.00  0.00     0.000 HD 
HETATM   12  H   UNL     1     -13.383  13.712  67.937  1.00  0.00     0.000 HD 
HETATM   13  O   UNL     1     -12.114  12.690  71.388  1.00  0.00    -0.161 OA 
HETATM   14  H   UNL     1     -12.669  12.511  72.138  1.00  0.00     0.000 HD 
HETATM   15  C   UNL     1     -13.301  14.836  71.097  1.00  0.00    -0.400 C  
BRANCH   6  16
HETATM   16  O   UNL     1      -9.967  15.089  68.450  1.00  0.00    -0.215 OA 
BRANCH  16  17
HETATM   17  C   UNL     1      -9.300  13.981  67.987  1.00  0.00    -0.205 A  
HETATM   18  C   UNL     1      -9.862  13.323  66.891  1.00  0.00    -0.247 A  
HETATM   19  C   UNL     1      -8.064  11.718  66.910  1.00  0.00    -0.160 A  
HETATM   20  C   UNL     1      -9.248  12.183  66.354  1.00  0.00    -0.207 A  
HETATM   21  C   UNL     1      -7.476  12.378  67.977  1.00  0.00    -0.114 A  
HETATM   22  O   UNL     1      -7.429  10.608  66.437  1.00  0.00    -0.125 OA 
HETATM   23  C   UNL     1      -8.090  13.514  68.507  1.00  0.00    -0.108 A  
HETATM   24  H   UNL     1      -6.618  10.290  66.818  1.00  0.00     0.000 HD 
ENDBRANCH  16  17
ENDBRANCH   6  16
ENDBRANCH   2   4
TORSDOF 3
ENDMDL
MODEL      179
REMARK 921   NORMALIZED FREE ENERGY PREDICTED BY IDOCK:   -1.27 KCAL/MOL
REMARK 922        TOTAL FREE ENERGY PREDICTED BY IDOCK:   -1.94 KCAL/MOL
REMARK 923 INTER-LIGAND FREE ENERGY PREDICTED BY IDOCK:   -4.07 KCAL/MOL
REMARK 924 INTRA-LIGAND FREE ENERGY PREDICTED BY IDOCK:    2.13 KCAL/MOL
REMARK 927      BINDING AFFINITY PREDICTED BY RF-SCORE:    0.00 PKD
ROOT
HETATM    1  O   UNL     1     -10.684  14.915  73.141  1.00  0.00     0.996 OA 
HETATM    2  C   UNL     1     -12.004  15.452  73.153  1.00  0.00    -0.447 C  
HETATM    3  H   UNL     1     -10.377  14.673  74.008  1.00  0.00     0.000 HD 
ENDROOT
BRANCH   2   4
HETATM    4  C   UNL     1     -12.502  15.843  71.748  1.00  0.00    -0.452 C  
HETATM    5  O   UNL     1     -11.425  15.908  70.799  1.00  0.00    -0.349 OA 
HETATM    6  C   UNL     1     -10.905  14.640  70.393  1.00  0.00     0.092 C  
HETATM    7  O   UNL     1     -14.408  15.789  70.267  1.00  0.00     0.048 OA 
HETATM    8  C   UNL     1     -12.019  13.883  69.635  1.00  0.00    -0.342 C  
HETATM    9  O   UNL     1     -12.440  14.644  68.480  1.00  0.00    -0.587 OA 
HETATM   10  C   UNL     1     -13.237  13.675  70.550  1.00  0.00     0.231 C  
HETATM   11  H   UNL     1     -15.132  15.266  69.941  1.00  0.00     0.000 HD 
HETATM   12  H   UNL     1     -13.124  14.179  68.014  1.00  0.00     0.000 HD 
HETATM   13  O   UNL     1     -12.985  12.641  71.504  1.00  0.00    -0.375 OA 
HETATM   14  H   UNL     1     -13.738  12.513  72.070  1.00  0.00     0.000 HD 
HETATM   15  C   UNL     1     -13.677  14.996  71.221  1.00  0.00    -0.450 C  
BRANCH   6  16
HETATM   16  O   UNL     1      -9.776  14.810  69.506  1.00  0.00    -0.097 OA 
BRANCH  16  17
HETATM   17  C   UNL     1      -9.940  15.794  68.561  1.00  0.00    -0.208 A  
HETATM   18  C   UNL     1      -9.433  15.530  67.286  1.00  0.00    -0.218 A  
HETATM   19  C   UNL     1     -10.200  17.681  66.516  1.00  0.00    -0.355 A  
HETATM   20  C   UNL     1      -9.555  16.478  66.261  1.00  0.00    -0.333 A  
HETATM   21  C   UNL     1     -10.738  17.945  67.765  1.00  0.00    -0.339 A  
HETATM   22  O   UNL     1     -10.339  18.645  65.561  1.00  0.00    -0.535 OA 
HETATM   23  C   UNL     1     -10.615  16.998  68.782  1.00  0.00    -0.346 A  
HETATM   24  H   UNL     1     -10.780  19.468  65.736  1.00  0.00     0.000 HD 
ENDBRANCH  16  17
ENDBRANCH   6  16
ENDBRANCH   2   4
TORSDOF 3
ENDMDL
MODEL      180
REMARK 921   NORMALIZED FREE ENERGY PREDICTED BY IDOCK:   -0.63 KCAL/MOL
REMARK 922        TOTAL FREE ENERGY PREDICTED BY IDOCK:   -1.18 KCAL/MOL
REMARK 923 INTER-LIGAND FREE ENERGY PREDICTED BY IDOCK:   -1.05 KCAL/MOL
REMARK 924 INTRA-LIGAND FREE ENERGY PREDICTED BY IDOCK:   -0.13 KCAL/MOL
REMARK 927      BINDING AFFINITY PREDICTED BY RF-SCORE:    0.00 PKD
ROOT
HETATM    1  O   UNL     1     -11.000  16.606  71.611  1.00  0.00     0.417 OA 
HETATM    2  C   UNL     1     -10.979  16.441  70.195  1.00  0.00    -0.285 C  
HETATM    3  H   UNL     1     -10.325  17.198  71.922  1.00  0.00     0.000 HD 
ENDROOT
BRANCH   2   4
HETATM    4  C   UNL     1     -12.073  15.481  69.690  1.00  0.00    -0.328 C  
HETATM    5  O   UNL     1     -11.518  14.361  68.982  1.00  0.00    -0.250 OA 
HETATM    6  C   UNL     1     -10.875  13.387  69.808  1.00  0.00     0.364 C  
HETATM    7  O   UNL     1     -14.315  14.685  70.106  1.00  0.00     0.901 OA 
HETATM    8  C   UNL     1     -11.946  12.749  70.722  1.00  0.00     0.008 C  
HETATM    9  O   UNL     1     -12.975  12.126  69.922  1.00  0.00     0.452 OA 
HETATM   10  C   UNL     1     -12.601  13.827  71.603  1.00  0.00    -0.279 C  
HETATM   11  H   UNL     1     -14.938  14.408  70.769  1.00  0.00     0.000 HD 
HETATM   12  H   UNL     1     -13.633  11.734  70.483  1.00  0.00     0.000 HD 
HETATM   13  O   UNL     1     -11.725  14.219  72.662  1.00  0.00     0.184 OA 
HETATM   14  H   UNL     1     -12.130  14.884  73.206  1.00  0.00     0.000 HD 
HETATM   15  C   UNL     1     -13.083  15.032  70.765  1.00  0.00    -0.369 C  
BRANCH   6  16
HETATM   16  O   UNL     1     -10.278  12.347  69.002  1.00  0.00    -0.065 OA 
BRANCH  16  17
HETATM   17  C   UNL     1     -10.262  12.610  67.654  1.00  0.00    -0.217 A  
HETATM   18  C   UNL     1     -11.368  12.179  66.918  1.00  0.00    -0.402 A  
HETATM   19  C   UNL     1     -10.399  13.077  64.902  1.00  0.00    -0.324 A  
HETATM   20  C   UNL     1     -11.436  12.405  65.536  1.00  0.00    -0.404 A  
HETATM   21  C   UNL     1      -9.311  13.542  65.623  1.00  0.00     0.237 A  
HETATM   22  O   UNL     1     -10.405  13.316  63.559  1.00  0.00    -0.456 OA 
HETATM   23  C   UNL     1      -9.249  13.315  66.999  1.00  0.00    -0.237 A  
HETATM   24  H   UNL     1      -9.696  13.776  63.126  1.00  0.00     0.000 HD 
ENDBRANCH  16  17
ENDBRANCH   6  16
ENDBRANCH   2   4
TORSDOF 3
ENDMDL
MODEL      181
REMARK 921   NORMALIZED FREE ENERGY PREDICTED BY IDOCK:    2.99 KCAL/MOL
REMARK 922        TOTAL FREE ENERGY PREDICTED BY IDOCK:    3.06 KCAL/MOL
REMARK 923 INTER-LIGAND FREE ENERGY PREDICTED BY IDOCK:   -0.13 KCAL/MOL
REMARK 924 INTRA-LIGAND FREE ENERGY PREDICTED BY IDOCK:    3.20 KCAL/MOL
REMARK 927      BINDING AFFINITY PREDICTED BY RF-SCORE:    0.00 PKD
ROOT
HETATM    1  O   UNL     1     -10.760   9.552  69.278  1.00  0.00    -0.225 OA 
HETATM    2  C   UNL     1     -10.825   9.250  67.885  1.00  0.00    -0.118 C  
HETATM    3  H   UNL     1     -11.513  10.045  69.583  1.00  0.00     0.000 HD 
ENDROOT
BRANCH   2   4
HETATM    4  C   UNL     1      -9.606   8.448  67.391  1.00  0.00    -0.157 C  
HETATM    5  O   UNL     1      -9.163   7.492  68.368  1.00  0.00    -0.140 OA 
HETATM    6  C   UNL     1     -10.008   6.348  68.514  1.00  0.00    -0.142 C  
HETATM    7  O   UNL     1      -8.471   7.639  65.419  1.00  0.00    -0.161 OA 
HETATM    8  C   UNL     1      -9.981   5.557  67.186  1.00  0.00    -0.169 C  
HETATM    9  O   UNL     1      -8.630   5.146  66.880  1.00  0.00    -0.107 OA 
HETATM   10  C   UNL     1     -10.495   6.437  66.034  1.00  0.00     0.624 C  
HETATM   11  H   UNL     1      -8.577   7.243  64.562  1.00  0.00     0.000 HD 
HETATM   12  H   UNL     1      -8.613   4.659  66.064  1.00  0.00     0.000 HD 
HETATM   13  O   UNL     1     -11.916   6.572  66.092  1.00  0.00     0.858 OA 
HETATM   14  H   UNL     1     -12.233   7.115  65.380  1.00  0.00     0.000 HD 
HETATM   15  C   UNL     1      -9.778   7.806  66.001  1.00  0.00     0.136 C  
BRANCH   6  16
HETATM   16  O   UNL     1      -9.526   5.489  69.572  1.00  0.00    -0.131 OA 
BRANCH  16  17
HETATM   17  C   UNL     1      -8.497   4.657  69.205  1.00  0.00    -0.079 A  
HETATM   18  C   UNL     1      -7.202   5.098  69.488  1.00  0.00    -0.057 A  
HETATM   19  C   UNL     1      -6.288   3.081  68.537  1.00  0.00    -0.029 A  
HETATM   20  C   UNL     1      -6.092   4.313  69.147  1.00  0.00    -0.027 A  
HETATM   21  C   UNL     1      -7.567   2.613  68.280  1.00  0.00    -0.055 A  
HETATM   22  O   UNL     1      -5.246   2.279  68.173  1.00  0.00    -0.011 OA 
HETATM   23  C   UNL     1      -8.669   3.398  68.622  1.00  0.00    -0.141 A  
HETATM   24  H   UNL     1      -5.380   1.436  67.756  1.00  0.00     0.000 HD 
ENDBRANCH  16  17
ENDBRANCH   6  16
ENDBRANCH   2   4
TORSDOF 3
ENDMDL
MODEL      182
REMARK 921   NORMALIZED FREE ENERGY PREDICTED BY IDOCK:    3.84 KCAL/MOL
REMARK 922        TOTAL FREE ENERGY PREDICTED BY IDOCK:    4.06 KCAL/MOL
REMARK 923 INTER-LIGAND FREE ENERGY PREDICTED BY IDOCK:   -0.75 KCAL/MOL
REMARK 924 INTRA-LIGAND FREE ENERGY PREDICTED BY IDOCK:    4.82 KCAL/MOL
REMARK 927      BINDING AFFINITY PREDICTED BY RF-SCORE:    0.00 PKD
ROOT
HETATM    1  O   UNL     1      -6.628  15.610  71.746  1.00  0.00     1.779 OA 
HETATM    2  C   UNL     1      -5.741  15.169  70.719  1.00  0.00    -0.065 C  
HETATM    3  H   UNL     1      -6.177  15.820  72.556  1.00  0.00     0.000 HD 
ENDROOT
BRANCH   2   4
HETATM    4  C   UNL     1      -6.472  14.830  69.406  1.00  0.00    -0.131 C  
HETATM    5  O   UNL     1      -7.878  14.621  69.614  1.00  0.00    -0.048 OA 
HETATM    6  C   UNL     1      -8.631  15.810  69.867  1.00  0.00     0.317 C  
HETATM    7  O   UNL     1      -6.407  15.109  67.008  1.00  0.00    -0.214 OA 
HETATM    8  C   UNL     1      -8.574  16.693  68.600  1.00  0.00    -0.253 C  
HETATM    9  O   UNL     1      -9.128  15.981  67.471  1.00  0.00    -0.196 OA 
HETATM   10  C   UNL     1      -7.116  17.061  68.274  1.00  0.00    -0.190 C  
HETATM   11  H   UNL     1      -6.244  15.716  66.294  1.00  0.00     0.000 HD 
HETATM   12  H   UNL     1      -9.094  16.523  66.693  1.00  0.00     0.000 HD 
HETATM   13  O   UNL     1      -6.634  18.065  69.170  1.00  0.00    -0.244 OA 
HETATM   14  H   UNL     1      -5.733  18.292  68.969  1.00  0.00     0.000 HD 
HETATM   15  C   UNL     1      -6.207  15.813  68.248  1.00  0.00    -0.114 C  
BRANCH   6  16
HETATM   16  O   UNL     1     -10.013  15.490  70.145  1.00  0.00    -0.275 OA 
BRANCH  16  17
HETATM   17  C   UNL     1     -10.596  14.647  69.231  1.00  0.00    -0.226 A  
HETATM   18  C   UNL     1     -11.803  14.053  69.607  1.00  0.00    -0.386 A  
HETATM   19  C   UNL     1     -11.924  12.915  67.485  1.00  0.00    -0.296 A  
HETATM   20  C   UNL     1     -12.468  13.178  68.736  1.00  0.00     0.348 A  
HETATM   21  C   UNL     1     -10.745  13.522  67.083  1.00  0.00    -0.282 A  
HETATM   22  O   UNL     1     -12.520  12.064  66.601  1.00  0.00    -0.048 OA 
HETATM   23  C   UNL     1     -10.088  14.394  67.953  1.00  0.00    -0.228 A  
HETATM   24  H   UNL     1     -12.148  11.885  65.745  1.00  0.00     0.000 HD 
ENDBRANCH  16  17
ENDBRANCH   6  16
ENDBRANCH   2   4
TORSDOF 3
ENDMDL
MODEL      183
REMARK 921   NORMALIZED FREE ENERGY PREDICTED BY IDOCK:   13.20 KCAL/MOL
REMARK 922        TOTAL FREE ENERGY PREDICTED BY IDOCK:   15.07 KCAL/MOL
REMARK 923 INTER-LIGAND FREE ENERGY PREDICTED BY IDOCK:   14.49 KCAL/MOL
REMARK 924 INTRA-LIGAND FREE ENERGY PREDICTED BY IDOCK:    0.58 KCAL/MOL
REMARK 927      BINDING AFFINITY PREDICTED BY RF-SCORE:    0.00 PKD
ROOT
HETATM    1  O   UNL     1     -10.063  18.787  64.981  1.00  0.00     0.615 OA 
HETATM    2  C   UNL     1     -10.288  17.862  63.920  1.00  0.00     8.197 C  
HETATM    3  H   UNL     1     -10.340  19.670  64.764  1.00  0.00     0.000 HD 
ENDROOT
BRANCH   2   4
HETATM    4  C   UNL     1      -9.840  16.430  64.272  1.00  0.00     3.859 C  
HETATM    5  O   UNL     1      -9.670  16.256  65.688  1.00  0.00    -0.464 OA 
HETATM    6  C   UNL     1     -10.888  16.189  66.435  1.00  0.00    -0.131 C  
HETATM    7  O   UNL     1      -9.898  14.130  63.538  1.00  0.00     1.685 OA 
HETATM    8  C   UNL     1     -11.651  14.918  65.997  1.00  0.00    -0.226 C  
HETATM    9  O   UNL     1     -10.846  13.744  66.245  1.00  0.00    -0.282 OA 
HETATM   10  C   UNL     1     -11.967  14.981  64.493  1.00  0.00    -0.371 C  
HETATM   11  H   UNL     1     -10.434  13.442  63.161  1.00  0.00     0.000 HD 
HETATM   12  H   UNL     1     -11.315  12.963  65.977  1.00  0.00     0.000 HD 
HETATM   13  O   UNL     1     -13.042  15.888  64.238  1.00  0.00     0.018 OA 
HETATM   14  H   UNL     1     -13.237  15.927  63.309  1.00  0.00     0.000 HD 
HETATM   15  C   UNL     1     -10.709  15.314  63.660  1.00  0.00     2.960 C  
BRANCH   6  16
HETATM   16  O   UNL     1     -10.614  16.097  67.852  1.00  0.00    -0.290 OA 
BRANCH  16  17
HETATM   17  C   UNL     1      -9.295  15.877  68.163  1.00  0.00    -0.198 A  
HETATM   18  C   UNL     1      -8.935  14.564  68.478  1.00  0.00    -0.188 A  
HETATM   19  C   UNL     1      -6.648  15.251  68.806  1.00  0.00    -0.102 A  
HETATM   20  C   UNL     1      -7.609  14.249  68.809  1.00  0.00    -0.130 A  
HETATM   21  C   UNL     1      -6.981  16.552  68.463  1.00  0.00    -0.154 A  
HETATM   22  O   UNL     1      -5.346  15.006  69.130  1.00  0.00    -0.093 OA 
HETATM   23  C   UNL     1      -8.302  16.860  68.133  1.00  0.00    -0.212 A  
HETATM   24  H   UNL     1      -4.688  15.691  69.128  1.00  0.00     0.000 HD 
ENDBRANCH  16  17
ENDBRANCH   6  16
ENDBRANCH   2   4
TORSDOF 3
ENDMDL
MODEL      184
REMARK 921   NORMALIZED FREE ENERGY PREDICTED BY IDOCK:   20.88 KCAL/MOL
REMARK 922        TOTAL FREE ENERGY PREDICTED BY IDOCK:   24.10 KCAL/MOL
REMARK 923 INTER-LIGAND FREE ENERGY PREDICTED BY IDOCK:   23.86 KCAL/MOL
REMARK 924 INTRA-LIGAND FREE ENERGY PREDICTED BY IDOCK:    0.24 KCAL/MOL
REMARK 927      BINDING AFFINITY PREDICTED BY RF-SCORE:    0.00 PKD
ROOT
HETATM    1  O   UNL     1     -10.041  18.944  64.923  1.00  0.00     1.006 OA 
HETATM    2  C   UNL     1     -10.108  17.800  64.075  1.00  0.00     7.915 C  
HETATM    3  H   UNL     1     -10.087  19.762  64.441  1.00  0.00     0.000 HD 
ENDROOT
BRANCH   2   4
HETATM    4  C   UNL     1     -10.033  16.474  64.856  1.00  0.00     1.020 C  
HETATM    5  O   UNL     1     -10.533  16.613  66.195  1.00  0.00    -0.319 OA 
HETATM    6  C   UNL     1     -11.955  16.733  66.296  1.00  0.00     2.396 C  
HETATM    7  O   UNL     1     -10.025  14.070  64.624  1.00  0.00    -0.580 OA 
HETATM    8  C   UNL     1     -12.585  15.410  65.804  1.00  0.00     1.101 C  
HETATM    9  O   UNL     1     -12.117  14.306  66.611  1.00  0.00    -0.426 OA 
HETATM   10  C   UNL     1     -12.189  15.145  64.342  1.00  0.00    -0.275 C  
HETATM   11  H   UNL     1     -10.414  13.324  64.180  1.00  0.00     0.000 HD 
HETATM   12  H   UNL     1     -12.504  13.493  66.309  1.00  0.00     0.000 HD 
HETATM   13  O   UNL     1     -12.924  15.992  63.456  1.00  0.00     0.098 OA 
HETATM   14  H   UNL     1     -12.679  15.829  62.552  1.00  0.00     0.000 HD 
HETATM   15  C   UNL     1     -10.663  15.265  64.135  1.00  0.00     0.878 C  
BRANCH   6  16
HETATM   16  O   UNL     1     -12.353  16.951  67.669  1.00  0.00     1.605 OA 
BRANCH  16  17
HETATM   17  C   UNL     1     -11.316  16.946  68.569  1.00  0.00     0.021 A  
HETATM   18  C   UNL     1     -11.117  15.766  69.291  1.00  0.00    -0.297 A  
HETATM   19  C   UNL     1      -9.241  16.761  70.433  1.00  0.00     2.513 A  
HETATM   20  C   UNL     1     -10.082  15.673  70.232  1.00  0.00    -0.021 A  
HETATM   21  C   UNL     1      -9.404  17.926  69.702  1.00  0.00     0.759 A  
HETATM   22  O   UNL     1      -8.226  16.731  71.342  1.00  0.00     6.648 OA 
HETATM   23  C   UNL     1     -10.435  18.013  68.765  1.00  0.00    -0.182 A  
HETATM   24  H   UNL     1      -7.651  17.475  71.480  1.00  0.00     0.000 HD 
ENDBRANCH  16  17
ENDBRANCH   6  16
ENDBRANCH   2   4
TORSDOF 3
ENDMDL
