MODEL        1
REMARK 921   NORMALIZED FREE ENERGY PREDICTED BY IDOCK:   -6.23 KCAL/MOL
REMARK 922        TOTAL FREE ENERGY PREDICTED BY IDOCK:  -12.55 KCAL/MOL
REMARK 923 INTER-LIGAND FREE ENERGY PREDICTED BY IDOCK:  -10.60 KCAL/MOL
REMARK 924 INTRA-LIGAND FREE ENERGY PREDICTED BY IDOCK:   -1.95 KCAL/MOL
REMARK 927      BINDING AFFINITY PREDICTED BY RF-SCORE:    0.00 PKD
ROOT
HETATM    1  C   UNL     1     -10.543  19.522  65.963  1.00  0.00    -0.589 C  
HETATM    2  C   UNL     1     -10.789  18.989  67.363  1.00  0.00    -0.496 C  
ENDROOT
BRANCH   2   3
HETATM    3  C   UNL     1      -9.703  19.433  68.345  1.00  0.00    -0.488 C  
BRANCH   3   4
HETATM    4  C   UNL     1      -8.356  18.834  67.943  1.00  0.00    -0.300 C  
BRANCH   4   5
HETATM    5  C   UNL     1      -8.323  17.311  68.089  1.00  0.00    -0.233 C  
BRANCH   5   6
HETATM    6  C   UNL     1      -7.910  16.588  66.796  1.00  0.00    -0.261 C  
HETATM    7  O   UNL     1      -7.874  17.564  65.759  1.00  0.00    -0.544 OA 
HETATM    8  H   UNL     1      -7.618  17.117  64.960  1.00  0.00     0.000 HD 
BRANCH   6   9
HETATM    9  C   UNL     1      -8.840  15.451  66.433  1.00  0.00    -0.340 C  
HETATM   10  C   UNL     1     -10.058  15.544  65.876  1.00  0.00    -0.374 C  
BRANCH  10  11
HETATM   11  C   UNL     1     -10.999  14.374  65.686  1.00  0.00    -0.314 C  
HETATM   12  C   UNL     1     -11.467  14.308  64.217  1.00  0.00    -0.242 C  
HETATM   13  O   UNL     1     -12.508  15.238  63.945  1.00  0.00    -0.964 OA 
HETATM   14  C   UNL     1     -11.951  12.889  64.009  1.00  0.00    -0.521 C  
HETATM   15  H   UNL     1     -12.796  15.197  63.041  1.00  0.00     0.000 HD 
HETATM   16  C   UNL     1     -11.007  12.130  64.887  1.00  0.00    -0.309 C  
HETATM   17  O   UNL     1     -10.787  10.934  64.734  1.00  0.00    -0.245 OA 
HETATM   18  C   UNL     1     -10.374  12.987  65.974  1.00  0.00    -0.293 C  
BRANCH  18  19
HETATM   19  C   UNL     1     -10.726  12.496  67.391  1.00  0.00    -0.254 C  
BRANCH  19  20
HETATM   20  C   UNL     1     -12.011  13.110  67.965  1.00  0.00    -0.345 C  
BRANCH  20  21
HETATM   21  C   UNL     1     -11.823  13.595  69.405  1.00  0.00    -0.392 C  
BRANCH  21  22
HETATM   22  C   UNL     1     -12.030  15.110  69.505  1.00  0.00    -0.351 C  
BRANCH  22  23
HETATM   23  C   UNL     1     -13.012  15.466  70.621  1.00  0.00    -0.450 C  
BRANCH  23  24
HETATM   24  C   UNL     1     -12.291  15.738  71.942  1.00  0.00    -0.533 C  
HETATM   25  C   UNL     1     -12.810  14.852  73.052  1.00  0.00    -0.486 C  
HETATM   26  O   UNL     1     -13.689  14.015  72.938  1.00  0.00    -0.677 OA 
HETATM   27  O   UNL     1     -12.184  15.088  74.227  1.00  0.00    -0.604 OA 
ENDBRANCH  23  24
ENDBRANCH  22  23
ENDBRANCH  21  22
ENDBRANCH  20  21
ENDBRANCH  19  20
ENDBRANCH  18  19
ENDBRANCH  10  11
ENDBRANCH   6   9
ENDBRANCH   5   6
ENDBRANCH   4   5
ENDBRANCH   3   4
ENDBRANCH   2   3
TORSDOF 12
ENDMDL
MODEL        2
REMARK 921   NORMALIZED FREE ENERGY PREDICTED BY IDOCK:   -6.08 KCAL/MOL
REMARK 922        TOTAL FREE ENERGY PREDICTED BY IDOCK:  -12.30 KCAL/MOL
REMARK 923 INTER-LIGAND FREE ENERGY PREDICTED BY IDOCK:  -10.74 KCAL/MOL
REMARK 924 INTRA-LIGAND FREE ENERGY PREDICTED BY IDOCK:   -1.56 KCAL/MOL
REMARK 927      BINDING AFFINITY PREDICTED BY RF-SCORE:    0.00 PKD
ROOT
HETATM    1  C   UNL     1      -8.272  20.400  67.507  1.00  0.00    -0.333 C  
HETATM    2  C   UNL     1      -9.790  20.435  67.495  1.00  0.00    -0.564 C  
ENDROOT
BRANCH   2   3
HETATM    3  C   UNL     1     -10.377  19.495  66.440  1.00  0.00    -0.594 C  
BRANCH   3   4
HETATM    4  C   UNL     1      -9.847  18.077  66.648  1.00  0.00    -0.352 C  
BRANCH   4   5
HETATM    5  C   UNL     1     -10.874  17.005  66.278  1.00  0.00     0.034 C  
BRANCH   5   6
HETATM    6  C   UNL     1     -10.548  16.287  64.957  1.00  0.00    -0.233 C  
HETATM    7  O   UNL     1     -11.567  16.634  64.024  1.00  0.00    -1.490 OA 
HETATM    8  H   UNL     1     -11.366  16.190  63.208  1.00  0.00     0.000 HD 
BRANCH   6   9
HETATM    9  C   UNL     1     -10.448  14.785  65.111  1.00  0.00    -0.443 C  
HETATM   10  C   UNL     1     -11.394  13.874  64.828  1.00  0.00    -0.365 C  
BRANCH  10  11
HETATM   11  C   UNL     1     -11.283  12.400  65.155  1.00  0.00    -0.356 C  
HETATM   12  C   UNL     1     -10.427  11.687  64.088  1.00  0.00    -0.351 C  
HETATM   13  O   UNL     1     -11.168  11.407  62.907  1.00  0.00    -0.807 OA 
HETATM   14  C   UNL     1      -9.955  10.404  64.739  1.00  0.00    -0.409 C  
HETATM   15  H   UNL     1     -10.641  10.968  62.251  1.00  0.00     0.000 HD 
HETATM   16  C   UNL     1      -9.783  10.847  66.158  1.00  0.00    -0.210 C  
HETATM   17  O   UNL     1      -9.062  10.247  66.948  1.00  0.00    -0.142 OA 
HETATM   18  C   UNL     1     -10.592  12.088  66.505  1.00  0.00    -0.269 C  
BRANCH  18  19
HETATM   19  C   UNL     1     -11.625  11.826  67.617  1.00  0.00    -0.364 C  
BRANCH  19  20
HETATM   20  C   UNL     1     -12.021  13.078  68.411  1.00  0.00    -0.309 C  
BRANCH  20  21
HETATM   21  C   UNL     1     -10.842  14.038  68.596  1.00  0.00    -0.272 C  
BRANCH  21  22
HETATM   22  C   UNL     1     -11.149  15.082  69.674  1.00  0.00    -0.291 C  
BRANCH  22  23
HETATM   23  C   UNL     1     -12.420  14.729  70.447  1.00  0.00    -0.405 C  
BRANCH  23  24
HETATM   24  C   UNL     1     -12.818  15.841  71.419  1.00  0.00    -0.504 C  
HETATM   25  C   UNL     1     -13.335  15.280  72.725  1.00  0.00    -0.502 C  
HETATM   26  O   UNL     1     -13.433  14.096  72.999  1.00  0.00    -0.661 OA 
HETATM   27  O   UNL     1     -13.696  16.255  73.590  1.00  0.00    -0.552 OA 
ENDBRANCH  23  24
ENDBRANCH  22  23
ENDBRANCH  21  22
ENDBRANCH  20  21
ENDBRANCH  19  20
ENDBRANCH  18  19
ENDBRANCH  10  11
ENDBRANCH   6   9
ENDBRANCH   5   6
ENDBRANCH   4   5
ENDBRANCH   3   4
ENDBRANCH   2   3
TORSDOF 12
ENDMDL
MODEL        3
REMARK 921   NORMALIZED FREE ENERGY PREDICTED BY IDOCK:   -5.96 KCAL/MOL
REMARK 922        TOTAL FREE ENERGY PREDICTED BY IDOCK:  -12.10 KCAL/MOL
REMARK 923 INTER-LIGAND FREE ENERGY PREDICTED BY IDOCK:  -10.25 KCAL/MOL
REMARK 924 INTRA-LIGAND FREE ENERGY PREDICTED BY IDOCK:   -1.84 KCAL/MOL
REMARK 927      BINDING AFFINITY PREDICTED BY RF-SCORE:    0.00 PKD
ROOT
HETATM    1  C   UNL     1     -13.942   7.236  71.654  1.00  0.00    -0.488 C  
HETATM    2  C   UNL     1     -13.969   8.676  72.134  1.00  0.00    -0.496 C  
ENDROOT
BRANCH   2   3
HETATM    3  C   UNL     1     -13.628   9.661  71.014  1.00  0.00    -0.161 C  
BRANCH   3   4
HETATM    4  C   UNL     1     -13.031  10.938  71.602  1.00  0.00    -0.569 C  
BRANCH   4   5
HETATM    5  C   UNL     1     -12.184  11.712  70.589  1.00  0.00    -0.461 C  
BRANCH   5   6
HETATM    6  C   UNL     1     -11.447  10.799  69.594  1.00  0.00    -0.305 C  
HETATM    7  O   UNL     1     -10.099  10.690  70.040  1.00  0.00    -0.425 OA 
HETATM    8  H   UNL     1      -9.643  10.125  69.425  1.00  0.00     0.000 HD 
BRANCH   6   9
HETATM    9  C   UNL     1     -11.504  11.310  68.171  1.00  0.00    -0.376 C  
HETATM   10  C   UNL     1     -10.472  11.492  67.331  1.00  0.00    -0.240 C  
BRANCH  10  11
HETATM   11  C   UNL     1     -10.585  12.156  65.975  1.00  0.00    -0.292 C  
HETATM   12  C   UNL     1     -10.141  11.174  64.870  1.00  0.00    -0.289 C  
HETATM   13  O   UNL     1      -8.726  11.099  64.758  1.00  0.00    -0.367 OA 
HETATM   14  C   UNL     1     -10.752  11.703  63.590  1.00  0.00    -0.500 C  
HETATM   15  H   UNL     1      -8.454  10.495  64.077  1.00  0.00     0.000 HD 
HETATM   16  C   UNL     1     -12.043  12.264  64.096  1.00  0.00    -0.436 C  
HETATM   17  O   UNL     1     -13.009  12.446  63.363  1.00  0.00    -0.723 OA 
HETATM   18  C   UNL     1     -12.019  12.586  65.582  1.00  0.00    -0.492 C  
BRANCH  18  19
HETATM   19  C   UNL     1     -12.253  14.083  65.865  1.00  0.00    -0.481 C  
BRANCH  19  20
HETATM   20  C   UNL     1     -10.966  14.916  65.929  1.00  0.00    -0.338 C  
BRANCH  20  21
HETATM   21  C   UNL     1     -10.879  15.743  67.214  1.00  0.00    -0.298 C  
BRANCH  21  22
HETATM   22  C   UNL     1     -11.354  14.929  68.423  1.00  0.00    -0.320 C  
BRANCH  22  23
HETATM   23  C   UNL     1     -11.616  15.828  69.632  1.00  0.00    -0.363 C  
BRANCH  23  24
HETATM   24  C   UNL     1     -12.907  15.440  70.354  1.00  0.00    -0.355 C  
HETATM   25  C   UNL     1     -12.848  15.789  71.825  1.00  0.00    -0.450 C  
HETATM   26  O   UNL     1     -11.905  16.315  72.391  1.00  0.00    -0.509 OA 
HETATM   27  O   UNL     1     -13.983  15.445  72.475  1.00  0.00    -0.519 OA 
ENDBRANCH  23  24
ENDBRANCH  22  23
ENDBRANCH  21  22
ENDBRANCH  20  21
ENDBRANCH  19  20
ENDBRANCH  18  19
ENDBRANCH  10  11
ENDBRANCH   6   9
ENDBRANCH   5   6
ENDBRANCH   4   5
ENDBRANCH   3   4
ENDBRANCH   2   3
TORSDOF 12
ENDMDL
MODEL        4
REMARK 921   NORMALIZED FREE ENERGY PREDICTED BY IDOCK:   -5.94 KCAL/MOL
REMARK 922        TOTAL FREE ENERGY PREDICTED BY IDOCK:  -12.06 KCAL/MOL
REMARK 923 INTER-LIGAND FREE ENERGY PREDICTED BY IDOCK:  -10.01 KCAL/MOL
REMARK 924 INTRA-LIGAND FREE ENERGY PREDICTED BY IDOCK:   -2.05 KCAL/MOL
REMARK 927      BINDING AFFINITY PREDICTED BY RF-SCORE:    0.00 PKD
ROOT
HETATM    1  C   UNL     1     -11.650   9.537  70.784  1.00  0.00    -0.378 C  
HETATM    2  C   UNL     1     -12.104  10.983  70.686  1.00  0.00    -0.471 C  
ENDROOT
BRANCH   2   3
HETATM    3  C   UNL     1     -13.074  11.356  71.809  1.00  0.00    -0.523 C  
BRANCH   3   4
HETATM    4  C   UNL     1     -13.275  12.870  71.846  1.00  0.00    -0.521 C  
BRANCH   4   5
HETATM    5  C   UNL     1     -12.353  13.610  70.874  1.00  0.00    -0.450 C  
BRANCH   5   6
HETATM    6  C   UNL     1     -12.419  15.140  71.024  1.00  0.00    -0.357 C  
HETATM    7  O   UNL     1     -13.698  15.556  70.558  1.00  0.00    -0.837 OA 
HETATM    8  H   UNL     1     -13.739  16.501  70.651  1.00  0.00     0.000 HD 
BRANCH   6   9
HETATM    9  C   UNL     1     -11.314  15.853  70.275  1.00  0.00    -0.381 C  
HETATM   10  C   UNL     1     -11.395  16.430  69.065  1.00  0.00    -0.253 C  
BRANCH  10  11
HETATM   11  C   UNL     1     -10.209  16.988  68.307  1.00  0.00    -0.326 C  
HETATM   12  C   UNL     1     -10.150  18.521  68.477  1.00  0.00    -0.378 C  
HETATM   13  O   UNL     1     -11.063  19.189  67.616  1.00  0.00    -0.362 OA 
HETATM   14  C   UNL     1      -8.724  18.910  68.149  1.00  0.00    -0.342 C  
HETATM   15  H   UNL     1     -11.026  20.133  67.720  1.00  0.00     0.000 HD 
HETATM   16  C   UNL     1      -7.974  17.726  68.673  1.00  0.00    -0.276 C  
HETATM   17  O   UNL     1      -6.784  17.780  68.961  1.00  0.00    -0.231 OA 
HETATM   18  C   UNL     1      -8.831  16.474  68.792  1.00  0.00    -0.255 C  
BRANCH  18  19
HETATM   19  C   UNL     1      -8.319  15.323  67.906  1.00  0.00    -0.152 C  
BRANCH  19  20
HETATM   20  C   UNL     1      -8.873  15.340  66.475  1.00  0.00    -0.335 C  
BRANCH  20  21
HETATM   21  C   UNL     1      -9.636  14.056  66.138  1.00  0.00    -0.263 C  
BRANCH  21  22
HETATM   22  C   UNL     1     -10.154  13.377  67.409  1.00  0.00    -0.237 C  
BRANCH  22  23
HETATM   23  C   UNL     1     -11.546  12.780  67.195  1.00  0.00    -0.426 C  
BRANCH  23  24
HETATM   24  C   UNL     1     -11.674  12.123  65.820  1.00  0.00    -0.391 C  
HETATM   25  C   UNL     1     -12.667  12.853  64.944  1.00  0.00    -0.403 C  
HETATM   26  O   UNL     1     -13.300  13.844  65.264  1.00  0.00    -0.732 OA 
HETATM   27  O   UNL     1     -12.792  12.276  63.727  1.00  0.00    -0.735 OA 
ENDBRANCH  23  24
ENDBRANCH  22  23
ENDBRANCH  21  22
ENDBRANCH  20  21
ENDBRANCH  19  20
ENDBRANCH  18  19
ENDBRANCH  10  11
ENDBRANCH   6   9
ENDBRANCH   5   6
ENDBRANCH   4   5
ENDBRANCH   3   4
ENDBRANCH   2   3
TORSDOF 12
ENDMDL
MODEL        5
REMARK 921   NORMALIZED FREE ENERGY PREDICTED BY IDOCK:   -5.91 KCAL/MOL
REMARK 922        TOTAL FREE ENERGY PREDICTED BY IDOCK:  -12.01 KCAL/MOL
REMARK 923 INTER-LIGAND FREE ENERGY PREDICTED BY IDOCK:  -10.21 KCAL/MOL
REMARK 924 INTRA-LIGAND FREE ENERGY PREDICTED BY IDOCK:   -1.80 KCAL/MOL
REMARK 927      BINDING AFFINITY PREDICTED BY RF-SCORE:    0.00 PKD
ROOT
HETATM    1  C   UNL     1     -12.611  15.624  73.660  1.00  0.00    -0.710 C  
HETATM    2  C   UNL     1     -13.018  14.725  72.506  1.00  0.00    -0.481 C  
ENDROOT
BRANCH   2   3
HETATM    3  C   UNL     1     -12.679  15.345  71.149  1.00  0.00    -0.503 C  
BRANCH   3   4
HETATM    4  C   UNL     1     -12.101  14.282  70.216  1.00  0.00    -0.403 C  
BRANCH   4   5
HETATM    5  C   UNL     1     -12.336  12.859  70.729  1.00  0.00    -0.385 C  
BRANCH   5   6
HETATM    6  C   UNL     1     -11.925  11.776  69.717  1.00  0.00    -0.322 C  
HETATM    7  O   UNL     1     -10.714  11.194  70.188  1.00  0.00    -0.423 OA 
HETATM    8  H   UNL     1     -10.460  10.525  69.563  1.00  0.00     0.000 HD 
BRANCH   6   9
HETATM    9  C   UNL     1     -11.752  12.316  68.314  1.00  0.00    -0.392 C  
HETATM   10  C   UNL     1     -11.067  11.753  67.305  1.00  0.00    -0.342 C  
BRANCH  10  11
HETATM   11  C   UNL     1     -10.804  12.425  65.974  1.00  0.00    -0.308 C  
HETATM   12  C   UNL     1     -10.644  11.360  64.869  1.00  0.00    -0.307 C  
HETATM   13  O   UNL     1      -9.348  10.776  64.873  1.00  0.00    -0.199 OA 
HETATM   14  C   UNL     1     -10.898  12.087  63.566  1.00  0.00    -0.509 C  
HETATM   15  H   UNL     1      -9.249  10.121  64.193  1.00  0.00     0.000 HD 
HETATM   16  C   UNL     1     -11.941  13.075  63.985  1.00  0.00    -0.456 C  
HETATM   17  O   UNL     1     -12.702  13.603  63.183  1.00  0.00    -0.737 OA 
HETATM   18  C   UNL     1     -11.942  13.352  65.481  1.00  0.00    -0.433 C  
BRANCH  18  19
HETATM   19  C   UNL     1     -11.645  14.828  65.807  1.00  0.00    -0.290 C  
BRANCH  19  20
HETATM   20  C   UNL     1     -10.428  15.400  65.067  1.00  0.00    -0.411 C  
BRANCH  20  21
HETATM   21  C   UNL     1      -9.474  16.136  66.011  1.00  0.00    -0.374 C  
BRANCH  21  22
HETATM   22  C   UNL     1      -9.840  15.874  67.475  1.00  0.00    -0.230 C  
BRANCH  22  23
HETATM   23  C   UNL     1     -10.488  17.101  68.116  1.00  0.00    -0.366 C  
BRANCH  23  24
HETATM   24  C   UNL     1     -10.451  18.312  67.184  1.00  0.00    -0.417 C  
HETATM   25  C   UNL     1      -9.824  19.513  67.856  1.00  0.00    -0.379 C  
HETATM   26  O   UNL     1      -9.391  19.542  68.995  1.00  0.00    -0.377 OA 
HETATM   27  O   UNL     1      -9.791  20.592  67.041  1.00  0.00    -0.450 OA 
ENDBRANCH  23  24
ENDBRANCH  22  23
ENDBRANCH  21  22
ENDBRANCH  20  21
ENDBRANCH  19  20
ENDBRANCH  18  19
ENDBRANCH  10  11
ENDBRANCH   6   9
ENDBRANCH   5   6
ENDBRANCH   4   5
ENDBRANCH   3   4
ENDBRANCH   2   3
TORSDOF 12
ENDMDL
MODEL        6
REMARK 921   NORMALIZED FREE ENERGY PREDICTED BY IDOCK:   -5.86 KCAL/MOL
REMARK 922        TOTAL FREE ENERGY PREDICTED BY IDOCK:  -11.93 KCAL/MOL
REMARK 923 INTER-LIGAND FREE ENERGY PREDICTED BY IDOCK:   -9.95 KCAL/MOL
REMARK 924 INTRA-LIGAND FREE ENERGY PREDICTED BY IDOCK:   -1.98 KCAL/MOL
REMARK 927      BINDING AFFINITY PREDICTED BY RF-SCORE:    0.00 PKD
ROOT
HETATM    1  C   UNL     1     -13.030  10.498  71.711  1.00  0.00    -0.582 C  
HETATM    2  C   UNL     1     -12.911   9.075  72.226  1.00  0.00    -0.490 C  
ENDROOT
BRANCH   2   3
HETATM    3  C   UNL     1     -11.790   8.304  71.526  1.00  0.00    -0.335 C  
BRANCH   3   4
HETATM    4  C   UNL     1     -10.460   9.032  71.710  1.00  0.00    -0.418 C  
BRANCH   4   5
HETATM    5  C   UNL     1      -9.704   9.219  70.392  1.00  0.00    -0.293 C  
BRANCH   5   6
HETATM    6  C   UNL     1     -10.633   9.282  69.167  1.00  0.00    -0.212 C  
HETATM    7  O   UNL     1     -10.308   8.175  68.332  1.00  0.00    -0.205 OA 
HETATM    8  H   UNL     1     -10.882   8.214  67.575  1.00  0.00     0.000 HD 
BRANCH   6   9
HETATM    9  C   UNL     1     -10.515  10.584  68.405  1.00  0.00    -0.212 C  
HETATM   10  C   UNL     1     -11.122  10.908  67.252  1.00  0.00    -0.350 C  
BRANCH  10  11
HETATM   11  C   UNL     1     -10.837  12.168  66.464  1.00  0.00    -0.307 C  
HETATM   12  C   UNL     1     -10.298  11.803  65.064  1.00  0.00    -0.281 C  
HETATM   13  O   UNL     1      -8.917  11.464  65.095  1.00  0.00    -0.373 OA 
HETATM   14  C   UNL     1     -10.527  13.031  64.209  1.00  0.00    -0.424 C  
HETATM   15  H   UNL     1      -8.586  11.240  64.233  1.00  0.00     0.000 HD 
HETATM   16  C   UNL     1     -11.809  13.548  64.783  1.00  0.00    -0.381 C  
HETATM   17  O   UNL     1     -12.552  14.295  64.158  1.00  0.00    -0.689 OA 
HETATM   18  C   UNL     1     -12.073  13.062  66.201  1.00  0.00    -0.473 C  
BRANCH  18  19
HETATM   19  C   UNL     1     -12.155  14.219  67.215  1.00  0.00    -0.390 C  
BRANCH  19  20
HETATM   20  C   UNL     1     -10.909  14.366  68.098  1.00  0.00    -0.251 C  
BRANCH  20  21
HETATM   21  C   UNL     1     -11.260  14.820  69.517  1.00  0.00    -0.305 C  
BRANCH  21  22
HETATM   22  C   UNL     1     -12.102  13.762  70.239  1.00  0.00    -0.425 C  
BRANCH  22  23
HETATM   23  C   UNL     1     -13.293  14.394  70.960  1.00  0.00    -0.359 C  
BRANCH  23  24
HETATM   24  C   UNL     1     -13.168  14.263  72.479  1.00  0.00    -0.581 C  
HETATM   25  C   UNL     1     -12.503  15.475  73.090  1.00  0.00    -0.460 C  
HETATM   26  O   UNL     1     -12.107  16.451  72.476  1.00  0.00    -0.516 OA 
HETATM   27  O   UNL     1     -12.382  15.367  74.432  1.00  0.00    -0.641 OA 
ENDBRANCH  23  24
ENDBRANCH  22  23
ENDBRANCH  21  22
ENDBRANCH  20  21
ENDBRANCH  19  20
ENDBRANCH  18  19
ENDBRANCH  10  11
ENDBRANCH   6   9
ENDBRANCH   5   6
ENDBRANCH   4   5
ENDBRANCH   3   4
ENDBRANCH   2   3
TORSDOF 12
ENDMDL
MODEL        7
REMARK 921   NORMALIZED FREE ENERGY PREDICTED BY IDOCK:   -5.84 KCAL/MOL
REMARK 922        TOTAL FREE ENERGY PREDICTED BY IDOCK:  -11.88 KCAL/MOL
REMARK 923 INTER-LIGAND FREE ENERGY PREDICTED BY IDOCK:   -9.96 KCAL/MOL
REMARK 924 INTRA-LIGAND FREE ENERGY PREDICTED BY IDOCK:   -1.92 KCAL/MOL
REMARK 927      BINDING AFFINITY PREDICTED BY RF-SCORE:    0.00 PKD
ROOT
HETATM    1  C   UNL     1      -9.482  14.502  68.401  1.00  0.00    -0.209 C  
HETATM    2  C   UNL     1     -10.550  15.466  67.914  1.00  0.00    -0.267 C  
ENDROOT
BRANCH   2   3
HETATM    3  C   UNL     1     -11.644  15.685  68.961  1.00  0.00    -0.396 C  
BRANCH   3   4
HETATM    4  C   UNL     1     -11.751  14.464  69.872  1.00  0.00    -0.363 C  
BRANCH   4   5
HETATM    5  C   UNL     1     -12.583  14.737  71.127  1.00  0.00    -0.407 C  
BRANCH   5   6
HETATM    6  C   UNL     1     -13.533  13.581  71.485  1.00  0.00    -0.240 C  
HETATM    7  O   UNL     1     -14.278  13.984  72.630  1.00  0.00    -0.639 OA 
HETATM    8  H   UNL     1     -14.865  13.270  72.851  1.00  0.00     0.000 HD 
BRANCH   6   9
HETATM    9  C   UNL     1     -12.806  12.280  71.746  1.00  0.00    -0.359 C  
HETATM   10  C   UNL     1     -13.102  11.069  71.245  1.00  0.00    -0.381 C  
BRANCH  10  11
HETATM   11  C   UNL     1     -12.429   9.783  71.672  1.00  0.00    -0.500 C  
HETATM   12  C   UNL     1     -13.494   8.722  72.022  1.00  0.00    -0.418 C  
HETATM   13  O   UNL     1     -14.034   8.915  73.322  1.00  0.00    -1.203 OA 
HETATM   14  C   UNL     1     -12.782   7.389  71.931  1.00  0.00    -0.310 C  
HETATM   15  H   UNL     1     -14.690   8.261  73.537  1.00  0.00     0.000 HD 
HETATM   16  C   UNL     1     -11.826   7.647  70.809  1.00  0.00    -0.205 C  
HETATM   17  O   UNL     1     -11.327   6.740  70.153  1.00  0.00    -0.311 OA 
HETATM   18  C   UNL     1     -11.542   9.125  70.587  1.00  0.00    -0.282 C  
BRANCH  18  19
HETATM   19  C   UNL     1     -10.055   9.476  70.788  1.00  0.00    -0.352 C  
BRANCH  19  20
HETATM   20  C   UNL     1      -9.299   9.767  69.485  1.00  0.00    -0.226 C  
BRANCH  20  21
HETATM   21  C   UNL     1      -9.886  10.966  68.735  1.00  0.00    -0.203 C  
BRANCH  21  22
HETATM   22  C   UNL     1     -10.545  10.525  67.425  1.00  0.00    -0.313 C  
BRANCH  22  23
HETATM   23  C   UNL     1     -11.436  11.625  66.850  1.00  0.00    -0.320 C  
BRANCH  23  24
HETATM   24  C   UNL     1     -10.934  12.107  65.488  1.00  0.00    -0.343 C  
HETATM   25  C   UNL     1     -12.075  12.535  64.593  1.00  0.00    -0.428 C  
HETATM   26  O   UNL     1     -13.257  12.512  64.892  1.00  0.00    -0.787 OA 
HETATM   27  O   UNL     1     -11.642  12.957  63.384  1.00  0.00    -0.498 OA 
ENDBRANCH  23  24
ENDBRANCH  22  23
ENDBRANCH  21  22
ENDBRANCH  20  21
ENDBRANCH  19  20
ENDBRANCH  18  19
ENDBRANCH  10  11
ENDBRANCH   6   9
ENDBRANCH   5   6
ENDBRANCH   4   5
ENDBRANCH   3   4
ENDBRANCH   2   3
TORSDOF 12
ENDMDL
MODEL        8
REMARK 921   NORMALIZED FREE ENERGY PREDICTED BY IDOCK:   -5.84 KCAL/MOL
REMARK 922        TOTAL FREE ENERGY PREDICTED BY IDOCK:  -11.88 KCAL/MOL
REMARK 923 INTER-LIGAND FREE ENERGY PREDICTED BY IDOCK:  -10.31 KCAL/MOL
REMARK 924 INTRA-LIGAND FREE ENERGY PREDICTED BY IDOCK:   -1.57 KCAL/MOL
REMARK 927      BINDING AFFINITY PREDICTED BY RF-SCORE:    0.00 PKD
ROOT
HETATM    1  C   UNL     1      -9.285  20.224  67.333  1.00  0.00    -0.507 C  
HETATM    2  C   UNL     1     -10.611  19.504  67.165  1.00  0.00    -0.605 C  
ENDROOT
BRANCH   2   3
HETATM    3  C   UNL     1     -10.459  17.986  67.291  1.00  0.00    -0.390 C  
BRANCH   3   4
HETATM    4  C   UNL     1      -9.820  17.633  68.633  1.00  0.00    -0.347 C  
BRANCH   4   5
HETATM    5  C   UNL     1     -10.291  16.281  69.172  1.00  0.00    -0.272 C  
BRANCH   5   6
HETATM    6  C   UNL     1     -11.550  15.753  68.463  1.00  0.00    -0.362 C  
HETATM    7  O   UNL     1     -12.545  15.553  69.461  1.00  0.00    -0.604 OA 
HETATM    8  H   UNL     1     -13.323  15.227  69.023  1.00  0.00     0.000 HD 
BRANCH   6   9
HETATM    9  C   UNL     1     -11.299  14.477  67.688  1.00  0.00    -0.354 C  
HETATM   10  C   UNL     1     -12.145  13.857  66.850  1.00  0.00    -0.467 C  
BRANCH  10  11
HETATM   11  C   UNL     1     -11.888  12.500  66.230  1.00  0.00    -0.453 C  
HETATM   12  C   UNL     1     -11.469  12.665  64.754  1.00  0.00    -0.321 C  
HETATM   13  O   UNL     1     -12.586  12.884  63.903  1.00  0.00    -0.647 OA 
HETATM   14  C   UNL     1     -10.761  11.378  64.388  1.00  0.00    -0.405 C  
HETATM   15  H   UNL     1     -12.328  12.985  62.994  1.00  0.00     0.000 HD 
HETATM   16  C   UNL     1     -10.088  11.040  65.681  1.00  0.00    -0.256 C  
HETATM   17  O   UNL     1      -9.114  10.298  65.737  1.00  0.00    -0.158 OA 
HETATM   18  C   UNL     1     -10.741  11.695  66.889  1.00  0.00    -0.295 C  
BRANCH  18  19
HETATM   19  C   UNL     1     -11.285  10.664  67.896  1.00  0.00    -0.376 C  
BRANCH  19  20
HETATM   20  C   UNL     1     -10.931  10.970  69.358  1.00  0.00    -0.301 C  
BRANCH  20  21
HETATM   21  C   UNL     1     -12.177  11.078  70.241  1.00  0.00    -0.447 C  
BRANCH  21  22
HETATM   22  C   UNL     1     -12.369  12.512  70.745  1.00  0.00    -0.376 C  
BRANCH  22  23
HETATM   23  C   UNL     1     -13.208  12.546  72.022  1.00  0.00    -0.524 C  
BRANCH  23  24
HETATM   24  C   UNL     1     -14.118  13.775  72.069  1.00  0.00    -0.522 C  
HETATM   25  C   UNL     1     -13.444  14.941  72.757  1.00  0.00    -0.466 C  
HETATM   26  O   UNL     1     -12.319  14.933  73.225  1.00  0.00    -0.379 OA 
HETATM   27  O   UNL     1     -14.242  16.031  72.809  1.00  0.00    -0.472 OA 
ENDBRANCH  23  24
ENDBRANCH  22  23
ENDBRANCH  21  22
ENDBRANCH  20  21
ENDBRANCH  19  20
ENDBRANCH  18  19
ENDBRANCH  10  11
ENDBRANCH   6   9
ENDBRANCH   5   6
ENDBRANCH   4   5
ENDBRANCH   3   4
ENDBRANCH   2   3
TORSDOF 12
ENDMDL
MODEL        9
REMARK 921   NORMALIZED FREE ENERGY PREDICTED BY IDOCK:   -5.77 KCAL/MOL
REMARK 922        TOTAL FREE ENERGY PREDICTED BY IDOCK:  -11.77 KCAL/MOL
REMARK 923 INTER-LIGAND FREE ENERGY PREDICTED BY IDOCK:   -9.66 KCAL/MOL
REMARK 924 INTRA-LIGAND FREE ENERGY PREDICTED BY IDOCK:   -2.11 KCAL/MOL
REMARK 927      BINDING AFFINITY PREDICTED BY RF-SCORE:    0.00 PKD
ROOT
HETATM    1  C   UNL     1     -12.610  15.215  73.457  1.00  0.00    -0.682 C  
HETATM    2  C   UNL     1     -13.567  14.748  72.374  1.00  0.00    -0.550 C  
ENDROOT
BRANCH   2   3
HETATM    3  C   UNL     1     -13.748  13.229  72.385  1.00  0.00    -0.678 C  
BRANCH   3   4
HETATM    4  C   UNL     1     -12.782  12.579  71.396  1.00  0.00    -0.345 C  
BRANCH   4   5
HETATM    5  C   UNL     1     -12.803  11.051  71.472  1.00  0.00    -0.555 C  
BRANCH   5   6
HETATM    6  C   UNL     1     -11.876  10.382  70.442  1.00  0.00    -0.328 C  
HETATM    7  O   UNL     1     -10.579  10.308  71.024  1.00  0.00    -0.241 OA 
HETATM    8  H   UNL     1     -10.007   9.895  70.388  1.00  0.00     0.000 HD 
BRANCH   6   9
HETATM    9  C   UNL     1     -11.833  11.120  69.122  1.00  0.00    -0.419 C  
HETATM   10  C   UNL     1     -10.743  11.570  68.478  1.00  0.00    -0.242 C  
BRANCH  10  11
HETATM   11  C   UNL     1     -10.784  12.439  67.239  1.00  0.00    -0.259 C  
HETATM   12  C   UNL     1     -10.890  11.554  65.979  1.00  0.00    -0.276 C  
HETATM   13  O   UNL     1      -9.633  11.009  65.601  1.00  0.00    -0.205 OA 
HETATM   14  C   UNL     1     -11.428  12.461  64.892  1.00  0.00    -0.378 C  
HETATM   15  H   UNL     1      -9.698  10.465  64.825  1.00  0.00     0.000 HD 
HETATM   16  C   UNL     1     -12.338  13.349  65.681  1.00  0.00    -0.470 C  
HETATM   17  O   UNL     1     -13.257  13.971  65.161  1.00  0.00    -0.768 OA 
HETATM   18  C   UNL     1     -11.996  13.400  67.162  1.00  0.00    -0.415 C  
BRANCH  18  19
HETATM   19  C   UNL     1     -11.618  14.818  67.631  1.00  0.00    -0.374 C  
BRANCH  19  20
HETATM   20  C   UNL     1     -11.877  15.074  69.122  1.00  0.00    -0.338 C  
BRANCH  20  21
HETATM   21  C   UNL     1     -10.666  15.704  69.816  1.00  0.00    -0.309 C  
BRANCH  21  22
HETATM   22  C   UNL     1      -9.380  15.429  69.031  1.00  0.00    -0.232 C  
BRANCH  22  23
HETATM   23  C   UNL     1      -8.617  16.722  68.739  1.00  0.00    -0.255 C  
BRANCH  23  24
HETATM   24  C   UNL     1      -9.211  17.471  67.545  1.00  0.00    -0.242 C  
HETATM   25  C   UNL     1     -10.055  18.645  67.987  1.00  0.00    -0.375 C  
HETATM   26  O   UNL     1     -10.255  18.979  69.143  1.00  0.00    -0.314 OA 
HETATM   27  O   UNL     1     -10.590  19.311  66.939  1.00  0.00    -0.416 OA 
ENDBRANCH  23  24
ENDBRANCH  22  23
ENDBRANCH  21  22
ENDBRANCH  20  21
ENDBRANCH  19  20
ENDBRANCH  18  19
ENDBRANCH  10  11
ENDBRANCH   6   9
ENDBRANCH   5   6
ENDBRANCH   4   5
ENDBRANCH   3   4
ENDBRANCH   2   3
TORSDOF 12
ENDMDL
MODEL       10
REMARK 921   NORMALIZED FREE ENERGY PREDICTED BY IDOCK:   -5.67 KCAL/MOL
REMARK 922        TOTAL FREE ENERGY PREDICTED BY IDOCK:  -11.60 KCAL/MOL
REMARK 923 INTER-LIGAND FREE ENERGY PREDICTED BY IDOCK:   -9.96 KCAL/MOL
REMARK 924 INTRA-LIGAND FREE ENERGY PREDICTED BY IDOCK:   -1.64 KCAL/MOL
REMARK 927      BINDING AFFINITY PREDICTED BY RF-SCORE:    0.00 PKD
ROOT
HETATM    1  C   UNL     1     -11.783   8.354  72.401  1.00  0.00    -0.452 C  
HETATM    2  C   UNL     1     -12.412   9.099  71.237  1.00  0.00    -0.366 C  
ENDROOT
BRANCH   2   3
HETATM    3  C   UNL     1     -11.941  10.553  71.165  1.00  0.00    -0.435 C  
BRANCH   3   4
HETATM    4  C   UNL     1     -11.202  10.799  69.851  1.00  0.00    -0.371 C  
BRANCH   4   5
HETATM    5  C   UNL     1     -10.213   9.681  69.513  1.00  0.00    -0.233 C  
BRANCH   5   6
HETATM    6  C   UNL     1     -10.259   9.259  68.035  1.00  0.00    -0.209 C  
HETATM    7  O   UNL     1      -8.971   8.756  67.697  1.00  0.00    -0.134 OA 
HETATM    8  H   UNL     1      -9.000   8.495  66.784  1.00  0.00     0.000 HD 
BRANCH   6   9
HETATM    9  C   UNL     1     -10.655  10.390  67.111  1.00  0.00    -0.319 C  
HETATM   10  C   UNL     1     -10.145  10.666  65.899  1.00  0.00    -0.321 C  
BRANCH  10  11
HETATM   11  C   UNL     1     -10.477  11.906  65.098  1.00  0.00    -0.330 C  
HETATM   12  C   UNL     1     -11.334  11.527  63.872  1.00  0.00    -0.312 C  
HETATM   13  O   UNL     1     -10.547  11.006  62.809  1.00  0.00    -0.772 OA 
HETATM   14  C   UNL     1     -12.023  12.807  63.448  1.00  0.00    -0.613 C  
HETATM   15  H   UNL     1     -11.075  10.773  62.055  1.00  0.00     0.000 HD 
HETATM   16  C   UNL     1     -12.245  13.468  64.772  1.00  0.00    -0.409 C  
HETATM   17  O   UNL     1     -13.098  14.332  64.938  1.00  0.00    -0.645 OA 
HETATM   18  C   UNL     1     -11.307  12.967  65.861  1.00  0.00    -0.344 C  
BRANCH  18  19
HETATM   19  C   UNL     1     -10.409  14.084  66.424  1.00  0.00    -0.289 C  
BRANCH  19  20
HETATM   20  C   UNL     1     -11.127  15.039  67.388  1.00  0.00    -0.324 C  
BRANCH  20  21
HETATM   21  C   UNL     1     -11.468  14.363  68.719  1.00  0.00    -0.319 C  
BRANCH  21  22
HETATM   22  C   UNL     1     -10.834  15.115  69.894  1.00  0.00    -0.287 C  
BRANCH  22  23
HETATM   23  C   UNL     1     -11.847  15.354  71.014  1.00  0.00    -0.406 C  
BRANCH  23  24
HETATM   24  C   UNL     1     -12.928  14.272  71.040  1.00  0.00    -0.411 C  
HETATM   25  C   UNL     1     -13.453  14.043  72.439  1.00  0.00    -0.539 C  
HETATM   26  O   UNL     1     -13.083  14.631  73.440  1.00  0.00    -0.570 OA 
HETATM   27  O   UNL     1     -14.405  13.083  72.474  1.00  0.00    -0.548 OA 
ENDBRANCH  23  24
ENDBRANCH  22  23
ENDBRANCH  21  22
ENDBRANCH  20  21
ENDBRANCH  19  20
ENDBRANCH  18  19
ENDBRANCH  10  11
ENDBRANCH   6   9
ENDBRANCH   5   6
ENDBRANCH   4   5
ENDBRANCH   3   4
ENDBRANCH   2   3
TORSDOF 12
ENDMDL
MODEL       11
REMARK 921   NORMALIZED FREE ENERGY PREDICTED BY IDOCK:   -5.66 KCAL/MOL
REMARK 922        TOTAL FREE ENERGY PREDICTED BY IDOCK:  -11.59 KCAL/MOL
REMARK 923 INTER-LIGAND FREE ENERGY PREDICTED BY IDOCK:   -9.67 KCAL/MOL
REMARK 924 INTRA-LIGAND FREE ENERGY PREDICTED BY IDOCK:   -1.91 KCAL/MOL
REMARK 927      BINDING AFFINITY PREDICTED BY RF-SCORE:    0.00 PKD
ROOT
HETATM    1  C   UNL     1     -12.558  15.655  74.049  1.00  0.00    -0.767 C  
HETATM    2  C   UNL     1     -11.950  15.397  72.682  1.00  0.00    -0.553 C  
ENDROOT
BRANCH   2   3
HETATM    3  C   UNL     1     -12.959  15.621  71.554  1.00  0.00    -0.549 C  
BRANCH   3   4
HETATM    4  C   UNL     1     -12.848  14.500  70.521  1.00  0.00    -0.361 C  
BRANCH   4   5
HETATM    5  C   UNL     1     -12.161  13.252  71.079  1.00  0.00    -0.287 C  
BRANCH   5   6
HETATM    6  C   UNL     1     -13.109  12.047  71.209  1.00  0.00    -0.115 C  
HETATM    7  O   UNL     1     -13.576  12.019  72.554  1.00  0.00    -0.564 OA 
HETATM    8  H   UNL     1     -14.162  11.275  72.634  1.00  0.00     0.000 HD 
BRANCH   6   9
HETATM    9  C   UNL     1     -12.450  10.736  70.839  1.00  0.00    -0.500 C  
HETATM   10  C   UNL     1     -11.928   9.825  71.677  1.00  0.00    -0.454 C  
BRANCH  10  11
HETATM   11  C   UNL     1     -11.143   8.610  71.231  1.00  0.00    -0.336 C  
HETATM   12  C   UNL     1     -12.008   7.341  71.381  1.00  0.00    -0.320 C  
HETATM   13  O   UNL     1     -12.042   6.873  72.723  1.00  0.00    -0.485 OA 
HETATM   14  C   UNL     1     -11.374   6.309  70.472  1.00  0.00    -0.428 C  
HETATM   15  H   UNL     1     -12.575   6.091  72.815  1.00  0.00     0.000 HD 
HETATM   16  C   UNL     1     -10.889   7.172  69.350  1.00  0.00    -0.206 C  
HETATM   17  O   UNL     1     -10.659   6.725  68.232  1.00  0.00    -0.196 OA 
HETATM   18  C   UNL     1     -10.707   8.630  69.746  1.00  0.00    -0.215 C  
BRANCH  18  19
HETATM   19  C   UNL     1      -9.249   9.104  69.595  1.00  0.00    -0.172 C  
BRANCH  19  20
HETATM   20  C   UNL     1      -9.063  10.246  68.587  1.00  0.00    -0.152 C  
BRANCH  20  21
HETATM   21  C   UNL     1     -10.367  10.592  67.863  1.00  0.00    -0.231 C  
BRANCH  21  22
HETATM   22  C   UNL     1     -10.550  12.110  67.759  1.00  0.00    -0.229 C  
BRANCH  22  23
HETATM   23  C   UNL     1     -11.863  12.467  67.061  1.00  0.00    -0.368 C  
BRANCH  23  24
HETATM   24  C   UNL     1     -11.722  12.431  65.539  1.00  0.00    -0.459 C  
HETATM   25  C   UNL     1     -12.540  13.518  64.878  1.00  0.00    -0.342 C  
HETATM   26  O   UNL     1     -13.233  14.335  65.459  1.00  0.00    -0.641 OA 
HETATM   27  O   UNL     1     -12.427  13.491  63.531  1.00  0.00    -0.745 OA 
ENDBRANCH  23  24
ENDBRANCH  22  23
ENDBRANCH  21  22
ENDBRANCH  20  21
ENDBRANCH  19  20
ENDBRANCH  18  19
ENDBRANCH  10  11
ENDBRANCH   6   9
ENDBRANCH   5   6
ENDBRANCH   4   5
ENDBRANCH   3   4
ENDBRANCH   2   3
TORSDOF 12
ENDMDL
MODEL       12
REMARK 921   NORMALIZED FREE ENERGY PREDICTED BY IDOCK:   -5.66 KCAL/MOL
REMARK 922        TOTAL FREE ENERGY PREDICTED BY IDOCK:  -11.59 KCAL/MOL
REMARK 923 INTER-LIGAND FREE ENERGY PREDICTED BY IDOCK:   -9.54 KCAL/MOL
REMARK 924 INTRA-LIGAND FREE ENERGY PREDICTED BY IDOCK:   -2.05 KCAL/MOL
REMARK 927      BINDING AFFINITY PREDICTED BY RF-SCORE:    0.00 PKD
ROOT
HETATM    1  C   UNL     1     -11.566  11.386  68.360  1.00  0.00    -0.385 C  
HETATM    2  C   UNL     1     -11.541  11.742  66.884  1.00  0.00    -0.310 C  
ENDROOT
BRANCH   2   3
HETATM    3  C   UNL     1     -11.962  13.192  66.637  1.00  0.00    -0.451 C  
BRANCH   3   4
HETATM    4  C   UNL     1     -12.099  13.450  65.137  1.00  0.00    -0.442 C  
BRANCH   4   5
HETATM    5  C   UNL     1     -11.020  14.393  64.601  1.00  0.00    -0.367 C  
BRANCH   5   6
HETATM    6  C   UNL     1     -11.213  15.851  65.053  1.00  0.00    -0.290 C  
HETATM    7  O   UNL     1     -11.523  16.616  63.894  1.00  0.00    -1.604 OA 
HETATM    8  H   UNL     1     -11.642  17.517  64.173  1.00  0.00     0.000 HD 
BRANCH   6   9
HETATM    9  C   UNL     1     -10.000  16.413  65.762  1.00  0.00    -0.331 C  
HETATM   10  C   UNL     1      -9.864  17.641  66.289  1.00  0.00    -0.297 C  
BRANCH  10  11
HETATM   11  C   UNL     1      -8.567  18.191  66.844  1.00  0.00    -0.268 C  
HETATM   12  C   UNL     1      -8.481  19.708  66.575  1.00  0.00    -0.345 C  
HETATM   13  O   UNL     1      -8.075  19.993  65.243  1.00  0.00    -0.360 OA 
HETATM   14  C   UNL     1      -7.467  20.238  67.567  1.00  0.00    -0.347 C  
HETATM   15  H   UNL     1      -8.022  20.927  65.078  1.00  0.00     0.000 HD 
HETATM   16  C   UNL     1      -7.725  19.352  68.745  1.00  0.00    -0.362 C  
HETATM   17  O   UNL     1      -7.404  19.668  69.885  1.00  0.00    -0.110 OA 
HETATM   18  C   UNL     1      -8.403  18.041  68.376  1.00  0.00    -0.305 C  
BRANCH  18  19
HETATM   19  C   UNL     1      -7.544  16.812  68.731  1.00  0.00    -0.240 C  
BRANCH  19  20
HETATM   20  C   UNL     1      -8.349  15.615  69.254  1.00  0.00    -0.256 C  
BRANCH  20  21
HETATM   21  C   UNL     1      -9.768  16.014  69.669  1.00  0.00    -0.164 C  
BRANCH  21  22
HETATM   22  C   UNL     1     -10.751  14.861  69.443  1.00  0.00    -0.264 C  
BRANCH  22  23
HETATM   23  C   UNL     1     -12.185  15.278  69.767  1.00  0.00    -0.326 C  
BRANCH  23  24
HETATM   24  C   UNL     1     -12.837  14.328  70.772  1.00  0.00    -0.404 C  
HETATM   25  C   UNL     1     -12.666  14.816  72.193  1.00  0.00    -0.326 C  
HETATM   26  O   UNL     1     -12.087  15.837  72.526  1.00  0.00    -0.396 OA 
HETATM   27  O   UNL     1     -13.234  13.980  73.091  1.00  0.00    -0.589 OA 
ENDBRANCH  23  24
ENDBRANCH  22  23
ENDBRANCH  21  22
ENDBRANCH  20  21
ENDBRANCH  19  20
ENDBRANCH  18  19
ENDBRANCH  10  11
ENDBRANCH   6   9
ENDBRANCH   5   6
ENDBRANCH   4   5
ENDBRANCH   3   4
ENDBRANCH   2   3
TORSDOF 12
ENDMDL
MODEL       13
REMARK 921   NORMALIZED FREE ENERGY PREDICTED BY IDOCK:   -5.65 KCAL/MOL
REMARK 922        TOTAL FREE ENERGY PREDICTED BY IDOCK:  -11.56 KCAL/MOL
REMARK 923 INTER-LIGAND FREE ENERGY PREDICTED BY IDOCK:   -9.85 KCAL/MOL
REMARK 924 INTRA-LIGAND FREE ENERGY PREDICTED BY IDOCK:   -1.71 KCAL/MOL
REMARK 927      BINDING AFFINITY PREDICTED BY RF-SCORE:    0.00 PKD
ROOT
HETATM    1  C   UNL     1     -10.887   6.041  69.707  1.00  0.00    -0.433 C  
HETATM    2  C   UNL     1     -11.860   6.731  70.646  1.00  0.00    -0.442 C  
ENDROOT
BRANCH   2   3
HETATM    3  C   UNL     1     -11.164   7.269  71.898  1.00  0.00    -0.281 C  
BRANCH   3   4
HETATM    4  C   UNL     1     -11.475   8.754  72.074  1.00  0.00    -0.441 C  
BRANCH   4   5
HETATM    5  C   UNL     1     -11.020   9.596  70.879  1.00  0.00    -0.412 C  
BRANCH   5   6
HETATM    6  C   UNL     1     -12.035  10.682  70.484  1.00  0.00    -0.352 C  
HETATM    7  O   UNL     1     -13.284  10.034  70.263  1.00  0.00    -0.587 OA 
HETATM    8  H   UNL     1     -13.911  10.705  70.018  1.00  0.00     0.000 HD 
BRANCH   6   9
HETATM    9  C   UNL     1     -11.612  11.467  69.261  1.00  0.00    -0.384 C  
HETATM   10  C   UNL     1     -11.781  11.120  67.975  1.00  0.00    -0.288 C  
BRANCH  10  11
HETATM   11  C   UNL     1     -11.192  11.878  66.804  1.00  0.00    -0.384 C  
HETATM   12  C   UNL     1     -10.666  10.886  65.745  1.00  0.00    -0.109 C  
HETATM   13  O   UNL     1      -9.393  10.358  66.092  1.00  0.00    -0.162 OA 
HETATM   14  C   UNL     1     -10.584  11.676  64.456  1.00  0.00    -0.373 C  
HETATM   15  H   UNL     1      -9.070   9.747  65.440  1.00  0.00     0.000 HD 
HETATM   16  C   UNL     1     -11.756  12.594  64.604  1.00  0.00    -0.357 C  
HETATM   17  O   UNL     1     -12.289  13.136  63.642  1.00  0.00    -0.646 OA 
HETATM   18  C   UNL     1     -12.195  12.784  66.049  1.00  0.00    -0.380 C  
BRANCH  18  19
HETATM   19  C   UNL     1     -12.085  14.250  66.510  1.00  0.00    -0.454 C  
BRANCH  19  20
HETATM   20  C   UNL     1     -10.743  14.600  67.167  1.00  0.00    -0.292 C  
BRANCH  20  21
HETATM   21  C   UNL     1     -10.891  15.690  68.232  1.00  0.00    -0.298 C  
BRANCH  21  22
HETATM   22  C   UNL     1     -12.141  15.457  69.086  1.00  0.00    -0.270 C  
BRANCH  22  23
HETATM   23  C   UNL     1     -11.800  15.414  70.575  1.00  0.00    -0.373 C  
BRANCH  23  24
HETATM   24  C   UNL     1     -12.350  14.153  71.245  1.00  0.00    -0.447 C  
HETATM   25  C   UNL     1     -13.636  14.435  71.989  1.00  0.00    -0.424 C  
HETATM   26  O   UNL     1     -14.189  15.519  72.063  1.00  0.00    -0.518 OA 
HETATM   27  O   UNL     1     -14.128  13.328  72.591  1.00  0.00    -0.744 OA 
ENDBRANCH  23  24
ENDBRANCH  22  23
ENDBRANCH  21  22
ENDBRANCH  20  21
ENDBRANCH  19  20
ENDBRANCH  18  19
ENDBRANCH  10  11
ENDBRANCH   6   9
ENDBRANCH   5   6
ENDBRANCH   4   5
ENDBRANCH   3   4
ENDBRANCH   2   3
TORSDOF 12
ENDMDL
MODEL       14
REMARK 921   NORMALIZED FREE ENERGY PREDICTED BY IDOCK:   -5.64 KCAL/MOL
REMARK 922        TOTAL FREE ENERGY PREDICTED BY IDOCK:  -11.55 KCAL/MOL
REMARK 923 INTER-LIGAND FREE ENERGY PREDICTED BY IDOCK:   -9.02 KCAL/MOL
REMARK 924 INTRA-LIGAND FREE ENERGY PREDICTED BY IDOCK:   -2.53 KCAL/MOL
REMARK 927      BINDING AFFINITY PREDICTED BY RF-SCORE:    0.00 PKD
ROOT
HETATM    1  C   UNL     1      -9.646   9.540  65.669  1.00  0.00    -0.346 C  
HETATM    2  C   UNL     1      -9.620  10.906  65.007  1.00  0.00    -0.299 C  
ENDROOT
BRANCH   2   3
HETATM    3  C   UNL     1     -10.222  10.873  63.600  1.00  0.00    -0.395 C  
BRANCH   3   4
HETATM    4  C   UNL     1     -11.200  12.033  63.421  1.00  0.00    -0.481 C  
BRANCH   4   5
HETATM    5  C   UNL     1     -11.674  12.614  64.755  1.00  0.00    -0.402 C  
BRANCH   5   6
HETATM    6  C   UNL     1     -12.076  14.096  64.661  1.00  0.00    -0.452 C  
HETATM    7  O   UNL     1     -12.489  14.337  63.320  1.00  0.00    -1.133 OA 
HETATM    8  H   UNL     1     -12.738  15.253  63.262  1.00  0.00     0.000 HD 
BRANCH   6   9
HETATM    9  C   UNL     1     -10.959  15.036  65.059  1.00  0.00    -0.436 C  
HETATM   10  C   UNL     1     -11.023  16.046  65.941  1.00  0.00    -0.115 C  
BRANCH  10  11
HETATM   11  C   UNL     1      -9.910  17.045  66.174  1.00  0.00    -0.297 C  
HETATM   12  C   UNL     1     -10.500  18.462  66.334  1.00  0.00    -0.383 C  
HETATM   13  O   UNL     1     -10.820  19.053  65.082  1.00  0.00    -0.478 OA 
HETATM   14  C   UNL     1      -9.434  19.266  67.048  1.00  0.00    -0.385 C  
HETATM   15  H   UNL     1     -11.183  19.926  65.181  1.00  0.00     0.000 HD 
HETATM   16  C   UNL     1      -8.837  18.226  67.942  1.00  0.00    -0.269 C  
HETATM   17  O   UNL     1      -8.210  18.514  68.955  1.00  0.00    -0.277 OA 
HETATM   18  C   UNL     1      -9.081  16.804  67.459  1.00  0.00    -0.211 C  
BRANCH  18  19
HETATM   19  C   UNL     1      -7.771  16.054  67.149  1.00  0.00    -0.242 C  
BRANCH  19  20
HETATM   20  C   UNL     1      -7.808  14.560  67.500  1.00  0.00    -0.212 C  
BRANCH  20  21
HETATM   21  C   UNL     1      -8.978  14.215  68.425  1.00  0.00    -0.189 C  
BRANCH  21  22
HETATM   22  C   UNL     1      -9.695  12.946  67.953  1.00  0.00    -0.218 C  
BRANCH  22  23
HETATM   23  C   UNL     1     -11.081  12.820  68.584  1.00  0.00    -0.304 C  
BRANCH  23  24
HETATM   24  C   UNL     1     -11.700  14.190  68.866  1.00  0.00    -0.369 C  
HETATM   25  C   UNL     1     -12.392  14.223  70.211  1.00  0.00    -0.354 C  
HETATM   26  O   UNL     1     -12.462  13.291  70.994  1.00  0.00    -0.366 OA 
HETATM   27  O   UNL     1     -12.948  15.428  70.468  1.00  0.00    -0.409 OA 
ENDBRANCH  23  24
ENDBRANCH  22  23
ENDBRANCH  21  22
ENDBRANCH  20  21
ENDBRANCH  19  20
ENDBRANCH  18  19
ENDBRANCH  10  11
ENDBRANCH   6   9
ENDBRANCH   5   6
ENDBRANCH   4   5
ENDBRANCH   3   4
ENDBRANCH   2   3
TORSDOF 12
ENDMDL
MODEL       15
REMARK 921   NORMALIZED FREE ENERGY PREDICTED BY IDOCK:   -5.62 KCAL/MOL
REMARK 922        TOTAL FREE ENERGY PREDICTED BY IDOCK:  -11.51 KCAL/MOL
REMARK 923 INTER-LIGAND FREE ENERGY PREDICTED BY IDOCK:   -9.44 KCAL/MOL
REMARK 924 INTRA-LIGAND FREE ENERGY PREDICTED BY IDOCK:   -2.07 KCAL/MOL
REMARK 927      BINDING AFFINITY PREDICTED BY RF-SCORE:    0.00 PKD
ROOT
HETATM    1  C   UNL     1     -10.285  11.689  64.060  1.00  0.00    -0.391 C  
HETATM    2  C   UNL     1     -11.687  12.266  63.978  1.00  0.00    -0.506 C  
ENDROOT
BRANCH   2   3
HETATM    3  C   UNL     1     -11.722  13.745  64.370  1.00  0.00    -0.436 C  
BRANCH   3   4
HETATM    4  C   UNL     1     -10.525  14.081  65.258  1.00  0.00    -0.398 C  
BRANCH   4   5
HETATM    5  C   UNL     1     -10.938  14.738  66.577  1.00  0.00    -0.325 C  
BRANCH   5   6
HETATM    6  C   UNL     1     -11.851  13.847  67.437  1.00  0.00    -0.402 C  
HETATM    7  O   UNL     1     -12.300  14.636  68.534  1.00  0.00    -0.585 OA 
HETATM    8  H   UNL     1     -12.864  14.085  69.065  1.00  0.00     0.000 HD 
BRANCH   6   9
HETATM    9  C   UNL     1     -11.162  12.591  67.922  1.00  0.00    -0.312 C  
HETATM   10  C   UNL     1     -11.576  11.323  67.762  1.00  0.00    -0.307 C  
BRANCH  10  11
HETATM   11  C   UNL     1     -10.919  10.124  68.410  1.00  0.00    -0.293 C  
HETATM   12  C   UNL     1      -9.641   9.741  67.634  1.00  0.00    -0.145 C  
HETATM   13  O   UNL     1      -9.932   8.994  66.460  1.00  0.00    -0.246 OA 
HETATM   14  C   UNL     1      -8.813   8.919  68.599  1.00  0.00    -0.137 C  
HETATM   15  H   UNL     1      -9.145   8.759  65.983  1.00  0.00     0.000 HD 
HETATM   16  C   UNL     1      -9.141   9.582  69.899  1.00  0.00    -0.216 C  
HETATM   17  O   UNL     1      -8.414   9.493  70.882  1.00  0.00    -0.269 OA 
HETATM   18  C   UNL     1     -10.454  10.351  69.870  1.00  0.00    -0.266 C  
BRANCH  18  19
HETATM   19  C   UNL     1     -11.482   9.801  70.877  1.00  0.00    -0.447 C  
BRANCH  19  20
HETATM   20  C   UNL     1     -12.895  10.375  70.705  1.00  0.00    -0.450 C  
BRANCH  20  21
HETATM   21  C   UNL     1     -13.281  11.309  71.855  1.00  0.00    -0.491 C  
BRANCH  21  22
HETATM   22  C   UNL     1     -12.739  12.722  71.619  1.00  0.00    -0.293 C  
BRANCH  22  23
HETATM   23  C   UNL     1     -13.742  13.786  72.066  1.00  0.00    -0.572 C  
BRANCH  23  24
HETATM   24  C   UNL     1     -13.100  14.809  73.005  1.00  0.00    -0.614 C  
HETATM   25  C   UNL     1     -12.410  15.913  72.237  1.00  0.00    -0.483 C  
HETATM   26  O   UNL     1     -12.357  16.006  71.023  1.00  0.00    -0.399 OA 
HETATM   27  O   UNL     1     -11.834  16.820  73.058  1.00  0.00    -0.452 OA 
ENDBRANCH  23  24
ENDBRANCH  22  23
ENDBRANCH  21  22
ENDBRANCH  20  21
ENDBRANCH  19  20
ENDBRANCH  18  19
ENDBRANCH  10  11
ENDBRANCH   6   9
ENDBRANCH   5   6
ENDBRANCH   4   5
ENDBRANCH   3   4
ENDBRANCH   2   3
TORSDOF 12
ENDMDL
MODEL       16
REMARK 921   NORMALIZED FREE ENERGY PREDICTED BY IDOCK:   -5.59 KCAL/MOL
REMARK 922        TOTAL FREE ENERGY PREDICTED BY IDOCK:  -11.46 KCAL/MOL
REMARK 923 INTER-LIGAND FREE ENERGY PREDICTED BY IDOCK:   -9.98 KCAL/MOL
REMARK 924 INTRA-LIGAND FREE ENERGY PREDICTED BY IDOCK:   -1.49 KCAL/MOL
REMARK 927      BINDING AFFINITY PREDICTED BY RF-SCORE:    0.00 PKD
ROOT
HETATM    1  C   UNL     1     -11.040   9.660  70.904  1.00  0.00    -0.422 C  
HETATM    2  C   UNL     1     -12.241   9.462  71.811  1.00  0.00    -0.465 C  
ENDROOT
BRANCH   2   3
HETATM    3  C   UNL     1     -13.186  10.665  71.782  1.00  0.00    -0.526 C  
BRANCH   3   4
HETATM    4  C   UNL     1     -12.525  11.834  71.053  1.00  0.00    -0.411 C  
BRANCH   4   5
HETATM    5  C   UNL     1     -12.998  13.194  71.572  1.00  0.00    -0.412 C  
BRANCH   5   6
HETATM    6  C   UNL     1     -12.580  14.364  70.666  1.00  0.00    -0.357 C  
HETATM    7  O   UNL     1     -13.613  15.342  70.734  1.00  0.00    -0.692 OA 
HETATM    8  H   UNL     1     -13.355  16.065  70.174  1.00  0.00     0.000 HD 
BRANCH   6   9
HETATM    9  C   UNL     1     -12.332  13.942  69.234  1.00  0.00    -0.201 C  
HETATM   10  C   UNL     1     -11.191  14.068  68.536  1.00  0.00    -0.291 C  
BRANCH  10  11
HETATM   11  C   UNL     1     -11.059  13.768  67.058  1.00  0.00    -0.313 C  
HETATM   12  C   UNL     1     -12.011  12.618  66.668  1.00  0.00    -0.312 C  
HETATM   13  O   UNL     1     -11.480  11.345  67.011  1.00  0.00    -0.452 OA 
HETATM   14  C   UNL     1     -12.192  12.734  65.169  1.00  0.00    -0.530 C  
HETATM   15  H   UNL     1     -12.066  10.637  66.770  1.00  0.00     0.000 HD 
HETATM   16  C   UNL     1     -12.143  14.219  64.986  1.00  0.00    -0.425 C  
HETATM   17  O   UNL     1     -12.622  14.774  64.004  1.00  0.00    -0.822 OA 
HETATM   18  C   UNL     1     -11.438  14.943  66.124  1.00  0.00    -0.272 C  
BRANCH  18  19
HETATM   19  C   UNL     1     -10.188  15.709  65.650  1.00  0.00    -0.402 C  
BRANCH  19  20
HETATM   20  C   UNL     1     -10.304  17.234  65.776  1.00  0.00    -0.245 C  
BRANCH  20  21
HETATM   21  C   UNL     1     -10.774  17.661  67.170  1.00  0.00    -0.203 C  
BRANCH  21  22
HETATM   22  C   UNL     1     -10.809  19.188  67.292  1.00  0.00    -0.529 C  
BRANCH  22  23
HETATM   23  C   UNL     1      -9.670  19.837  66.506  1.00  0.00    -0.529 C  
BRANCH  23  24
HETATM   24  C   UNL     1      -8.674  20.540  67.430  1.00  0.00    -0.373 C  
HETATM   25  C   UNL     1      -7.524  19.632  67.803  1.00  0.00    -0.278 C  
HETATM   26  O   UNL     1      -7.380  18.481  67.428  1.00  0.00    -0.215 OA 
HETATM   27  O   UNL     1      -6.640  20.241  68.625  1.00  0.00    -0.299 OA 
ENDBRANCH  23  24
ENDBRANCH  22  23
ENDBRANCH  21  22
ENDBRANCH  20  21
ENDBRANCH  19  20
ENDBRANCH  18  19
ENDBRANCH  10  11
ENDBRANCH   6   9
ENDBRANCH   5   6
ENDBRANCH   4   5
ENDBRANCH   3   4
ENDBRANCH   2   3
TORSDOF 12
ENDMDL
MODEL       17
REMARK 921   NORMALIZED FREE ENERGY PREDICTED BY IDOCK:   -5.55 KCAL/MOL
REMARK 922        TOTAL FREE ENERGY PREDICTED BY IDOCK:  -11.40 KCAL/MOL
REMARK 923 INTER-LIGAND FREE ENERGY PREDICTED BY IDOCK:   -9.31 KCAL/MOL
REMARK 924 INTRA-LIGAND FREE ENERGY PREDICTED BY IDOCK:   -2.09 KCAL/MOL
REMARK 927      BINDING AFFINITY PREDICTED BY RF-SCORE:    0.00 PKD
ROOT
HETATM    1  C   UNL     1     -10.205  19.600  68.456  1.00  0.00    -0.529 C  
HETATM    2  C   UNL     1      -9.525  18.359  67.906  1.00  0.00    -0.299 C  
ENDROOT
BRANCH   2   3
HETATM    3  C   UNL     1     -10.431  17.127  67.981  1.00  0.00    -0.369 C  
BRANCH   3   4
HETATM    4  C   UNL     1     -10.689  16.755  69.440  1.00  0.00    -0.300 C  
BRANCH   4   5
HETATM    5  C   UNL     1     -10.497  15.260  69.708  1.00  0.00    -0.287 C  
BRANCH   5   6
HETATM    6  C   UNL     1     -11.823  14.484  69.780  1.00  0.00    -0.315 C  
HETATM    7  O   UNL     1     -11.863  13.830  71.044  1.00  0.00    -0.494 OA 
HETATM    8  H   UNL     1     -12.682  13.350  71.089  1.00  0.00     0.000 HD 
BRANCH   6   9
HETATM    9  C   UNL     1     -11.983  13.487  68.653  1.00  0.00    -0.378 C  
HETATM   10  C   UNL     1     -11.298  13.449  67.498  1.00  0.00    -0.327 C  
BRANCH  10  11
HETATM   11  C   UNL     1     -11.618  12.519  66.348  1.00  0.00    -0.449 C  
HETATM   12  C   UNL     1     -11.941  13.340  65.081  1.00  0.00    -0.381 C  
HETATM   13  O   UNL     1     -13.270  13.843  65.095  1.00  0.00    -0.768 OA 
HETATM   14  C   UNL     1     -11.741  12.389  63.921  1.00  0.00    -0.529 C  
HETATM   15  H   UNL     1     -13.468  14.348  64.315  1.00  0.00     0.000 HD 
HETATM   16  C   UNL     1     -10.601  11.558  64.421  1.00  0.00    -0.334 C  
HETATM   17  O   UNL     1      -9.871  10.926  63.666  1.00  0.00    -0.288 OA 
HETATM   18  C   UNL     1     -10.461  11.576  65.935  1.00  0.00    -0.303 C  
BRANCH  18  19
HETATM   19  C   UNL     1     -10.628  10.177  66.560  1.00  0.00    -0.179 C  
BRANCH  19  20
HETATM   20  C   UNL     1      -9.403   9.694  67.347  1.00  0.00    -0.155 C  
BRANCH  20  21
HETATM   21  C   UNL     1      -9.164  10.529  68.608  1.00  0.00    -0.172 C  
BRANCH  21  22
HETATM   22  C   UNL     1      -9.772   9.850  69.839  1.00  0.00    -0.274 C  
BRANCH  22  23
HETATM   23  C   UNL     1     -11.123  10.465  70.206  1.00  0.00    -0.379 C  
BRANCH  23  24
HETATM   24  C   UNL     1     -12.000   9.482  70.982  1.00  0.00    -0.407 C  
HETATM   25  C   UNL     1     -13.092  10.194  71.747  1.00  0.00    -0.463 C  
HETATM   26  O   UNL     1     -13.277  11.399  71.762  1.00  0.00    -0.458 OA 
HETATM   27  O   UNL     1     -13.871   9.334  72.442  1.00  0.00    -0.470 OA 
ENDBRANCH  23  24
ENDBRANCH  22  23
ENDBRANCH  21  22
ENDBRANCH  20  21
ENDBRANCH  19  20
ENDBRANCH  18  19
ENDBRANCH  10  11
ENDBRANCH   6   9
ENDBRANCH   5   6
ENDBRANCH   4   5
ENDBRANCH   3   4
ENDBRANCH   2   3
TORSDOF 12
ENDMDL
MODEL       18
REMARK 921   NORMALIZED FREE ENERGY PREDICTED BY IDOCK:   -5.55 KCAL/MOL
REMARK 922        TOTAL FREE ENERGY PREDICTED BY IDOCK:  -11.39 KCAL/MOL
REMARK 923 INTER-LIGAND FREE ENERGY PREDICTED BY IDOCK:   -9.95 KCAL/MOL
REMARK 924 INTRA-LIGAND FREE ENERGY PREDICTED BY IDOCK:   -1.44 KCAL/MOL
REMARK 927      BINDING AFFINITY PREDICTED BY RF-SCORE:    0.00 PKD
ROOT
HETATM    1  C   UNL     1     -14.404   7.581  71.552  1.00  0.00    -0.603 C  
HETATM    2  C   UNL     1     -12.895   7.540  71.388  1.00  0.00    -0.381 C  
ENDROOT
BRANCH   2   3
HETATM    3  C   UNL     1     -12.200   8.633  72.203  1.00  0.00    -0.453 C  
BRANCH   3   4
HETATM    4  C   UNL     1     -11.432   9.572  71.275  1.00  0.00    -0.447 C  
BRANCH   4   5
HETATM    5  C   UNL     1     -12.357  10.410  70.389  1.00  0.00    -0.370 C  
BRANCH   5   6
HETATM    6  C   UNL     1     -11.792  11.805  70.074  1.00  0.00    -0.342 C  
HETATM    7  O   UNL     1     -12.584  12.752  70.784  1.00  0.00    -0.310 OA 
HETATM    8  H   UNL     1     -12.234  13.615  70.589  1.00  0.00     0.000 HD 
BRANCH   6   9
HETATM    9  C   UNL     1     -11.779  12.115  68.593  1.00  0.00    -0.382 C  
HETATM   10  C   UNL     1     -10.813  11.815  67.709  1.00  0.00    -0.258 C  
BRANCH  10  11
HETATM   11  C   UNL     1     -10.794  12.294  66.273  1.00  0.00    -0.313 C  
HETATM   12  C   UNL     1     -10.402  11.133  65.336  1.00  0.00    -0.271 C  
HETATM   13  O   UNL     1      -8.999  10.909  65.319  1.00  0.00    -0.194 OA 
HETATM   14  C   UNL     1     -10.895  11.537  63.963  1.00  0.00    -0.453 C  
HETATM   15  H   UNL     1      -8.758  10.194  64.742  1.00  0.00     0.000 HD 
HETATM   16  C   UNL     1     -12.145  12.283  64.312  1.00  0.00    -0.412 C  
HETATM   17  O   UNL     1     -13.052  12.455  63.506  1.00  0.00    -0.724 OA 
HETATM   18  C   UNL     1     -12.157  12.802  65.742  1.00  0.00    -0.505 C  
BRANCH  18  19
HETATM   19  C   UNL     1     -12.249  14.338  65.811  1.00  0.00    -0.415 C  
BRANCH  19  20
HETATM   20  C   UNL     1     -11.197  15.067  64.963  1.00  0.00    -0.413 C  
BRANCH  20  21
HETATM   21  C   UNL     1     -10.243  15.902  65.822  1.00  0.00    -0.389 C  
BRANCH  21  22
HETATM   22  C   UNL     1     -10.530  15.700  67.313  1.00  0.00    -0.292 C  
BRANCH  22  23
HETATM   23  C   UNL     1     -10.635  17.038  68.047  1.00  0.00    -0.373 C  
BRANCH  23  24
HETATM   24  C   UNL     1     -10.597  18.219  67.076  1.00  0.00    -0.375 C  
HETATM   25  C   UNL     1     -10.298  19.518  67.791  1.00  0.00    -0.452 C  
HETATM   26  O   UNL     1     -10.105  19.639  68.988  1.00  0.00    -0.445 OA 
HETATM   27  O   UNL     1     -10.268  20.570  66.943  1.00  0.00    -0.373 OA 
ENDBRANCH  23  24
ENDBRANCH  22  23
ENDBRANCH  21  22
ENDBRANCH  20  21
ENDBRANCH  19  20
ENDBRANCH  18  19
ENDBRANCH  10  11
ENDBRANCH   6   9
ENDBRANCH   5   6
ENDBRANCH   4   5
ENDBRANCH   3   4
ENDBRANCH   2   3
TORSDOF 12
ENDMDL
MODEL       19
REMARK 921   NORMALIZED FREE ENERGY PREDICTED BY IDOCK:   -5.54 KCAL/MOL
REMARK 922        TOTAL FREE ENERGY PREDICTED BY IDOCK:  -11.38 KCAL/MOL
REMARK 923 INTER-LIGAND FREE ENERGY PREDICTED BY IDOCK:   -9.60 KCAL/MOL
REMARK 924 INTRA-LIGAND FREE ENERGY PREDICTED BY IDOCK:   -1.78 KCAL/MOL
REMARK 927      BINDING AFFINITY PREDICTED BY RF-SCORE:    0.00 PKD
ROOT
HETATM    1  C   UNL     1      -7.704  16.818  67.711  1.00  0.00    -0.180 C  
HETATM    2  C   UNL     1      -9.203  16.676  67.519  1.00  0.00    -0.207 C  
ENDROOT
BRANCH   2   3
HETATM    3  C   UNL     1      -9.562  16.268  66.088  1.00  0.00    -0.362 C  
BRANCH   3   4
HETATM    4  C   UNL     1     -10.732  15.286  66.101  1.00  0.00    -0.322 C  
BRANCH   4   5
HETATM    5  C   UNL     1     -10.753  14.378  64.869  1.00  0.00    -0.444 C  
BRANCH   5   6
HETATM    6  C   UNL     1     -11.973  13.443  64.827  1.00  0.00    -0.390 C  
HETATM    7  O   UNL     1     -13.131  14.249  65.012  1.00  0.00    -0.682 OA 
HETATM    8  H   UNL     1     -13.885  13.671  64.987  1.00  0.00     0.000 HD 
BRANCH   6   9
HETATM    9  C   UNL     1     -11.909  12.345  65.867  1.00  0.00    -0.467 C  
HETATM   10  C   UNL     1     -10.806  11.805  66.411  1.00  0.00    -0.325 C  
BRANCH  10  11
HETATM   11  C   UNL     1     -10.811  10.601  67.329  1.00  0.00    -0.345 C  
HETATM   12  C   UNL     1      -9.671   9.637  66.939  1.00  0.00    -0.186 C  
HETATM   13  O   UNL     1     -10.012   8.832  65.818  1.00  0.00    -0.459 OA 
HETATM   14  C   UNL     1      -9.431   8.777  68.161  1.00  0.00    -0.152 C  
HETATM   15  H   UNL     1      -9.310   8.238  65.578  1.00  0.00     0.000 HD 
HETATM   16  C   UNL     1      -9.704   9.756  69.261  1.00  0.00    -0.196 C  
HETATM   17  O   UNL     1      -9.267   9.604  70.396  1.00  0.00    -0.250 OA 
HETATM   18  C   UNL     1     -10.573  10.926  68.824  1.00  0.00    -0.231 C  
BRANCH  18  19
HETATM   19  C   UNL     1     -11.901  10.996  69.601  1.00  0.00    -0.414 C  
BRANCH  19  20
HETATM   20  C   UNL     1     -12.125  12.323  70.339  1.00  0.00    -0.385 C  
BRANCH  20  21
HETATM   21  C   UNL     1     -12.031  13.527  69.398  1.00  0.00    -0.383 C  
BRANCH  21  22
HETATM   22  C   UNL     1     -11.470  14.751  70.128  1.00  0.00    -0.313 C  
BRANCH  22  23
HETATM   23  C   UNL     1     -12.581  15.558  70.799  1.00  0.00    -0.505 C  
BRANCH  23  24
HETATM   24  C   UNL     1     -12.195  15.981  72.217  1.00  0.00    -0.604 C  
HETATM   25  C   UNL     1     -12.796  15.060  73.256  1.00  0.00    -0.531 C  
HETATM   26  O   UNL     1     -13.501  14.094  73.023  1.00  0.00    -0.661 OA 
HETATM   27  O   UNL     1     -12.465  15.429  74.514  1.00  0.00    -0.609 OA 
ENDBRANCH  23  24
ENDBRANCH  22  23
ENDBRANCH  21  22
ENDBRANCH  20  21
ENDBRANCH  19  20
ENDBRANCH  18  19
ENDBRANCH  10  11
ENDBRANCH   6   9
ENDBRANCH   5   6
ENDBRANCH   4   5
ENDBRANCH   3   4
ENDBRANCH   2   3
TORSDOF 12
ENDMDL
MODEL       20
REMARK 921   NORMALIZED FREE ENERGY PREDICTED BY IDOCK:   -5.54 KCAL/MOL
REMARK 922        TOTAL FREE ENERGY PREDICTED BY IDOCK:  -11.37 KCAL/MOL
REMARK 923 INTER-LIGAND FREE ENERGY PREDICTED BY IDOCK:   -9.28 KCAL/MOL
REMARK 924 INTRA-LIGAND FREE ENERGY PREDICTED BY IDOCK:   -2.10 KCAL/MOL
REMARK 927      BINDING AFFINITY PREDICTED BY RF-SCORE:    0.00 PKD
ROOT
HETATM    1  C   UNL     1     -13.309  15.771  72.917  1.00  0.00    -0.661 C  
HETATM    2  C   UNL     1     -13.575  14.736  71.839  1.00  0.00    -0.492 C  
ENDROOT
BRANCH   2   3
HETATM    3  C   UNL     1     -13.634  13.317  72.408  1.00  0.00    -0.694 C  
BRANCH   3   4
HETATM    4  C   UNL     1     -13.016  12.329  71.420  1.00  0.00    -0.354 C  
BRANCH   4   5
HETATM    5  C   UNL     1     -13.157  10.875  71.876  1.00  0.00    -0.537 C  
BRANCH   5   6
HETATM    6  C   UNL     1     -12.252   9.907  71.095  1.00  0.00    -0.373 C  
HETATM    7  O   UNL     1     -11.334   9.341  72.025  1.00  0.00    -0.349 OA 
HETATM    8  H   UNL     1     -10.775   8.743  71.543  1.00  0.00     0.000 HD 
BRANCH   6   9
HETATM    9  C   UNL     1     -11.518  10.577  69.954  1.00  0.00    -0.384 C  
HETATM   10  C   UNL     1     -11.444  10.159  68.679  1.00  0.00    -0.105 C  
BRANCH  10  11
HETATM   11  C   UNL     1     -10.562  10.793  67.625  1.00  0.00    -0.271 C  
HETATM   12  C   UNL     1     -10.716  12.328  67.664  1.00  0.00    -0.220 C  
HETATM   13  O   UNL     1     -11.893  12.765  66.996  1.00  0.00    -0.372 OA 
HETATM   14  C   UNL     1      -9.481  12.877  66.983  1.00  0.00    -0.235 C  
HETATM   15  H   UNL     1     -11.987  13.710  67.020  1.00  0.00     0.000 HD 
HETATM   16  C   UNL     1      -8.451  11.873  67.399  1.00  0.00    -0.166 C  
HETATM   17  O   UNL     1      -7.252  12.125  67.394  1.00  0.00    -0.125 OA 
HETATM   18  C   UNL     1      -9.046  10.534  67.807  1.00  0.00    -0.140 C  
BRANCH  18  19
HETATM   19  C   UNL     1      -8.564   9.377  66.911  1.00  0.00    -0.132 C  
BRANCH  19  20
HETATM   20  C   UNL     1      -9.417   9.161  65.654  1.00  0.00    -0.309 C  
BRANCH  20  21
HETATM   21  C   UNL     1      -8.594   9.299  64.370  1.00  0.00    -0.216 C  
BRANCH  21  22
HETATM   22  C   UNL     1      -9.178  10.382  63.458  1.00  0.00    -0.310 C  
BRANCH  22  23
HETATM   23  C   UNL     1     -10.509  10.908  63.998  1.00  0.00    -0.379 C  
BRANCH  23  24
HETATM   24  C   UNL     1     -10.859  12.273  63.404  1.00  0.00    -0.457 C  
HETATM   25  C   UNL     1     -12.270  12.688  63.756  1.00  0.00    -0.514 C  
HETATM   26  O   UNL     1     -13.053  12.038  64.428  1.00  0.00    -0.655 OA 
HETATM   27  O   UNL     1     -12.593  13.891  63.231  1.00  0.00    -0.824 OA 
ENDBRANCH  23  24
ENDBRANCH  22  23
ENDBRANCH  21  22
ENDBRANCH  20  21
ENDBRANCH  19  20
ENDBRANCH  18  19
ENDBRANCH  10  11
ENDBRANCH   6   9
ENDBRANCH   5   6
ENDBRANCH   4   5
ENDBRANCH   3   4
ENDBRANCH   2   3
TORSDOF 12
ENDMDL
MODEL       21
REMARK 921   NORMALIZED FREE ENERGY PREDICTED BY IDOCK:   -5.53 KCAL/MOL
REMARK 922        TOTAL FREE ENERGY PREDICTED BY IDOCK:  -11.36 KCAL/MOL
REMARK 923 INTER-LIGAND FREE ENERGY PREDICTED BY IDOCK:   -8.80 KCAL/MOL
REMARK 924 INTRA-LIGAND FREE ENERGY PREDICTED BY IDOCK:   -2.56 KCAL/MOL
REMARK 927      BINDING AFFINITY PREDICTED BY RF-SCORE:    0.00 PKD
ROOT
HETATM    1  C   UNL     1     -12.076   9.585  71.340  1.00  0.00    -0.459 C  
HETATM    2  C   UNL     1     -11.917  10.846  70.509  1.00  0.00    -0.466 C  
ENDROOT
BRANCH   2   3
HETATM    3  C   UNL     1     -12.573  12.058  71.174  1.00  0.00    -0.372 C  
BRANCH   3   4
HETATM    4  C   UNL     1     -12.274  13.322  70.370  1.00  0.00    -0.404 C  
BRANCH   4   5
HETATM    5  C   UNL     1     -11.965  14.527  71.261  1.00  0.00    -0.396 C  
BRANCH   5   6
HETATM    6  C   UNL     1     -11.883  15.851  70.481  1.00  0.00    -0.350 C  
HETATM    7  O   UNL     1     -13.136  16.036  69.830  1.00  0.00    -0.488 OA 
HETATM    8  H   UNL     1     -13.085  16.853  69.348  1.00  0.00     0.000 HD 
BRANCH   6   9
HETATM    9  C   UNL     1     -10.747  15.877  69.483  1.00  0.00    -0.288 C  
HETATM   10  C   UNL     1     -10.832  16.096  68.160  1.00  0.00    -0.329 C  
BRANCH  10  11
HETATM   11  C   UNL     1      -9.674  15.952  67.196  1.00  0.00    -0.227 C  
HETATM   12  C   UNL     1      -9.094  17.342  66.859  1.00  0.00    -0.245 C  
HETATM   13  O   UNL     1      -9.871  18.022  65.882  1.00  0.00    -0.535 OA 
HETATM   14  C   UNL     1      -7.695  17.082  66.343  1.00  0.00    -0.350 C  
HETATM   15  H   UNL     1      -9.514  18.878  65.675  1.00  0.00     0.000 HD 
HETATM   16  C   UNL     1      -7.293  15.906  67.176  1.00  0.00    -0.223 C  
HETATM   17  O   UNL     1      -6.119  15.607  67.363  1.00  0.00    -0.250 OA 
HETATM   18  C   UNL     1      -8.477  15.135  67.741  1.00  0.00    -0.156 C  
BRANCH  18  19
HETATM   19  C   UNL     1      -8.521  13.677  67.246  1.00  0.00    -0.203 C  
BRANCH  19  20
HETATM   20  C   UNL     1      -9.486  12.778  68.032  1.00  0.00    -0.213 C  
BRANCH  20  21
HETATM   21  C   UNL     1     -10.169  11.744  67.133  1.00  0.00    -0.236 C  
BRANCH  21  22
HETATM   22  C   UNL     1     -11.533  12.250  66.653  1.00  0.00    -0.431 C  
BRANCH  22  23
HETATM   23  C   UNL     1     -11.569  12.397  65.132  1.00  0.00    -0.408 C  
BRANCH  23  24
HETATM   24  C   UNL     1     -10.914  13.702  64.674  1.00  0.00    -0.403 C  
HETATM   25  C   UNL     1     -11.930  14.813  64.529  1.00  0.00    -0.440 C  
HETATM   26  O   UNL     1     -13.125  14.713  64.744  1.00  0.00    -0.405 OA 
HETATM   27  O   UNL     1     -11.362  15.970  64.119  1.00  0.00    -0.522 OA 
ENDBRANCH  23  24
ENDBRANCH  22  23
ENDBRANCH  21  22
ENDBRANCH  20  21
ENDBRANCH  19  20
ENDBRANCH  18  19
ENDBRANCH  10  11
ENDBRANCH   6   9
ENDBRANCH   5   6
ENDBRANCH   4   5
ENDBRANCH   3   4
ENDBRANCH   2   3
TORSDOF 12
ENDMDL
MODEL       22
REMARK 921   NORMALIZED FREE ENERGY PREDICTED BY IDOCK:   -5.49 KCAL/MOL
REMARK 922        TOTAL FREE ENERGY PREDICTED BY IDOCK:  -11.30 KCAL/MOL
REMARK 923 INTER-LIGAND FREE ENERGY PREDICTED BY IDOCK:   -9.18 KCAL/MOL
REMARK 924 INTRA-LIGAND FREE ENERGY PREDICTED BY IDOCK:   -2.12 KCAL/MOL
REMARK 927      BINDING AFFINITY PREDICTED BY RF-SCORE:    0.00 PKD
ROOT
HETATM    1  C   UNL     1     -11.295  12.590  63.875  1.00  0.00    -0.504 C  
HETATM    2  C   UNL     1     -11.016  12.202  65.316  1.00  0.00    -0.349 C  
ENDROOT
BRANCH   2   3
HETATM    3  C   UNL     1     -11.924  12.946  66.297  1.00  0.00    -0.472 C  
BRANCH   3   4
HETATM    4  C   UNL     1     -11.684  12.441  67.719  1.00  0.00    -0.413 C  
BRANCH   4   5
HETATM    5  C   UNL     1     -11.592  13.578  68.739  1.00  0.00    -0.362 C  
BRANCH   5   6
HETATM    6  C   UNL     1     -12.207  13.219  70.102  1.00  0.00    -0.306 C  
HETATM    7  O   UNL     1     -11.575  14.038  71.081  1.00  0.00    -0.477 OA 
HETATM    8  H   UNL     1     -11.955  13.816  71.923  1.00  0.00     0.000 HD 
BRANCH   6   9
HETATM    9  C   UNL     1     -12.057  11.753  70.448  1.00  0.00    -0.440 C  
HETATM   10  C   UNL     1     -12.693  11.079  71.420  1.00  0.00    -0.534 C  
BRANCH  10  11
HETATM   11  C   UNL     1     -12.379   9.651  71.812  1.00  0.00    -0.474 C  
HETATM   12  C   UNL     1     -13.683   8.832  71.909  1.00  0.00    -0.433 C  
HETATM   13  O   UNL     1     -14.367   9.058  73.135  1.00  0.00    -1.136 OA 
HETATM   14  C   UNL     1     -13.261   7.383  71.792  1.00  0.00    -0.371 C  
HETATM   15  H   UNL     1     -15.169   8.553  73.194  1.00  0.00     0.000 HD 
HETATM   16  C   UNL     1     -12.110   7.493  70.842  1.00  0.00    -0.226 C  
HETATM   17  O   UNL     1     -11.716   6.541  70.178  1.00  0.00    -0.418 OA 
HETATM   18  C   UNL     1     -11.492   8.883  70.802  1.00  0.00    -0.319 C  
BRANCH  18  19
HETATM   19  C   UNL     1     -10.014   8.883  71.239  1.00  0.00    -0.358 C  
BRANCH  19  20
HETATM   20  C   UNL     1      -9.017   8.838  70.073  1.00  0.00    -0.162 C  
BRANCH  20  21
HETATM   21  C   UNL     1      -9.423   9.775  68.933  1.00  0.00    -0.161 C  
BRANCH  21  22
HETATM   22  C   UNL     1      -8.499   9.599  67.724  1.00  0.00    -0.125 C  
BRANCH  22  23
HETATM   23  C   UNL     1      -9.280   9.165  66.483  1.00  0.00    -0.221 C  
BRANCH  23  24
HETATM   24  C   UNL     1     -10.430   8.222  66.840  1.00  0.00    -0.365 C  
HETATM   25  C   UNL     1     -10.043   6.773  66.644  1.00  0.00    -0.136 C  
HETATM   26  O   UNL     1      -8.959   6.376  66.253  1.00  0.00    -0.150 OA 
HETATM   27  O   UNL     1     -11.056   5.931  66.951  1.00  0.00    -0.263 OA 
ENDBRANCH  23  24
ENDBRANCH  22  23
ENDBRANCH  21  22
ENDBRANCH  20  21
ENDBRANCH  19  20
ENDBRANCH  18  19
ENDBRANCH  10  11
ENDBRANCH   6   9
ENDBRANCH   5   6
ENDBRANCH   4   5
ENDBRANCH   3   4
ENDBRANCH   2   3
TORSDOF 12
ENDMDL
MODEL       23
REMARK 921   NORMALIZED FREE ENERGY PREDICTED BY IDOCK:   -5.48 KCAL/MOL
REMARK 922        TOTAL FREE ENERGY PREDICTED BY IDOCK:  -11.27 KCAL/MOL
REMARK 923 INTER-LIGAND FREE ENERGY PREDICTED BY IDOCK:   -9.81 KCAL/MOL
REMARK 924 INTRA-LIGAND FREE ENERGY PREDICTED BY IDOCK:   -1.47 KCAL/MOL
REMARK 927      BINDING AFFINITY PREDICTED BY RF-SCORE:    0.00 PKD
ROOT
HETATM    1  C   UNL     1     -10.683   5.824  70.556  1.00  0.00    -0.361 C  
HETATM    2  C   UNL     1     -11.845   6.800  70.595  1.00  0.00    -0.442 C  
ENDROOT
BRANCH   2   3
HETATM    3  C   UNL     1     -11.769   7.735  71.803  1.00  0.00    -0.323 C  
BRANCH   3   4
HETATM    4  C   UNL     1     -10.850   8.916  71.496  1.00  0.00    -0.396 C  
BRANCH   4   5
HETATM    5  C   UNL     1     -11.027   9.444  70.071  1.00  0.00    -0.267 C  
BRANCH   5   6
HETATM    6  C   UNL     1     -11.920  10.694  69.996  1.00  0.00    -0.329 C  
HETATM    7  O   UNL     1     -13.269  10.259  70.132  1.00  0.00    -0.526 OA 
HETATM    8  H   UNL     1     -13.821  11.031  70.086  1.00  0.00     0.000 HD 
BRANCH   6   9
HETATM    9  C   UNL     1     -11.733  11.477  68.715  1.00  0.00    -0.397 C  
HETATM   10  C   UNL     1     -11.245  11.022  67.549  1.00  0.00    -0.372 C  
BRANCH  10  11
HETATM   11  C   UNL     1     -10.937  11.899  66.354  1.00  0.00    -0.337 C  
HETATM   12  C   UNL     1     -10.529  11.024  65.150  1.00  0.00    -0.262 C  
HETATM   13  O   UNL     1      -9.176  10.599  65.234  1.00  0.00    -0.178 OA 
HETATM   14  C   UNL     1     -10.742  11.893  63.929  1.00  0.00    -0.450 C  
HETATM   15  H   UNL     1      -8.924  10.060  64.492  1.00  0.00     0.000 HD 
HETATM   16  C   UNL     1     -11.941  12.686  64.343  1.00  0.00    -0.400 C  
HETATM   17  O   UNL     1     -12.678  13.231  63.530  1.00  0.00    -0.708 OA 
HETATM   18  C   UNL     1     -12.130  12.750  65.852  1.00  0.00    -0.485 C  
BRANCH  18  19
HETATM   19  C   UNL     1     -12.060  14.190  66.395  1.00  0.00    -0.475 C  
BRANCH  19  20
HETATM   20  C   UNL     1     -10.638  14.673  66.707  1.00  0.00    -0.288 C  
BRANCH  20  21
HETATM   21  C   UNL     1     -10.458  15.014  68.189  1.00  0.00    -0.245 C  
BRANCH  21  22
HETATM   22  C   UNL     1     -11.046  16.391  68.509  1.00  0.00    -0.357 C  
BRANCH  22  23
HETATM   23  C   UNL     1      -9.978  17.483  68.445  1.00  0.00    -0.335 C  
BRANCH  23  24
HETATM   24  C   UNL     1     -10.489  18.733  67.727  1.00  0.00    -0.479 C  
HETATM   25  C   UNL     1     -10.145  18.709  66.255  1.00  0.00    -0.400 C  
HETATM   26  O   UNL     1      -9.539  17.819  65.683  1.00  0.00    -0.484 OA 
HETATM   27  O   UNL     1     -10.587  19.813  65.611  1.00  0.00    -0.507 OA 
ENDBRANCH  23  24
ENDBRANCH  22  23
ENDBRANCH  21  22
ENDBRANCH  20  21
ENDBRANCH  19  20
ENDBRANCH  18  19
ENDBRANCH  10  11
ENDBRANCH   6   9
ENDBRANCH   5   6
ENDBRANCH   4   5
ENDBRANCH   3   4
ENDBRANCH   2   3
TORSDOF 12
ENDMDL
MODEL       24
REMARK 921   NORMALIZED FREE ENERGY PREDICTED BY IDOCK:   -5.46 KCAL/MOL
REMARK 922        TOTAL FREE ENERGY PREDICTED BY IDOCK:  -11.25 KCAL/MOL
REMARK 923 INTER-LIGAND FREE ENERGY PREDICTED BY IDOCK:   -9.53 KCAL/MOL
REMARK 924 INTRA-LIGAND FREE ENERGY PREDICTED BY IDOCK:   -1.72 KCAL/MOL
REMARK 927      BINDING AFFINITY PREDICTED BY RF-SCORE:    0.00 PKD
ROOT
HETATM    1  C   UNL     1     -12.220  13.943  64.201  1.00  0.00    -0.436 C  
HETATM    2  C   UNL     1     -12.473  12.467  64.451  1.00  0.00    -0.530 C  
ENDROOT
BRANCH   2   3
HETATM    3  C   UNL     1     -11.231  11.617  64.173  1.00  0.00    -0.421 C  
BRANCH   3   4
HETATM    4  C   UNL     1     -10.277  11.678  65.365  1.00  0.00    -0.306 C  
BRANCH   4   5
HETATM    5  C   UNL     1     -10.481  10.517  66.341  1.00  0.00    -0.258 C  
BRANCH   5   6
HETATM    6  C   UNL     1     -10.762  10.980  67.781  1.00  0.00    -0.227 C  
HETATM    7  O   UNL     1     -12.173  10.944  67.968  1.00  0.00    -0.695 OA 
HETATM    8  H   UNL     1     -12.348  11.230  68.858  1.00  0.00     0.000 HD 
BRANCH   6   9
HETATM    9  C   UNL     1     -10.215  12.360  68.073  1.00  0.00    -0.219 C  
HETATM   10  C   UNL     1     -10.755  13.539  67.725  1.00  0.00    -0.262 C  
BRANCH  10  11
HETATM   11  C   UNL     1     -10.073  14.877  67.913  1.00  0.00    -0.227 C  
HETATM   12  C   UNL     1      -9.530  15.386  66.561  1.00  0.00    -0.273 C  
HETATM   13  O   UNL     1      -8.299  14.765  66.212  1.00  0.00    -0.331 OA 
HETATM   14  C   UNL     1      -9.345  16.878  66.734  1.00  0.00    -0.267 C  
HETATM   15  H   UNL     1      -7.965  15.078  65.380  1.00  0.00     0.000 HD 
HETATM   16  C   UNL     1     -10.488  17.207  67.643  1.00  0.00    -0.355 C  
HETATM   17  O   UNL     1     -10.945  18.340  67.736  1.00  0.00    -0.321 OA 
HETATM   18  C   UNL     1     -10.997  16.008  68.428  1.00  0.00    -0.331 C  
BRANCH  18  19
HETATM   19  C   UNL     1     -10.856  16.197  69.951  1.00  0.00    -0.355 C  
BRANCH  19  20
HETATM   20  C   UNL     1     -12.148  15.936  70.736  1.00  0.00    -0.393 C  
BRANCH  20  21
HETATM   21  C   UNL     1     -11.918  15.969  72.250  1.00  0.00    -0.633 C  
BRANCH  21  22
HETATM   22  C   UNL     1     -13.071  15.289  72.995  1.00  0.00    -0.612 C  
BRANCH  22  23
HETATM   23  C   UNL     1     -13.923  14.441  72.050  1.00  0.00    -0.592 C  
BRANCH  23  24
HETATM   24  C   UNL     1     -13.992  12.983  72.507  1.00  0.00    -0.320 C  
HETATM   25  C   UNL     1     -13.089  12.096  71.680  1.00  0.00    -0.310 C  
HETATM   26  O   UNL     1     -12.380  12.468  70.760  1.00  0.00    -0.377 OA 
HETATM   27  O   UNL     1     -13.147  10.804  72.072  1.00  0.00    -0.483 OA 
ENDBRANCH  23  24
ENDBRANCH  22  23
ENDBRANCH  21  22
ENDBRANCH  20  21
ENDBRANCH  19  20
ENDBRANCH  18  19
ENDBRANCH  10  11
ENDBRANCH   6   9
ENDBRANCH   5   6
ENDBRANCH   4   5
ENDBRANCH   3   4
ENDBRANCH   2   3
TORSDOF 12
ENDMDL
MODEL       25
REMARK 921   NORMALIZED FREE ENERGY PREDICTED BY IDOCK:   -5.43 KCAL/MOL
REMARK 922        TOTAL FREE ENERGY PREDICTED BY IDOCK:  -11.19 KCAL/MOL
REMARK 923 INTER-LIGAND FREE ENERGY PREDICTED BY IDOCK:   -9.65 KCAL/MOL
REMARK 924 INTRA-LIGAND FREE ENERGY PREDICTED BY IDOCK:   -1.54 KCAL/MOL
REMARK 927      BINDING AFFINITY PREDICTED BY RF-SCORE:    0.00 PKD
ROOT
HETATM    1  C   UNL     1     -12.617  13.732  66.040  1.00  0.00    -0.458 C  
HETATM    2  C   UNL     1     -11.959  12.993  64.888  1.00  0.00    -0.441 C  
ENDROOT
BRANCH   2   3
HETATM    3  C   UNL     1     -10.993  11.912  65.377  1.00  0.00    -0.352 C  
BRANCH   3   4
HETATM    4  C   UNL     1     -10.409  12.304  66.733  1.00  0.00    -0.238 C  
BRANCH   4   5
HETATM    5  C   UNL     1      -9.981  11.091  67.562  1.00  0.00    -0.199 C  
BRANCH   5   6
HETATM    6  C   UNL     1     -10.851  10.875  68.812  1.00  0.00    -0.209 C  
HETATM    7  O   UNL     1     -11.923  10.016  68.438  1.00  0.00    -0.477 OA 
HETATM    8  H   UNL     1     -12.461   9.883  69.211  1.00  0.00     0.000 HD 
BRANCH   6   9
HETATM    9  C   UNL     1     -11.375  12.169  69.395  1.00  0.00    -0.311 C  
HETATM   10  C   UNL     1     -12.131  12.317  70.496  1.00  0.00    -0.371 C  
BRANCH  10  11
HETATM   11  C   UNL     1     -12.752  13.626  70.933  1.00  0.00    -0.382 C  
HETATM   12  C   UNL     1     -13.169  13.541  72.417  1.00  0.00    -0.477 C  
HETATM   13  O   UNL     1     -14.403  12.856  72.586  1.00  0.00    -0.627 OA 
HETATM   14  C   UNL     1     -13.286  14.975  72.887  1.00  0.00    -0.585 C  
HETATM   15  H   UNL     1     -14.660  12.804  73.500  1.00  0.00     0.000 HD 
HETATM   16  C   UNL     1     -12.196  15.628  72.096  1.00  0.00    -0.439 C  
HETATM   17  O   UNL     1     -11.686  16.690  72.436  1.00  0.00    -0.480 OA 
HETATM   18  C   UNL     1     -11.808  14.851  70.847  1.00  0.00    -0.375 C  
BRANCH  18  19
HETATM   19  C   UNL     1     -12.048  15.654  69.555  1.00  0.00    -0.307 C  
BRANCH  19  20
HETATM   20  C   UNL     1     -10.880  15.605  68.561  1.00  0.00    -0.282 C  
BRANCH  20  21
HETATM   21  C   UNL     1     -10.533  16.992  68.012  1.00  0.00    -0.353 C  
BRANCH  21  22
HETATM   22  C   UNL     1      -9.638  17.761  68.989  1.00  0.00    -0.137 C  
BRANCH  22  23
HETATM   23  C   UNL     1      -9.496  19.227  68.579  1.00  0.00    -0.447 C  
BRANCH  23  24
HETATM   24  C   UNL     1     -10.524  19.619  67.516  1.00  0.00    -0.589 C  
HETATM   25  C   UNL     1      -9.903  19.688  66.139  1.00  0.00    -0.436 C  
HETATM   26  O   UNL     1      -8.734  19.462  65.877  1.00  0.00    -0.427 OA 
HETATM   27  O   UNL     1     -10.802  20.040  65.193  1.00  0.00    -0.251 OA 
ENDBRANCH  23  24
ENDBRANCH  22  23
ENDBRANCH  21  22
ENDBRANCH  20  21
ENDBRANCH  19  20
ENDBRANCH  18  19
ENDBRANCH  10  11
ENDBRANCH   6   9
ENDBRANCH   5   6
ENDBRANCH   4   5
ENDBRANCH   3   4
ENDBRANCH   2   3
TORSDOF 12
ENDMDL
MODEL       26
REMARK 921   NORMALIZED FREE ENERGY PREDICTED BY IDOCK:   -5.42 KCAL/MOL
REMARK 922        TOTAL FREE ENERGY PREDICTED BY IDOCK:  -11.18 KCAL/MOL
REMARK 923 INTER-LIGAND FREE ENERGY PREDICTED BY IDOCK:   -9.13 KCAL/MOL
REMARK 924 INTRA-LIGAND FREE ENERGY PREDICTED BY IDOCK:   -2.04 KCAL/MOL
REMARK 927      BINDING AFFINITY PREDICTED BY RF-SCORE:    0.00 PKD
ROOT
HETATM    1  C   UNL     1      -8.759   9.819  70.028  1.00  0.00    -0.237 C  
HETATM    2  C   UNL     1      -9.068   8.877  71.178  1.00  0.00    -0.315 C  
ENDROOT
BRANCH   2   3
HETATM    3  C   UNL     1     -10.073   7.795  70.779  1.00  0.00    -0.195 C  
BRANCH   3   4
HETATM    4  C   UNL     1     -11.484   8.380  70.735  1.00  0.00    -0.277 C  
BRANCH   4   5
HETATM    5  C   UNL     1     -12.084   8.572  72.130  1.00  0.00    -0.449 C  
BRANCH   5   6
HETATM    6  C   UNL     1     -12.867   9.889  72.275  1.00  0.00    -0.259 C  
HETATM    7  O   UNL     1     -14.237   9.548  72.461  1.00  0.00    -0.602 OA 
HETATM    8  H   UNL     1     -14.720  10.362  72.551  1.00  0.00     0.000 HD 
BRANCH   6   9
HETATM    9  C   UNL     1     -12.697  10.809  71.086  1.00  0.00    -0.532 C  
HETATM   10  C   UNL     1     -12.440  12.127  71.109  1.00  0.00    -0.337 C  
BRANCH  10  11
HETATM   11  C   UNL     1     -12.439  13.016  69.884  1.00  0.00    -0.061 C  
HETATM   12  C   UNL     1     -12.250  14.490  70.303  1.00  0.00    -0.330 C  
HETATM   13  O   UNL     1     -13.460  15.071  70.771  1.00  0.00    -0.606 OA 
HETATM   14  C   UNL     1     -11.759  15.204  69.062  1.00  0.00    -0.358 C  
HETATM   15  H   UNL     1     -13.343  15.978  71.029  1.00  0.00     0.000 HD 
HETATM   16  C   UNL     1     -10.926  14.136  68.425  1.00  0.00    -0.254 C  
HETATM   17  O   UNL     1     -10.044  14.391  67.612  1.00  0.00    -0.220 OA 
HETATM   18  C   UNL     1     -11.296  12.732  68.878  1.00  0.00    -0.344 C  
BRANCH  18  19
HETATM   19  C   UNL     1     -11.781  11.845  67.715  1.00  0.00    -0.362 C  
BRANCH  19  20
HETATM   20  C   UNL     1     -10.907  10.608  67.466  1.00  0.00    -0.351 C  
BRANCH  20  21
HETATM   21  C   UNL     1      -9.748  10.905  66.511  1.00  0.00    -0.235 C  
BRANCH  21  22
HETATM   22  C   UNL     1      -9.921  10.152  65.188  1.00  0.00    -0.379 C  
BRANCH  22  23
HETATM   23  C   UNL     1      -9.787  11.091  63.990  1.00  0.00    -0.365 C  
BRANCH  23  24
HETATM   24  C   UNL     1     -11.145  11.637  63.545  1.00  0.00    -0.476 C  
HETATM   25  C   UNL     1     -11.330  13.078  63.963  1.00  0.00    -0.410 C  
HETATM   26  O   UNL     1     -10.517  13.748  64.576  1.00  0.00    -0.434 OA 
HETATM   27  O   UNL     1     -12.530  13.569  63.579  1.00  0.00    -0.745 OA 
ENDBRANCH  23  24
ENDBRANCH  22  23
ENDBRANCH  21  22
ENDBRANCH  20  21
ENDBRANCH  19  20
ENDBRANCH  18  19
ENDBRANCH  10  11
ENDBRANCH   6   9
ENDBRANCH   5   6
ENDBRANCH   4   5
ENDBRANCH   3   4
ENDBRANCH   2   3
TORSDOF 12
ENDMDL
MODEL       27
REMARK 921   NORMALIZED FREE ENERGY PREDICTED BY IDOCK:   -5.41 KCAL/MOL
REMARK 922        TOTAL FREE ENERGY PREDICTED BY IDOCK:  -11.16 KCAL/MOL
REMARK 923 INTER-LIGAND FREE ENERGY PREDICTED BY IDOCK:   -9.54 KCAL/MOL
REMARK 924 INTRA-LIGAND FREE ENERGY PREDICTED BY IDOCK:   -1.62 KCAL/MOL
REMARK 927      BINDING AFFINITY PREDICTED BY RF-SCORE:    0.00 PKD
ROOT
HETATM    1  C   UNL     1     -11.006   6.791  67.089  1.00  0.00    -0.458 C  
HETATM    2  C   UNL     1     -10.984   6.342  68.539  1.00  0.00    -0.421 C  
ENDROOT
BRANCH   2   3
HETATM    3  C   UNL     1     -10.145   7.274  69.415  1.00  0.00    -0.183 C  
BRANCH   3   4
HETATM    4  C   UNL     1     -10.169   8.692  68.847  1.00  0.00    -0.221 C  
BRANCH   4   5
HETATM    5  C   UNL     1     -10.493   9.746  69.908  1.00  0.00    -0.298 C  
BRANCH   5   6
HETATM    6  C   UNL     1     -11.530  10.780  69.436  1.00  0.00    -0.295 C  
HETATM    7  O   UNL     1     -12.818  10.264  69.755  1.00  0.00    -0.579 OA 
HETATM    8  H   UNL     1     -13.459  10.902  69.464  1.00  0.00     0.000 HD 
BRANCH   6   9
HETATM    9  C   UNL     1     -11.425  11.087  67.958  1.00  0.00    -0.365 C  
HETATM   10  C   UNL     1     -10.602  11.971  67.369  1.00  0.00    -0.253 C  
BRANCH  10  11
HETATM   11  C   UNL     1     -10.659  12.342  65.902  1.00  0.00    -0.290 C  
HETATM   12  C   UNL     1     -10.238  11.136  65.037  1.00  0.00    -0.296 C  
HETATM   13  O   UNL     1      -8.826  10.985  64.982  1.00  0.00    -0.298 OA 
HETATM   14  C   UNL     1     -10.800  11.410  63.659  1.00  0.00    -0.459 C  
HETATM   15  H   UNL     1      -8.567  10.242  64.449  1.00  0.00     0.000 HD 
HETATM   16  C   UNL     1     -12.076  12.114  64.002  1.00  0.00    -0.443 C  
HETATM   17  O   UNL     1     -13.019  12.177  63.221  1.00  0.00    -0.735 OA 
HETATM   18  C   UNL     1     -12.066  12.737  65.390  1.00  0.00    -0.512 C  
BRANCH  18  19
HETATM   19  C   UNL     1     -12.240  14.267  65.350  1.00  0.00    -0.408 C  
BRANCH  19  20
HETATM   20  C   UNL     1     -11.020  15.021  64.805  1.00  0.00    -0.389 C  
BRANCH  20  21
HETATM   21  C   UNL     1     -10.640  16.214  65.686  1.00  0.00    -0.377 C  
BRANCH  21  22
HETATM   22  C   UNL     1     -10.651  15.827  67.168  1.00  0.00    -0.313 C  
BRANCH  22  23
HETATM   23  C   UNL     1     -10.316  17.023  68.060  1.00  0.00    -0.341 C  
BRANCH  23  24
HETATM   24  C   UNL     1     -10.624  18.350  67.365  1.00  0.00    -0.445 C  
HETATM   25  C   UNL     1      -9.735  19.463  67.872  1.00  0.00    -0.352 C  
HETATM   26  O   UNL     1      -8.871  19.348  68.724  1.00  0.00    -0.366 OA 
HETATM   27  O   UNL     1     -10.003  20.643  67.268  1.00  0.00    -0.448 OA 
ENDBRANCH  23  24
ENDBRANCH  22  23
ENDBRANCH  21  22
ENDBRANCH  20  21
ENDBRANCH  19  20
ENDBRANCH  18  19
ENDBRANCH  10  11
ENDBRANCH   6   9
ENDBRANCH   5   6
ENDBRANCH   4   5
ENDBRANCH   3   4
ENDBRANCH   2   3
TORSDOF 12
ENDMDL
MODEL       28
REMARK 921   NORMALIZED FREE ENERGY PREDICTED BY IDOCK:   -5.41 KCAL/MOL
REMARK 922        TOTAL FREE ENERGY PREDICTED BY IDOCK:  -11.15 KCAL/MOL
REMARK 923 INTER-LIGAND FREE ENERGY PREDICTED BY IDOCK:   -9.82 KCAL/MOL
REMARK 924 INTRA-LIGAND FREE ENERGY PREDICTED BY IDOCK:   -1.33 KCAL/MOL
REMARK 927      BINDING AFFINITY PREDICTED BY RF-SCORE:    0.00 PKD
ROOT
HETATM    1  C   UNL     1     -12.291  14.400  64.729  1.00  0.00    -0.427 C  
HETATM    2  C   UNL     1     -12.631  12.925  64.846  1.00  0.00    -0.525 C  
ENDROOT
BRANCH   2   3
HETATM    3  C   UNL     1     -11.992  12.099  63.728  1.00  0.00    -0.607 C  
BRANCH   3   4
HETATM    4  C   UNL     1     -10.477  12.039  63.920  1.00  0.00    -0.440 C  
BRANCH   4   5
HETATM    5  C   UNL     1      -9.844  10.827  63.233  1.00  0.00    -0.394 C  
BRANCH   5   6
HETATM    6  C   UNL     1      -9.058   9.926  64.201  1.00  0.00    -0.252 C  
HETATM    7  O   UNL     1      -8.732   8.732  63.496  1.00  0.00    -0.409 OA 
HETATM    8  H   UNL     1      -8.246   8.175  64.094  1.00  0.00     0.000 HD 
BRANCH   6   9
HETATM    9  C   UNL     1      -9.825   9.612  65.467  1.00  0.00    -0.352 C  
HETATM   10  C   UNL     1      -9.537   8.667  66.378  1.00  0.00    -0.316 C  
BRANCH  10  11
HETATM   11  C   UNL     1     -10.435   8.303  67.540  1.00  0.00    -0.325 C  
HETATM   12  C   UNL     1     -10.656   6.776  67.577  1.00  0.00    -0.279 C  
HETATM   13  O   UNL     1     -11.637   6.355  66.638  1.00  0.00    -0.671 OA 
HETATM   14  C   UNL     1     -11.101   6.466  68.990  1.00  0.00    -0.424 C  
HETATM   15  H   UNL     1     -11.772   5.415  66.662  1.00  0.00     0.000 HD 
HETATM   16  C   UNL     1     -10.314   7.473  69.769  1.00  0.00    -0.221 C  
HETATM   17  O   UNL     1     -10.074   7.335  70.963  1.00  0.00    -0.192 OA 
HETATM   18  C   UNL     1      -9.868   8.664  68.935  1.00  0.00    -0.184 C  
BRANCH  18  19
HETATM   19  C   UNL     1     -10.449   9.995  69.450  1.00  0.00    -0.252 C  
BRANCH  19  20
HETATM   20  C   UNL     1     -11.478  10.634  68.508  1.00  0.00    -0.333 C  
BRANCH  20  21
HETATM   21  C   UNL     1     -11.576  12.149  68.706  1.00  0.00    -0.380 C  
BRANCH  21  22
HETATM   22  C   UNL     1     -12.038  12.489  70.126  1.00  0.00    -0.368 C  
BRANCH  22  23
HETATM   23  C   UNL     1     -12.532  13.932  70.223  1.00  0.00    -0.380 C  
BRANCH  23  24
HETATM   24  C   UNL     1     -12.179  14.562  71.572  1.00  0.00    -0.415 C  
HETATM   25  C   UNL     1     -13.288  14.371  72.582  1.00  0.00    -0.507 C  
HETATM   26  O   UNL     1     -14.341  13.792  72.377  1.00  0.00    -0.664 OA 
HETATM   27  O   UNL     1     -12.989  14.929  73.777  1.00  0.00    -0.506 OA 
ENDBRANCH  23  24
ENDBRANCH  22  23
ENDBRANCH  21  22
ENDBRANCH  20  21
ENDBRANCH  19  20
ENDBRANCH  18  19
ENDBRANCH  10  11
ENDBRANCH   6   9
ENDBRANCH   5   6
ENDBRANCH   4   5
ENDBRANCH   3   4
ENDBRANCH   2   3
TORSDOF 12
ENDMDL
MODEL       29
REMARK 921   NORMALIZED FREE ENERGY PREDICTED BY IDOCK:   -5.39 KCAL/MOL
REMARK 922        TOTAL FREE ENERGY PREDICTED BY IDOCK:  -11.13 KCAL/MOL
REMARK 923 INTER-LIGAND FREE ENERGY PREDICTED BY IDOCK:   -9.92 KCAL/MOL
REMARK 924 INTRA-LIGAND FREE ENERGY PREDICTED BY IDOCK:   -1.20 KCAL/MOL
REMARK 927      BINDING AFFINITY PREDICTED BY RF-SCORE:    0.00 PKD
ROOT
HETATM    1  C   UNL     1     -11.132   4.718  73.281  1.00  0.00    -0.411 C  
HETATM    2  C   UNL     1     -11.289   5.950  72.409  1.00  0.00    -0.358 C  
ENDROOT
BRANCH   2   3
HETATM    3  C   UNL     1     -11.212   7.243  73.223  1.00  0.00    -0.180 C  
BRANCH   3   4
HETATM    4  C   UNL     1     -10.747   8.396  72.335  1.00  0.00    -0.405 C  
BRANCH   4   5
HETATM    5  C   UNL     1     -11.729   8.698  71.201  1.00  0.00    -0.334 C  
BRANCH   5   6
HETATM    6  C   UNL     1     -12.862   9.650  71.621  1.00  0.00    -0.405 C  
HETATM    7  O   UNL     1     -14.055   9.191  70.993  1.00  0.00    -0.533 OA 
HETATM    8  H   UNL     1     -14.755   9.780  71.253  1.00  0.00     0.000 HD 
BRANCH   6   9
HETATM    9  C   UNL     1     -12.583  11.093  71.259  1.00  0.00    -0.503 C  
HETATM   10  C   UNL     1     -13.195  12.185  71.746  1.00  0.00    -0.423 C  
BRANCH  10  11
HETATM   11  C   UNL     1     -12.975  13.589  71.224  1.00  0.00    -0.384 C  
HETATM   12  C   UNL     1     -12.843  14.575  72.404  1.00  0.00    -0.360 C  
HETATM   13  O   UNL     1     -14.107  14.934  72.945  1.00  0.00    -0.425 OA 
HETATM   14  C   UNL     1     -12.139  15.790  71.839  1.00  0.00    -0.548 C  
HETATM   15  H   UNL     1     -14.025  15.541  73.671  1.00  0.00     0.000 HD 
HETATM   16  C   UNL     1     -11.222  15.155  70.840  1.00  0.00    -0.284 C  
HETATM   17  O   UNL     1     -10.212  15.715  70.430  1.00  0.00    -0.244 OA 
HETATM   18  C   UNL     1     -11.681  13.775  70.394  1.00  0.00    -0.242 C  
BRANCH  18  19
HETATM   19  C   UNL     1     -11.971  13.711  68.882  1.00  0.00    -0.392 C  
BRANCH  19  20
HETATM   20  C   UNL     1     -11.101  12.702  68.120  1.00  0.00    -0.285 C  
BRANCH  20  21
HETATM   21  C   UNL     1     -10.075  13.393  67.218  1.00  0.00    -0.238 C  
BRANCH  21  22
HETATM   22  C   UNL     1      -9.447  12.397  66.238  1.00  0.00    -0.220 C  
BRANCH  22  23
HETATM   23  C   UNL     1     -10.315  12.217  64.992  1.00  0.00    -0.320 C  
BRANCH  23  24
HETATM   24  C   UNL     1     -10.742  13.562  64.401  1.00  0.00    -0.402 C  
HETATM   25  C   UNL     1     -12.243  13.739  64.448  1.00  0.00    -0.399 C  
HETATM   26  O   UNL     1     -13.038  12.931  64.896  1.00  0.00    -0.799 OA 
HETATM   27  O   UNL     1     -12.631  14.923  63.922  1.00  0.00    -0.831 OA 
ENDBRANCH  23  24
ENDBRANCH  22  23
ENDBRANCH  21  22
ENDBRANCH  20  21
ENDBRANCH  19  20
ENDBRANCH  18  19
ENDBRANCH  10  11
ENDBRANCH   6   9
ENDBRANCH   5   6
ENDBRANCH   4   5
ENDBRANCH   3   4
ENDBRANCH   2   3
TORSDOF 12
ENDMDL
MODEL       30
REMARK 921   NORMALIZED FREE ENERGY PREDICTED BY IDOCK:   -5.39 KCAL/MOL
REMARK 922        TOTAL FREE ENERGY PREDICTED BY IDOCK:  -11.12 KCAL/MOL
REMARK 923 INTER-LIGAND FREE ENERGY PREDICTED BY IDOCK:   -9.55 KCAL/MOL
REMARK 924 INTRA-LIGAND FREE ENERGY PREDICTED BY IDOCK:   -1.57 KCAL/MOL
REMARK 927      BINDING AFFINITY PREDICTED BY RF-SCORE:    0.00 PKD
ROOT
HETATM    1  C   UNL     1      -6.507  17.551  69.489  1.00  0.00    -0.202 C  
HETATM    2  C   UNL     1      -7.478  18.131  68.476  1.00  0.00    -0.289 C  
ENDROOT
BRANCH   2   3
HETATM    3  C   UNL     1      -7.871  19.570  68.817  1.00  0.00    -0.377 C  
BRANCH   3   4
HETATM    4  C   UNL     1      -8.415  20.273  67.574  1.00  0.00    -0.376 C  
BRANCH   4   5
HETATM    5  C   UNL     1      -9.880  19.929  67.297  1.00  0.00    -0.536 C  
BRANCH   5   6
HETATM    6  C   UNL     1     -10.070  19.066  66.038  1.00  0.00    -0.347 C  
HETATM    7  O   UNL     1     -11.044  19.713  65.225  1.00  0.00    -0.409 OA 
HETATM    8  H   UNL     1     -11.162  19.179  64.447  1.00  0.00     0.000 HD 
BRANCH   6   9
HETATM    9  C   UNL     1     -10.489  17.647  66.354  1.00  0.00    -0.286 C  
HETATM   10  C   UNL     1     -10.323  16.560  65.583  1.00  0.00    -0.342 C  
BRANCH  10  11
HETATM   11  C   UNL     1     -10.908  15.198  65.893  1.00  0.00    -0.342 C  
HETATM   12  C   UNL     1     -11.387  14.522  64.591  1.00  0.00    -0.370 C  
HETATM   13  O   UNL     1     -12.653  15.012  64.169  1.00  0.00    -0.770 OA 
HETATM   14  C   UNL     1     -11.464  13.044  64.907  1.00  0.00    -0.348 C  
HETATM   15  H   UNL     1     -12.948  14.595  63.368  1.00  0.00     0.000 HD 
HETATM   16  C   UNL     1     -10.317  12.892  65.856  1.00  0.00    -0.285 C  
HETATM   17  O   UNL     1      -9.779  11.810  66.065  1.00  0.00    -0.221 OA 
HETATM   18  C   UNL     1      -9.912  14.196  66.527  1.00  0.00    -0.289 C  
BRANCH  18  19
HETATM   19  C   UNL     1     -10.068  14.144  68.059  1.00  0.00    -0.233 C  
BRANCH  19  20
HETATM   20  C   UNL     1     -11.522  14.043  68.537  1.00  0.00    -0.336 C  
BRANCH  20  21
HETATM   21  C   UNL     1     -11.749  12.824  69.436  1.00  0.00    -0.380 C  
BRANCH  21  22
HETATM   22  C   UNL     1     -12.530  13.209  70.696  1.00  0.00    -0.363 C  
BRANCH  22  23
HETATM   23  C   UNL     1     -13.031  14.651  70.623  1.00  0.00    -0.367 C  
BRANCH  23  24
HETATM   24  C   UNL     1     -13.757  15.063  71.905  1.00  0.00    -0.548 C  
HETATM   25  C   UNL     1     -12.879  15.917  72.792  1.00  0.00    -0.478 C  
HETATM   26  O   UNL     1     -11.734  16.253  72.543  1.00  0.00    -0.501 OA 
HETATM   27  O   UNL     1     -13.509  16.282  73.931  1.00  0.00    -0.559 OA 
ENDBRANCH  23  24
ENDBRANCH  22  23
ENDBRANCH  21  22
ENDBRANCH  20  21
ENDBRANCH  19  20
ENDBRANCH  18  19
ENDBRANCH  10  11
ENDBRANCH   6   9
ENDBRANCH   5   6
ENDBRANCH   4   5
ENDBRANCH   3   4
ENDBRANCH   2   3
TORSDOF 12
ENDMDL
MODEL       31
REMARK 921   NORMALIZED FREE ENERGY PREDICTED BY IDOCK:   -5.39 KCAL/MOL
REMARK 922        TOTAL FREE ENERGY PREDICTED BY IDOCK:  -11.12 KCAL/MOL
REMARK 923 INTER-LIGAND FREE ENERGY PREDICTED BY IDOCK:   -9.24 KCAL/MOL
REMARK 924 INTRA-LIGAND FREE ENERGY PREDICTED BY IDOCK:   -1.88 KCAL/MOL
REMARK 927      BINDING AFFINITY PREDICTED BY RF-SCORE:    0.00 PKD
ROOT
HETATM    1  C   UNL     1     -12.136   6.721  71.484  1.00  0.00    -0.410 C  
HETATM    2  C   UNL     1     -13.003   7.965  71.410  1.00  0.00    -0.301 C  
ENDROOT
BRANCH   2   3
HETATM    3  C   UNL     1     -12.255   9.215  71.880  1.00  0.00    -0.449 C  
BRANCH   3   4
HETATM    4  C   UNL     1     -12.962  10.471  71.372  1.00  0.00    -0.542 C  
BRANCH   4   5
HETATM    5  C   UNL     1     -12.048  11.357  70.523  1.00  0.00    -0.487 C  
BRANCH   5   6
HETATM    6  C   UNL     1     -11.217  10.564  69.500  1.00  0.00    -0.271 C  
HETATM    7  O   UNL     1      -9.867  10.576  69.952  1.00  0.00    -0.420 OA 
HETATM    8  H   UNL     1      -9.353  10.086  69.320  1.00  0.00     0.000 HD 
BRANCH   6   9
HETATM    9  C   UNL     1     -11.321  11.122  68.097  1.00  0.00    -0.377 C  
HETATM   10  C   UNL     1     -10.312  11.524  67.307  1.00  0.00    -0.236 C  
BRANCH  10  11
HETATM   11  C   UNL     1     -10.499  12.219  65.975  1.00  0.00    -0.284 C  
HETATM   12  C   UNL     1      -9.978  11.320  64.834  1.00  0.00    -0.274 C  
HETATM   13  O   UNL     1      -8.564  11.380  64.709  1.00  0.00    -0.360 OA 
HETATM   14  C   UNL     1     -10.648  11.832  63.577  1.00  0.00    -0.499 C  
HETATM   15  H   UNL     1      -8.243  10.826  64.007  1.00  0.00     0.000 HD 
HETATM   16  C   UNL     1     -11.981  12.254  64.110  1.00  0.00    -0.432 C  
HETATM   17  O   UNL     1     -12.967  12.370  63.392  1.00  0.00    -0.723 OA 
HETATM   18  C   UNL     1     -11.971  12.528  65.607  1.00  0.00    -0.492 C  
BRANCH  18  19
HETATM   19  C   UNL     1     -12.339  13.986  65.942  1.00  0.00    -0.515 C  
BRANCH  19  20
HETATM   20  C   UNL     1     -11.315  14.700  66.834  1.00  0.00    -0.361 C  
BRANCH  20  21
HETATM   21  C   UNL     1     -11.807  14.837  68.278  1.00  0.00    -0.316 C  
BRANCH  21  22
HETATM   22  C   UNL     1     -10.635  14.785  69.263  1.00  0.00    -0.248 C  
BRANCH  22  23
HETATM   23  C   UNL     1      -9.297  14.980  68.549  1.00  0.00    -0.196 C  
BRANCH  23  24
HETATM   24  C   UNL     1      -8.500  16.139  69.150  1.00  0.00    -0.239 C  
HETATM   25  C   UNL     1      -8.711  17.421  68.376  1.00  0.00    -0.271 C  
HETATM   26  O   UNL     1      -9.422  17.546  67.394  1.00  0.00    -0.249 OA 
HETATM   27  O   UNL     1      -8.005  18.451  68.896  1.00  0.00    -0.282 OA 
ENDBRANCH  23  24
ENDBRANCH  22  23
ENDBRANCH  21  22
ENDBRANCH  20  21
ENDBRANCH  19  20
ENDBRANCH  18  19
ENDBRANCH  10  11
ENDBRANCH   6   9
ENDBRANCH   5   6
ENDBRANCH   4   5
ENDBRANCH   3   4
ENDBRANCH   2   3
TORSDOF 12
ENDMDL
MODEL       32
REMARK 921   NORMALIZED FREE ENERGY PREDICTED BY IDOCK:   -5.38 KCAL/MOL
REMARK 922        TOTAL FREE ENERGY PREDICTED BY IDOCK:  -11.11 KCAL/MOL
REMARK 923 INTER-LIGAND FREE ENERGY PREDICTED BY IDOCK:   -8.94 KCAL/MOL
REMARK 924 INTRA-LIGAND FREE ENERGY PREDICTED BY IDOCK:   -2.17 KCAL/MOL
REMARK 927      BINDING AFFINITY PREDICTED BY RF-SCORE:    0.00 PKD
ROOT
HETATM    1  C   UNL     1     -11.391   6.867  70.405  1.00  0.00    -0.376 C  
HETATM    2  C   UNL     1     -12.546   7.132  71.353  1.00  0.00    -0.432 C  
ENDROOT
BRANCH   2   3
HETATM    3  C   UNL     1     -12.387   8.462  72.094  1.00  0.00    -0.426 C  
BRANCH   3   4
HETATM    4  C   UNL     1     -13.289   9.523  71.465  1.00  0.00    -0.470 C  
BRANCH   4   5
HETATM    5  C   UNL     1     -12.548  10.831  71.179  1.00  0.00    -0.532 C  
BRANCH   5   6
HETATM    6  C   UNL     1     -11.772  10.808  69.851  1.00  0.00    -0.333 C  
HETATM    7  O   UNL     1     -10.393  10.652  70.168  1.00  0.00    -0.437 OA 
HETATM    8  H   UNL     1      -9.914  10.638  69.348  1.00  0.00     0.000 HD 
BRANCH   6   9
HETATM    9  C   UNL     1     -11.996  12.050  69.017  1.00  0.00    -0.321 C  
HETATM   10  C   UNL     1     -11.165  13.096  68.877  1.00  0.00    -0.324 C  
BRANCH  10  11
HETATM   11  C   UNL     1     -11.521  14.376  68.152  1.00  0.00    -0.337 C  
HETATM   12  C   UNL     1     -10.699  15.551  68.724  1.00  0.00    -0.249 C  
HETATM   13  O   UNL     1     -11.246  16.043  69.940  1.00  0.00    -0.315 OA 
HETATM   14  C   UNL     1     -10.725  16.622  67.654  1.00  0.00    -0.306 C  
HETATM   15  H   UNL     1     -10.740  16.766  70.292  1.00  0.00     0.000 HD 
HETATM   16  C   UNL     1     -10.717  15.789  66.411  1.00  0.00    -0.277 C  
HETATM   17  O   UNL     1     -10.352  16.232  65.328  1.00  0.00    -0.552 OA 
HETATM   18  C   UNL     1     -11.213  14.368  66.634  1.00  0.00    -0.340 C  
BRANCH  18  19
HETATM   19  C   UNL     1     -12.473  14.046  65.808  1.00  0.00    -0.523 C  
BRANCH  19  20
HETATM   20  C   UNL     1     -12.178  13.472  64.416  1.00  0.00    -0.440 C  
BRANCH  20  21
HETATM   21  C   UNL     1     -10.796  12.818  64.344  1.00  0.00    -0.395 C  
BRANCH  21  22
HETATM   22  C   UNL     1     -10.882  11.421  63.720  1.00  0.00    -0.468 C  
BRANCH  22  23
HETATM   23  C   UNL     1     -10.074  10.401  64.522  1.00  0.00    -0.365 C  
BRANCH  23  24
HETATM   24  C   UNL     1      -9.198  11.078  65.578  1.00  0.00    -0.235 C  
HETATM   25  C   UNL     1      -9.336  10.409  66.927  1.00  0.00    -0.162 C  
HETATM   26  O   UNL     1     -10.045   9.449  67.173  1.00  0.00    -0.198 OA 
HETATM   27  O   UNL     1      -8.570  11.003  67.870  1.00  0.00    -0.127 OA 
ENDBRANCH  23  24
ENDBRANCH  22  23
ENDBRANCH  21  22
ENDBRANCH  20  21
ENDBRANCH  19  20
ENDBRANCH  18  19
ENDBRANCH  10  11
ENDBRANCH   6   9
ENDBRANCH   5   6
ENDBRANCH   4   5
ENDBRANCH   3   4
ENDBRANCH   2   3
TORSDOF 12
ENDMDL
MODEL       33
REMARK 921   NORMALIZED FREE ENERGY PREDICTED BY IDOCK:   -5.38 KCAL/MOL
REMARK 922        TOTAL FREE ENERGY PREDICTED BY IDOCK:  -11.10 KCAL/MOL
REMARK 923 INTER-LIGAND FREE ENERGY PREDICTED BY IDOCK:   -9.60 KCAL/MOL
REMARK 924 INTRA-LIGAND FREE ENERGY PREDICTED BY IDOCK:   -1.50 KCAL/MOL
REMARK 927      BINDING AFFINITY PREDICTED BY RF-SCORE:    0.00 PKD
ROOT
HETATM    1  C   UNL     1     -13.881  13.358  72.412  1.00  0.00    -0.665 C  
HETATM    2  C   UNL     1     -12.873  14.037  71.503  1.00  0.00    -0.440 C  
ENDROOT
BRANCH   2   3
HETATM    3  C   UNL     1     -11.967  15.003  72.270  1.00  0.00    -0.447 C  
BRANCH   3   4
HETATM    4  C   UNL     1     -11.564  16.170  71.371  1.00  0.00    -0.495 C  
BRANCH   4   5
HETATM    5  C   UNL     1     -10.692  15.733  70.193  1.00  0.00    -0.354 C  
BRANCH   5   6
HETATM    6  C   UNL     1     -11.377  15.924  68.829  1.00  0.00    -0.378 C  
HETATM    7  O   UNL     1     -12.755  16.181  69.080  1.00  0.00    -0.263 OA 
HETATM    8  H   UNL     1     -13.178  16.299  68.237  1.00  0.00     0.000 HD 
BRANCH   6   9
HETATM    9  C   UNL     1     -11.209  14.732  67.913  1.00  0.00    -0.318 C  
HETATM   10  C   UNL     1     -12.164  14.118  67.196  1.00  0.00    -0.348 C  
BRANCH  10  11
HETATM   11  C   UNL     1     -11.955  12.833  66.422  1.00  0.00    -0.443 C  
HETATM   12  C   UNL     1     -11.589  13.154  64.958  1.00  0.00    -0.325 C  
HETATM   13  O   UNL     1     -12.733  13.480  64.180  1.00  0.00    -0.650 OA 
HETATM   14  C   UNL     1     -10.919  11.905  64.425  1.00  0.00    -0.392 C  
HETATM   15  H   UNL     1     -12.508  13.677  63.278  1.00  0.00     0.000 HD 
HETATM   16  C   UNL     1     -10.204  11.417  65.646  1.00  0.00    -0.251 C  
HETATM   17  O   UNL     1      -9.243  10.660  65.583  1.00  0.00    -0.179 OA 
HETATM   18  C   UNL     1     -10.799  11.945  66.944  1.00  0.00    -0.305 C  
BRANCH  18  19
HETATM   19  C   UNL     1     -11.324  10.817  67.853  1.00  0.00    -0.372 C  
BRANCH  19  20
HETATM   20  C   UNL     1     -11.707  11.280  69.265  1.00  0.00    -0.403 C  
BRANCH  20  21
HETATM   21  C   UNL     1     -11.674  10.130  70.275  1.00  0.00    -0.361 C  
BRANCH  21  22
HETATM   22  C   UNL     1     -13.006  10.020  71.025  1.00  0.00    -0.445 C  
BRANCH  22  23
HETATM   23  C   UNL     1     -12.952   8.936  72.102  1.00  0.00    -0.473 C  
BRANCH  23  24
HETATM   24  C   UNL     1     -12.573   7.575  71.515  1.00  0.00    -0.385 C  
HETATM   25  C   UNL     1     -11.417   6.949  72.263  1.00  0.00    -0.275 C  
HETATM   26  O   UNL     1     -10.841   7.442  73.218  1.00  0.00    -0.374 OA 
HETATM   27  O   UNL     1     -11.070   5.748  71.749  1.00  0.00    -0.265 OA 
ENDBRANCH  23  24
ENDBRANCH  22  23
ENDBRANCH  21  22
ENDBRANCH  20  21
ENDBRANCH  19  20
ENDBRANCH  18  19
ENDBRANCH  10  11
ENDBRANCH   6   9
ENDBRANCH   5   6
ENDBRANCH   4   5
ENDBRANCH   3   4
ENDBRANCH   2   3
TORSDOF 12
ENDMDL
MODEL       34
REMARK 921   NORMALIZED FREE ENERGY PREDICTED BY IDOCK:   -5.36 KCAL/MOL
REMARK 922        TOTAL FREE ENERGY PREDICTED BY IDOCK:  -11.08 KCAL/MOL
REMARK 923 INTER-LIGAND FREE ENERGY PREDICTED BY IDOCK:   -9.17 KCAL/MOL
REMARK 924 INTRA-LIGAND FREE ENERGY PREDICTED BY IDOCK:   -1.91 KCAL/MOL
REMARK 927      BINDING AFFINITY PREDICTED BY RF-SCORE:    0.00 PKD
ROOT
HETATM    1  C   UNL     1      -8.726   9.561  64.086  1.00  0.00    -0.239 C  
HETATM    2  C   UNL     1      -9.663  10.562  64.737  1.00  0.00    -0.365 C  
ENDROOT
BRANCH   2   3
HETATM    3  C   UNL     1     -10.554  11.266  63.711  1.00  0.00    -0.455 C  
BRANCH   3   4
HETATM    4  C   UNL     1     -11.706  11.978  64.418  1.00  0.00    -0.399 C  
BRANCH   4   5
HETATM    5  C   UNL     1     -12.111  13.278  63.719  1.00  0.00    -0.546 C  
BRANCH   5   6
HETATM    6  C   UNL     1     -12.192  14.479  64.677  1.00  0.00    -0.460 C  
HETATM    7  O   UNL     1     -11.244  15.442  64.228  1.00  0.00    -0.694 OA 
HETATM    8  H   UNL     1     -11.294  16.185  64.820  1.00  0.00     0.000 HD 
BRANCH   6   9
HETATM    9  C   UNL     1     -11.935  14.101  66.119  1.00  0.00    -0.437 C  
HETATM   10  C   UNL     1     -11.582  14.921  67.123  1.00  0.00    -0.327 C  
BRANCH  10  11
HETATM   11  C   UNL     1     -11.188  14.451  68.507  1.00  0.00    -0.286 C  
HETATM   12  C   UNL     1     -11.693  15.452  69.567  1.00  0.00    -0.346 C  
HETATM   13  O   UNL     1     -10.849  16.591  69.672  1.00  0.00    -0.328 OA 
HETATM   14  C   UNL     1     -11.718  14.684  70.871  1.00  0.00    -0.335 C  
HETATM   15  H   UNL     1     -11.161  17.207  70.325  1.00  0.00     0.000 HD 
HETATM   16  C   UNL     1     -12.097  13.317  70.394  1.00  0.00    -0.327 C  
HETATM   17  O   UNL     1     -12.598  12.480  71.136  1.00  0.00    -0.365 OA 
HETATM   18  C   UNL     1     -11.787  13.085  68.922  1.00  0.00    -0.358 C  
BRANCH  18  19
HETATM   19  C   UNL     1     -10.778  11.941  68.706  1.00  0.00    -0.257 C  
BRANCH  19  20
HETATM   20  C   UNL     1     -11.360  10.723  67.975  1.00  0.00    -0.378 C  
BRANCH  20  21
HETATM   21  C   UNL     1     -10.680   9.419  68.399  1.00  0.00    -0.213 C  
BRANCH  21  22
HETATM   22  C   UNL     1      -9.806   9.633  69.639  1.00  0.00    -0.233 C  
BRANCH  22  23
HETATM   23  C   UNL     1     -10.235   8.722  70.788  1.00  0.00    -0.262 C  
BRANCH  23  24
HETATM   24  C   UNL     1     -11.351   9.352  71.624  1.00  0.00    -0.452 C  
HETATM   25  C   UNL     1     -12.580   8.472  71.667  1.00  0.00    -0.333 C  
HETATM   26  O   UNL     1     -12.696   7.390  71.116  1.00  0.00    -0.332 OA 
HETATM   27  O   UNL     1     -13.574   9.023  72.398  1.00  0.00    -0.441 OA 
ENDBRANCH  23  24
ENDBRANCH  22  23
ENDBRANCH  21  22
ENDBRANCH  20  21
ENDBRANCH  19  20
ENDBRANCH  18  19
ENDBRANCH  10  11
ENDBRANCH   6   9
ENDBRANCH   5   6
ENDBRANCH   4   5
ENDBRANCH   3   4
ENDBRANCH   2   3
TORSDOF 12
ENDMDL
MODEL       35
REMARK 921   NORMALIZED FREE ENERGY PREDICTED BY IDOCK:   -5.34 KCAL/MOL
REMARK 922        TOTAL FREE ENERGY PREDICTED BY IDOCK:  -11.03 KCAL/MOL
REMARK 923 INTER-LIGAND FREE ENERGY PREDICTED BY IDOCK:   -9.91 KCAL/MOL
REMARK 924 INTRA-LIGAND FREE ENERGY PREDICTED BY IDOCK:   -1.12 KCAL/MOL
REMARK 927      BINDING AFFINITY PREDICTED BY RF-SCORE:    0.00 PKD
ROOT
HETATM    1  C   UNL     1      -7.708  10.267  62.485  1.00  0.00    -0.158 C  
HETATM    2  C   UNL     1      -9.200  10.016  62.611  1.00  0.00    -0.317 C  
ENDROOT
BRANCH   2   3
HETATM    3  C   UNL     1      -9.784  10.649  63.876  1.00  0.00    -0.378 C  
BRANCH   3   4
HETATM    4  C   UNL     1     -10.422  11.996  63.542  1.00  0.00    -0.505 C  
BRANCH   4   5
HETATM    5  C   UNL     1     -11.947  11.971  63.662  1.00  0.00    -0.612 C  
BRANCH   5   6
HETATM    6  C   UNL     1     -12.508  13.144  64.484  1.00  0.00    -0.342 C  
HETATM    7  O   UNL     1     -12.378  14.319  63.690  1.00  0.00    -1.035 OA 
HETATM    8  H   UNL     1     -12.724  15.043  64.199  1.00  0.00     0.000 HD 
BRANCH   6   9
HETATM    9  C   UNL     1     -11.812  13.314  65.817  1.00  0.00    -0.428 C  
HETATM   10  C   UNL     1     -12.169  14.132  66.821  1.00  0.00    -0.429 C  
BRANCH  10  11
HETATM   11  C   UNL     1     -11.338  14.368  68.064  1.00  0.00    -0.316 C  
HETATM   12  C   UNL     1     -10.513  15.663  67.908  1.00  0.00    -0.267 C  
HETATM   13  O   UNL     1      -9.347  15.462  67.120  1.00  0.00    -0.205 OA 
HETATM   14  C   UNL     1     -10.143  16.079  69.315  1.00  0.00    -0.249 C  
HETATM   15  H   UNL     1      -8.840  16.260  67.025  1.00  0.00     0.000 HD 
HETATM   16  C   UNL     1     -11.357  15.645  70.075  1.00  0.00    -0.334 C  
HETATM   17  O   UNL     1     -11.652  16.120  71.165  1.00  0.00    -0.419 OA 
HETATM   18  C   UNL     1     -12.158  14.564  69.363  1.00  0.00    -0.328 C  
BRANCH  18  19
HETATM   19  C   UNL     1     -12.239  13.259  70.177  1.00  0.00    -0.376 C  
BRANCH  19  20
HETATM   20  C   UNL     1     -11.536  12.065  69.517  1.00  0.00    -0.389 C  
BRANCH  20  21
HETATM   21  C   UNL     1     -11.806  10.755  70.263  1.00  0.00    -0.438 C  
BRANCH  21  22
HETATM   22  C   UNL     1     -12.802  10.970  71.407  1.00  0.00    -0.548 C  
BRANCH  22  23
HETATM   23  C   UNL     1     -13.281   9.639  71.986  1.00  0.00    -0.546 C  
BRANCH  23  24
HETATM   24  C   UNL     1     -12.112   8.696  72.278  1.00  0.00    -0.443 C  
HETATM   25  C   UNL     1     -12.347   7.321  71.692  1.00  0.00    -0.352 C  
HETATM   26  O   UNL     1     -13.332   6.979  71.060  1.00  0.00    -0.244 OA 
HETATM   27  O   UNL     1     -11.322   6.478  71.948  1.00  0.00    -0.256 OA 
ENDBRANCH  23  24
ENDBRANCH  22  23
ENDBRANCH  21  22
ENDBRANCH  20  21
ENDBRANCH  19  20
ENDBRANCH  18  19
ENDBRANCH  10  11
ENDBRANCH   6   9
ENDBRANCH   5   6
ENDBRANCH   4   5
ENDBRANCH   3   4
ENDBRANCH   2   3
TORSDOF 12
ENDMDL
MODEL       36
REMARK 921   NORMALIZED FREE ENERGY PREDICTED BY IDOCK:   -5.33 KCAL/MOL
REMARK 922        TOTAL FREE ENERGY PREDICTED BY IDOCK:  -11.03 KCAL/MOL
REMARK 923 INTER-LIGAND FREE ENERGY PREDICTED BY IDOCK:   -8.49 KCAL/MOL
REMARK 924 INTRA-LIGAND FREE ENERGY PREDICTED BY IDOCK:   -2.54 KCAL/MOL
REMARK 927      BINDING AFFINITY PREDICTED BY RF-SCORE:    0.00 PKD
ROOT
HETATM    1  C   UNL     1     -12.369  12.211  63.413  1.00  0.00    -0.648 C  
HETATM    2  C   UNL     1     -12.136  13.578  64.032  1.00  0.00    -0.494 C  
ENDROOT
BRANCH   2   3
HETATM    3  C   UNL     1     -10.754  13.686  64.680  1.00  0.00    -0.433 C  
BRANCH   3   4
HETATM    4  C   UNL     1     -10.889  14.162  66.125  1.00  0.00    -0.296 C  
BRANCH   4   5
HETATM    5  C   UNL     1     -11.772  13.240  66.968  1.00  0.00    -0.439 C  
BRANCH   5   6
HETATM    6  C   UNL     1     -12.027  13.778  68.387  1.00  0.00    -0.360 C  
HETATM    7  O   UNL     1     -11.274  14.978  68.526  1.00  0.00    -0.261 OA 
HETATM    8  H   UNL     1     -11.431  15.311  69.402  1.00  0.00     0.000 HD 
BRANCH   6   9
HETATM    9  C   UNL     1     -11.662  12.784  69.468  1.00  0.00    -0.383 C  
HETATM   10  C   UNL     1     -11.967  11.477  69.506  1.00  0.00    -0.402 C  
BRANCH  10  11
HETATM   11  C   UNL     1     -11.706  10.576  70.694  1.00  0.00    -0.453 C  
HETATM   12  C   UNL     1     -13.037  10.234  71.398  1.00  0.00    -0.414 C  
HETATM   13  O   UNL     1     -13.478  11.287  72.245  1.00  0.00    -0.604 OA 
HETATM   14  C   UNL     1     -12.760   8.982  72.201  1.00  0.00    -0.470 C  
HETATM   15  H   UNL     1     -14.297  11.076  72.678  1.00  0.00     0.000 HD 
HETATM   16  C   UNL     1     -11.784   8.277  71.311  1.00  0.00    -0.283 C  
HETATM   17  O   UNL     1     -11.589   7.069  71.381  1.00  0.00    -0.264 OA 
HETATM   18  C   UNL     1     -11.071   9.208  70.342  1.00  0.00    -0.293 C  
BRANCH  18  19
HETATM   19  C   UNL     1      -9.546   9.225  70.556  1.00  0.00    -0.317 C  
BRANCH  19  20
HETATM   20  C   UNL     1      -8.733   9.307  69.257  1.00  0.00    -0.141 C  
BRANCH  20  21
HETATM   21  C   UNL     1      -8.358  10.749  68.903  1.00  0.00    -0.147 C  
BRANCH  21  22
HETATM   22  C   UNL     1      -8.826  11.106  67.489  1.00  0.00    -0.139 C  
BRANCH  22  23
HETATM   23  C   UNL     1      -9.658   9.980  66.876  1.00  0.00    -0.219 C  
BRANCH  23  24
HETATM   24  C   UNL     1     -10.074  10.302  65.439  1.00  0.00    -0.354 C  
HETATM   25  C   UNL     1      -9.106   9.718  64.435  1.00  0.00    -0.248 C  
HETATM   26  O   UNL     1      -8.112   9.067  64.705  1.00  0.00    -0.127 OA 
HETATM   27  O   UNL     1      -9.462  10.002  63.162  1.00  0.00    -0.299 OA 
ENDBRANCH  23  24
ENDBRANCH  22  23
ENDBRANCH  21  22
ENDBRANCH  20  21
ENDBRANCH  19  20
ENDBRANCH  18  19
ENDBRANCH  10  11
ENDBRANCH   6   9
ENDBRANCH   5   6
ENDBRANCH   4   5
ENDBRANCH   3   4
ENDBRANCH   2   3
TORSDOF 12
ENDMDL
MODEL       37
REMARK 921   NORMALIZED FREE ENERGY PREDICTED BY IDOCK:   -5.32 KCAL/MOL
REMARK 922        TOTAL FREE ENERGY PREDICTED BY IDOCK:  -11.01 KCAL/MOL
REMARK 923 INTER-LIGAND FREE ENERGY PREDICTED BY IDOCK:   -8.95 KCAL/MOL
REMARK 924 INTRA-LIGAND FREE ENERGY PREDICTED BY IDOCK:   -2.06 KCAL/MOL
REMARK 927      BINDING AFFINITY PREDICTED BY RF-SCORE:    0.00 PKD
ROOT
HETATM    1  C   UNL     1     -11.051   6.016  69.361  1.00  0.00    -0.445 C  
HETATM    2  C   UNL     1     -11.501   6.874  70.530  1.00  0.00    -0.390 C  
ENDROOT
BRANCH   2   3
HETATM    3  C   UNL     1     -10.362   7.732  71.084  1.00  0.00    -0.218 C  
BRANCH   3   4
HETATM    4  C   UNL     1     -10.921   8.809  72.013  1.00  0.00    -0.438 C  
BRANCH   4   5
HETATM    5  C   UNL     1     -12.440   8.718  72.172  1.00  0.00    -0.460 C  
BRANCH   5   6
HETATM    6  C   UNL     1     -13.191   9.871  71.484  1.00  0.00    -0.408 C  
HETATM    7  O   UNL     1     -14.236   9.293  70.710  1.00  0.00    -0.460 OA 
HETATM    8  H   UNL     1     -14.700  10.006  70.284  1.00  0.00     0.000 HD 
BRANCH   6   9
HETATM    9  C   UNL     1     -12.290  10.727  70.620  1.00  0.00    -0.465 C  
HETATM   10  C   UNL     1     -12.107  10.631  69.293  1.00  0.00    -0.206 C  
BRANCH  10  11
HETATM   11  C   UNL     1     -11.072  11.417  68.517  1.00  0.00    -0.287 C  
HETATM   12  C   UNL     1      -9.734  10.648  68.495  1.00  0.00    -0.174 C  
HETATM   13  O   UNL     1      -9.005  10.809  69.704  1.00  0.00    -0.398 OA 
HETATM   14  C   UNL     1      -8.960  11.216  67.324  1.00  0.00    -0.147 C  
HETATM   15  H   UNL     1      -8.181  10.335  69.690  1.00  0.00     0.000 HD 
HETATM   16  C   UNL     1     -10.067  11.507  66.360  1.00  0.00    -0.216 C  
HETATM   17  O   UNL     1      -9.873  11.617  65.155  1.00  0.00    -0.243 OA 
HETATM   18  C   UNL     1     -11.425  11.660  67.029  1.00  0.00    -0.336 C  
BRANCH  18  19
HETATM   19  C   UNL     1     -12.033  13.059  66.817  1.00  0.00    -0.434 C  
BRANCH  19  20
HETATM   20  C   UNL     1     -11.024  14.207  66.959  1.00  0.00    -0.303 C  
BRANCH  20  21
HETATM   21  C   UNL     1     -11.461  15.230  68.011  1.00  0.00    -0.351 C  
BRANCH  21  22
HETATM   22  C   UNL     1     -10.865  14.895  69.382  1.00  0.00    -0.274 C  
BRANCH  22  23
HETATM   23  C   UNL     1     -11.773  15.370  70.516  1.00  0.00    -0.356 C  
BRANCH  23  24
HETATM   24  C   UNL     1     -12.736  14.271  70.967  1.00  0.00    -0.430 C  
HETATM   25  C   UNL     1     -13.373  14.600  72.299  1.00  0.00    -0.392 C  
HETATM   26  O   UNL     1     -13.166  15.608  72.953  1.00  0.00    -0.440 OA 
HETATM   27  O   UNL     1     -14.222  13.631  72.710  1.00  0.00    -0.676 OA 
ENDBRANCH  23  24
ENDBRANCH  22  23
ENDBRANCH  21  22
ENDBRANCH  20  21
ENDBRANCH  19  20
ENDBRANCH  18  19
ENDBRANCH  10  11
ENDBRANCH   6   9
ENDBRANCH   5   6
ENDBRANCH   4   5
ENDBRANCH   3   4
ENDBRANCH   2   3
TORSDOF 12
ENDMDL
MODEL       38
REMARK 921   NORMALIZED FREE ENERGY PREDICTED BY IDOCK:   -5.32 KCAL/MOL
REMARK 922        TOTAL FREE ENERGY PREDICTED BY IDOCK:  -11.00 KCAL/MOL
REMARK 923 INTER-LIGAND FREE ENERGY PREDICTED BY IDOCK:   -9.41 KCAL/MOL
REMARK 924 INTRA-LIGAND FREE ENERGY PREDICTED BY IDOCK:   -1.58 KCAL/MOL
REMARK 927      BINDING AFFINITY PREDICTED BY RF-SCORE:    0.00 PKD
ROOT
HETATM    1  C   UNL     1     -12.307  10.249  71.298  1.00  0.00    -0.506 C  
HETATM    2  C   UNL     1     -11.016   9.898  70.580  1.00  0.00    -0.405 C  
ENDROOT
BRANCH   2   3
HETATM    3  C   UNL     1     -10.593   8.450  70.836  1.00  0.00    -0.243 C  
BRANCH   3   4
HETATM    4  C   UNL     1     -10.672   7.645  69.540  1.00  0.00    -0.211 C  
BRANCH   4   5
HETATM    5  C   UNL     1      -9.767   8.206  68.441  1.00  0.00    -0.172 C  
BRANCH   5   6
HETATM    6  C   UNL     1     -10.392   8.116  67.039  1.00  0.00    -0.333 C  
HETATM    7  O   UNL     1      -9.448   7.462  66.197  1.00  0.00    -0.353 OA 
HETATM    8  H   UNL     1      -9.834   7.406  65.330  1.00  0.00     0.000 HD 
BRANCH   6   9
HETATM    9  C   UNL     1     -10.772   9.468  66.475  1.00  0.00    -0.031 C  
HETATM   10  C   UNL     1     -10.091  10.190  65.570  1.00  0.00    -0.338 C  
BRANCH  10  11
HETATM   11  C   UNL     1     -10.448  11.606  65.168  1.00  0.00    -0.329 C  
HETATM   12  C   UNL     1     -11.000  11.620  63.727  1.00  0.00    -0.422 C  
HETATM   13  O   UNL     1      -9.963  11.566  62.756  1.00  0.00    -0.599 OA 
HETATM   14  C   UNL     1     -11.779  12.912  63.605  1.00  0.00    -0.572 C  
HETATM   15  H   UNL     1     -10.303  11.575  61.870  1.00  0.00     0.000 HD 
HETATM   16  C   UNL     1     -12.336  13.046  64.987  1.00  0.00    -0.473 C  
HETATM   17  O   UNL     1     -13.323  13.731  65.232  1.00  0.00    -0.710 OA 
HETATM   18  C   UNL     1     -11.552  12.265  66.031  1.00  0.00    -0.451 C  
BRANCH  18  19
HETATM   19  C   UNL     1     -10.946  13.175  67.117  1.00  0.00    -0.289 C  
BRANCH  19  20
HETATM   20  C   UNL     1     -11.698  13.140  68.454  1.00  0.00    -0.386 C  
BRANCH  20  21
HETATM   21  C   UNL     1     -11.241  14.254  69.400  1.00  0.00    -0.313 C  
BRANCH  21  22
HETATM   22  C   UNL     1     -11.853  15.600  69.000  1.00  0.00    -0.379 C  
BRANCH  22  23
HETATM   23  C   UNL     1     -10.817  16.722  69.055  1.00  0.00    -0.291 C  
BRANCH  23  24
HETATM   24  C   UNL     1      -9.974  16.777  67.780  1.00  0.00    -0.268 C  
HETATM   25  C   UNL     1     -10.186  18.071  67.027  1.00  0.00    -0.362 C  
HETATM   26  O   UNL     1     -10.927  18.977  67.369  1.00  0.00    -0.459 OA 
HETATM   27  O   UNL     1      -9.449  18.127  65.895  1.00  0.00    -0.518 OA 
ENDBRANCH  23  24
ENDBRANCH  22  23
ENDBRANCH  21  22
ENDBRANCH  20  21
ENDBRANCH  19  20
ENDBRANCH  18  19
ENDBRANCH  10  11
ENDBRANCH   6   9
ENDBRANCH   5   6
ENDBRANCH   4   5
ENDBRANCH   3   4
ENDBRANCH   2   3
TORSDOF 12
ENDMDL
MODEL       39
REMARK 921   NORMALIZED FREE ENERGY PREDICTED BY IDOCK:   -5.31 KCAL/MOL
REMARK 922        TOTAL FREE ENERGY PREDICTED BY IDOCK:  -10.99 KCAL/MOL
REMARK 923 INTER-LIGAND FREE ENERGY PREDICTED BY IDOCK:   -9.25 KCAL/MOL
REMARK 924 INTRA-LIGAND FREE ENERGY PREDICTED BY IDOCK:   -1.73 KCAL/MOL
REMARK 927      BINDING AFFINITY PREDICTED BY RF-SCORE:    0.00 PKD
ROOT
HETATM    1  C   UNL     1     -14.333  15.113  72.067  1.00  0.00    -0.682 C  
HETATM    2  C   UNL     1     -13.198  14.432  71.323  1.00  0.00    -0.416 C  
ENDROOT
BRANCH   2   3
HETATM    3  C   UNL     1     -11.838  15.041  71.670  1.00  0.00    -0.441 C  
BRANCH   3   4
HETATM    4  C   UNL     1     -11.385  15.983  70.556  1.00  0.00    -0.420 C  
BRANCH   4   5
HETATM    5  C   UNL     1     -10.322  15.355  69.651  1.00  0.00    -0.283 C  
BRANCH   5   6
HETATM    6  C   UNL     1     -10.244  16.013  68.263  1.00  0.00    -0.237 C  
HETATM    7  O   UNL     1     -10.998  17.220  68.324  1.00  0.00    -0.336 OA 
HETATM    8  H   UNL     1     -10.950  17.627  67.467  1.00  0.00     0.000 HD 
BRANCH   6   9
HETATM    9  C   UNL     1     -10.752  15.116  67.156  1.00  0.00    -0.310 C  
HETATM   10  C   UNL     1     -11.277  13.886  67.283  1.00  0.00    -0.329 C  
BRANCH  10  11
HETATM   11  C   UNL     1     -11.619  12.981  66.119  1.00  0.00    -0.412 C  
HETATM   12  C   UNL     1     -12.112  13.824  64.924  1.00  0.00    -0.403 C  
HETATM   13  O   UNL     1     -13.471  14.214  65.069  1.00  0.00    -0.363 OA 
HETATM   14  C   UNL     1     -11.936  12.942  63.706  1.00  0.00    -0.582 C  
HETATM   15  H   UNL     1     -13.774  14.733  64.333  1.00  0.00     0.000 HD 
HETATM   16  C   UNL     1     -10.696  12.189  64.072  1.00  0.00    -0.384 C  
HETATM   17  O   UNL     1      -9.984  11.651  63.231  1.00  0.00    -0.379 OA 
HETATM   18  C   UNL     1     -10.430  12.156  65.570  1.00  0.00    -0.300 C  
BRANCH  18  19
HETATM   19  C   UNL     1     -10.432  10.723  66.137  1.00  0.00    -0.278 C  
BRANCH  19  20
HETATM   20  C   UNL     1      -9.321  10.455  67.162  1.00  0.00    -0.177 C  
BRANCH  20  21
HETATM   21  C   UNL     1      -9.818  10.603  68.602  1.00  0.00    -0.183 C  
BRANCH  21  22
HETATM   22  C   UNL     1     -11.349  10.608  68.655  1.00  0.00    -0.345 C  
BRANCH  22  23
HETATM   23  C   UNL     1     -11.857  10.928  70.061  1.00  0.00    -0.428 C  
BRANCH  23  24
HETATM   24  C   UNL     1     -11.350   9.915  71.089  1.00  0.00    -0.443 C  
HETATM   25  C   UNL     1     -12.491   9.206  71.783  1.00  0.00    -0.372 C  
HETATM   26  O   UNL     1     -13.677   9.395  71.570  1.00  0.00    -0.367 OA 
HETATM   27  O   UNL     1     -12.054   8.312  72.699  1.00  0.00    -0.384 OA 
ENDBRANCH  23  24
ENDBRANCH  22  23
ENDBRANCH  21  22
ENDBRANCH  20  21
ENDBRANCH  19  20
ENDBRANCH  18  19
ENDBRANCH  10  11
ENDBRANCH   6   9
ENDBRANCH   5   6
ENDBRANCH   4   5
ENDBRANCH   3   4
ENDBRANCH   2   3
TORSDOF 12
ENDMDL
MODEL       40
REMARK 921   NORMALIZED FREE ENERGY PREDICTED BY IDOCK:   -5.31 KCAL/MOL
REMARK 922        TOTAL FREE ENERGY PREDICTED BY IDOCK:  -10.99 KCAL/MOL
REMARK 923 INTER-LIGAND FREE ENERGY PREDICTED BY IDOCK:   -9.61 KCAL/MOL
REMARK 924 INTRA-LIGAND FREE ENERGY PREDICTED BY IDOCK:   -1.38 KCAL/MOL
REMARK 927      BINDING AFFINITY PREDICTED BY RF-SCORE:    0.00 PKD
ROOT
HETATM    1  C   UNL     1     -10.036  20.054  66.423  1.00  0.00    -0.609 C  
HETATM    2  C   UNL     1      -9.629  18.631  66.761  1.00  0.00    -0.332 C  
ENDROOT
BRANCH   2   3
HETATM    3  C   UNL     1     -10.605  17.972  67.738  1.00  0.00    -0.409 C  
BRANCH   3   4
HETATM    4  C   UNL     1      -9.875  16.937  68.591  1.00  0.00    -0.270 C  
BRANCH   4   5
HETATM    5  C   UNL     1     -10.814  16.183  69.535  1.00  0.00    -0.329 C  
BRANCH   5   6
HETATM    6  C   UNL     1     -12.019  15.555  68.814  1.00  0.00    -0.243 C  
HETATM    7  O   UNL     1     -12.904  15.065  69.816  1.00  0.00    -0.596 OA 
HETATM    8  H   UNL     1     -13.648  14.677  69.370  1.00  0.00     0.000 HD 
BRANCH   6   9
HETATM    9  C   UNL     1     -11.623  14.451  67.858  1.00  0.00    -0.374 C  
HETATM   10  C   UNL     1     -12.153  14.193  66.651  1.00  0.00    -0.480 C  
BRANCH  10  11
HETATM   11  C   UNL     1     -11.817  12.976  65.815  1.00  0.00    -0.453 C  
HETATM   12  C   UNL     1     -11.333  13.414  64.417  1.00  0.00    -0.391 C  
HETATM   13  O   UNL     1     -12.415  13.751  63.559  1.00  0.00    -0.903 OA 
HETATM   14  C   UNL     1     -10.562  12.234  63.867  1.00  0.00    -0.462 C  
HETATM   15  H   UNL     1     -12.117  14.021  62.698  1.00  0.00     0.000 HD 
HETATM   16  C   UNL     1      -9.941  11.688  65.114  1.00  0.00    -0.259 C  
HETATM   17  O   UNL     1      -8.944  10.974  65.091  1.00  0.00    -0.197 OA 
HETATM   18  C   UNL     1     -10.675  12.097  66.382  1.00  0.00    -0.292 C  
BRANCH  18  19
HETATM   19  C   UNL     1     -11.229  10.888  67.159  1.00  0.00    -0.258 C  
BRANCH  19  20
HETATM   20  C   UNL     1     -10.901  10.904  68.658  1.00  0.00    -0.258 C  
BRANCH  20  21
HETATM   21  C   UNL     1     -12.156  11.069  69.520  1.00  0.00    -0.400 C  
BRANCH  21  22
HETATM   22  C   UNL     1     -11.973  10.406  70.889  1.00  0.00    -0.478 C  
BRANCH  22  23
HETATM   23  C   UNL     1     -11.262   9.058  70.765  1.00  0.00    -0.329 C  
BRANCH  23  24
HETATM   24  C   UNL     1     -10.127   8.922  71.781  1.00  0.00    -0.407 C  
HETATM   25  C   UNL     1     -10.436   7.873  72.825  1.00  0.00    -0.346 C  
HETATM   26  O   UNL     1     -11.453   7.202  72.876  1.00  0.00    -0.248 OA 
HETATM   27  O   UNL     1      -9.441   7.749  73.732  1.00  0.00    -0.284 OA 
ENDBRANCH  23  24
ENDBRANCH  22  23
ENDBRANCH  21  22
ENDBRANCH  20  21
ENDBRANCH  19  20
ENDBRANCH  18  19
ENDBRANCH  10  11
ENDBRANCH   6   9
ENDBRANCH   5   6
ENDBRANCH   4   5
ENDBRANCH   3   4
ENDBRANCH   2   3
TORSDOF 12
ENDMDL
MODEL       41
REMARK 921   NORMALIZED FREE ENERGY PREDICTED BY IDOCK:   -5.31 KCAL/MOL
REMARK 922        TOTAL FREE ENERGY PREDICTED BY IDOCK:  -10.98 KCAL/MOL
REMARK 923 INTER-LIGAND FREE ENERGY PREDICTED BY IDOCK:   -9.04 KCAL/MOL
REMARK 924 INTRA-LIGAND FREE ENERGY PREDICTED BY IDOCK:   -1.94 KCAL/MOL
REMARK 927      BINDING AFFINITY PREDICTED BY RF-SCORE:    0.00 PKD
ROOT
HETATM    1  C   UNL     1     -11.240   9.917  70.560  1.00  0.00    -0.399 C  
HETATM    2  C   UNL     1     -12.268   9.660  71.647  1.00  0.00    -0.484 C  
ENDROOT
BRANCH   2   3
HETATM    3  C   UNL     1     -13.136  10.891  71.918  1.00  0.00    -0.537 C  
BRANCH   3   4
HETATM    4  C   UNL     1     -12.780  12.009  70.940  1.00  0.00    -0.291 C  
BRANCH   4   5
HETATM    5  C   UNL     1     -12.947  13.402  71.551  1.00  0.00    -0.429 C  
BRANCH   5   6
HETATM    6  C   UNL     1     -12.462  14.531  70.626  1.00  0.00    -0.343 C  
HETATM    7  O   UNL     1     -13.422  15.580  70.699  1.00  0.00    -0.779 OA 
HETATM    8  H   UNL     1     -13.123  16.278  70.127  1.00  0.00     0.000 HD 
BRANCH   6   9
HETATM    9  C   UNL     1     -12.268  14.077  69.195  1.00  0.00    -0.299 C  
HETATM   10  C   UNL     1     -11.106  13.942  68.537  1.00  0.00    -0.289 C  
BRANCH  10  11
HETATM   11  C   UNL     1     -10.995  13.635  67.058  1.00  0.00    -0.298 C  
HETATM   12  C   UNL     1     -11.965  12.495  66.683  1.00  0.00    -0.281 C  
HETATM   13  O   UNL     1     -11.445  11.217  67.025  1.00  0.00    -0.455 OA 
HETATM   14  C   UNL     1     -12.162  12.608  65.186  1.00  0.00    -0.539 C  
HETATM   15  H   UNL     1     -12.043  10.515  66.794  1.00  0.00     0.000 HD 
HETATM   16  C   UNL     1     -12.097  14.091  64.997  1.00  0.00    -0.415 C  
HETATM   17  O   UNL     1     -12.581  14.649  64.018  1.00  0.00    -0.819 OA 
HETATM   18  C   UNL     1     -11.370  14.811  66.124  1.00  0.00    -0.330 C  
BRANCH  18  19
HETATM   19  C   UNL     1     -10.117  15.560  65.632  1.00  0.00    -0.406 C  
BRANCH  19  20
HETATM   20  C   UNL     1     -10.122  17.062  65.945  1.00  0.00    -0.281 C  
BRANCH  20  21
HETATM   21  C   UNL     1     -10.732  17.361  67.318  1.00  0.00    -0.219 C  
BRANCH  21  22
HETATM   22  C   UNL     1      -9.642  17.696  68.341  1.00  0.00    -0.310 C  
BRANCH  22  23
HETATM   23  C   UNL     1      -8.314  17.029  67.980  1.00  0.00    -0.211 C  
BRANCH  23  24
HETATM   24  C   UNL     1      -7.652  16.390  69.202  1.00  0.00    -0.225 C  
HETATM   25  C   UNL     1      -7.363  14.923  68.975  1.00  0.00    -0.143 C  
HETATM   26  O   UNL     1      -7.612  14.301  67.957  1.00  0.00    -0.115 OA 
HETATM   27  O   UNL     1      -6.782  14.347  70.051  1.00  0.00    -0.145 OA 
ENDBRANCH  23  24
ENDBRANCH  22  23
ENDBRANCH  21  22
ENDBRANCH  20  21
ENDBRANCH  19  20
ENDBRANCH  18  19
ENDBRANCH  10  11
ENDBRANCH   6   9
ENDBRANCH   5   6
ENDBRANCH   4   5
ENDBRANCH   3   4
ENDBRANCH   2   3
TORSDOF 12
ENDMDL
MODEL       42
REMARK 921   NORMALIZED FREE ENERGY PREDICTED BY IDOCK:   -5.30 KCAL/MOL
REMARK 922        TOTAL FREE ENERGY PREDICTED BY IDOCK:  -10.96 KCAL/MOL
REMARK 923 INTER-LIGAND FREE ENERGY PREDICTED BY IDOCK:   -8.96 KCAL/MOL
REMARK 924 INTRA-LIGAND FREE ENERGY PREDICTED BY IDOCK:   -2.01 KCAL/MOL
REMARK 927      BINDING AFFINITY PREDICTED BY RF-SCORE:    0.00 PKD
ROOT
HETATM    1  C   UNL     1     -11.846  15.627  72.855  1.00  0.00    -0.564 C  
HETATM    2  C   UNL     1     -13.339  15.549  72.591  1.00  0.00    -0.615 C  
ENDROOT
BRANCH   2   3
HETATM    3  C   UNL     1     -13.662  14.687  71.369  1.00  0.00    -0.474 C  
BRANCH   3   4
HETATM    4  C   UNL     1     -12.580  13.627  71.174  1.00  0.00    -0.452 C  
BRANCH   4   5
HETATM    5  C   UNL     1     -13.029  12.237  71.631  1.00  0.00    -0.416 C  
BRANCH   5   6
HETATM    6  C   UNL     1     -12.638  11.122  70.646  1.00  0.00    -0.318 C  
HETATM    7  O   UNL     1     -11.924  10.136  71.386  1.00  0.00    -0.369 OA 
HETATM    8  H   UNL     1     -11.682   9.447  70.777  1.00  0.00     0.000 HD 
BRANCH   6   9
HETATM    9  C   UNL     1     -11.812  11.626  69.483  1.00  0.00    -0.414 C  
HETATM   10  C   UNL     1     -10.915  10.932  68.763  1.00  0.00    -0.285 C  
BRANCH  10  11
HETATM   11  C   UNL     1     -10.009  11.543  67.715  1.00  0.00    -0.195 C  
HETATM   12  C   UNL     1      -8.885  12.351  68.396  1.00  0.00    -0.129 C  
HETATM   13  O   UNL     1      -9.328  13.635  68.815  1.00  0.00    -0.376 OA 
HETATM   14  C   UNL     1      -7.790  12.476  67.358  1.00  0.00    -0.175 C  
HETATM   15  H   UNL     1      -8.636  14.133  69.234  1.00  0.00     0.000 HD 
HETATM   16  C   UNL     1      -7.914  11.165  66.648  1.00  0.00    -0.159 C  
HETATM   17  O   UNL     1      -6.994  10.683  65.997  1.00  0.00    -0.127 OA 
HETATM   18  C   UNL     1      -9.281  10.517  66.812  1.00  0.00    -0.175 C  
BRANCH  18  19
HETATM   19  C   UNL     1     -10.011  10.333  65.468  1.00  0.00    -0.364 C  
BRANCH  19  20
HETATM   20  C   UNL     1     -10.219  11.637  64.686  1.00  0.00    -0.327 C  
BRANCH  20  21
HETATM   21  C   UNL     1     -11.147  11.445  63.483  1.00  0.00    -0.373 C  
BRANCH  21  22
HETATM   22  C   UNL     1     -12.444  12.240  63.658  1.00  0.00    -0.647 C  
BRANCH  22  23
HETATM   23  C   UNL     1     -12.168  13.648  64.188  1.00  0.00    -0.450 C  
BRANCH  23  24
HETATM   24  C   UNL     1     -12.662  13.818  65.625  1.00  0.00    -0.523 C  
HETATM   25  C   UNL     1     -11.605  14.442  66.507  1.00  0.00    -0.378 C  
HETATM   26  O   UNL     1     -10.490  14.780  66.147  1.00  0.00    -0.285 OA 
HETATM   27  O   UNL     1     -12.030  14.591  67.782  1.00  0.00    -0.363 OA 
ENDBRANCH  23  24
ENDBRANCH  22  23
ENDBRANCH  21  22
ENDBRANCH  20  21
ENDBRANCH  19  20
ENDBRANCH  18  19
ENDBRANCH  10  11
ENDBRANCH   6   9
ENDBRANCH   5   6
ENDBRANCH   4   5
ENDBRANCH   3   4
ENDBRANCH   2   3
TORSDOF 12
ENDMDL
MODEL       43
REMARK 921   NORMALIZED FREE ENERGY PREDICTED BY IDOCK:   -5.28 KCAL/MOL
REMARK 922        TOTAL FREE ENERGY PREDICTED BY IDOCK:  -10.94 KCAL/MOL
REMARK 923 INTER-LIGAND FREE ENERGY PREDICTED BY IDOCK:   -8.56 KCAL/MOL
REMARK 924 INTRA-LIGAND FREE ENERGY PREDICTED BY IDOCK:   -2.37 KCAL/MOL
REMARK 927      BINDING AFFINITY PREDICTED BY RF-SCORE:    0.00 PKD
ROOT
HETATM    1  C   UNL     1     -10.604  12.216  63.986  1.00  0.00    -0.429 C  
HETATM    2  C   UNL     1     -10.855  11.838  65.435  1.00  0.00    -0.347 C  
ENDROOT
BRANCH   2   3
HETATM    3  C   UNL     1     -11.599  12.938  66.194  1.00  0.00    -0.423 C  
BRANCH   3   4
HETATM    4  C   UNL     1     -11.875  12.491  67.629  1.00  0.00    -0.381 C  
BRANCH   4   5
HETATM    5  C   UNL     1     -11.811  13.648  68.629  1.00  0.00    -0.409 C  
BRANCH   5   6
HETATM    6  C   UNL     1     -12.273  13.252  70.041  1.00  0.00    -0.275 C  
HETATM    7  O   UNL     1     -11.632  14.132  70.959  1.00  0.00    -0.517 OA 
HETATM    8  H   UNL     1     -11.917  13.887  71.832  1.00  0.00     0.000 HD 
BRANCH   6   9
HETATM    9  C   UNL     1     -11.969  11.808  70.377  1.00  0.00    -0.422 C  
HETATM   10  C   UNL     1     -12.653  11.007  71.211  1.00  0.00    -0.517 C  
BRANCH  10  11
HETATM   11  C   UNL     1     -12.202   9.621  71.622  1.00  0.00    -0.484 C  
HETATM   12  C   UNL     1     -13.429   8.730  71.904  1.00  0.00    -0.404 C  
HETATM   13  O   UNL     1     -13.982   8.973  73.192  1.00  0.00    -1.130 OA 
HETATM   14  C   UNL     1     -12.928   7.306  71.798  1.00  0.00    -0.368 C  
HETATM   15  H   UNL     1     -14.737   8.424  73.365  1.00  0.00     0.000 HD 
HETATM   16  C   UNL     1     -11.904   7.439  70.716  1.00  0.00    -0.258 C  
HETATM   17  O   UNL     1     -11.526   6.482  70.050  1.00  0.00    -0.380 OA 
HETATM   18  C   UNL     1     -11.387   8.860  70.547  1.00  0.00    -0.268 C  
BRANCH  18  19
HETATM   19  C   UNL     1      -9.873   8.972  70.807  1.00  0.00    -0.304 C  
BRANCH  19  20
HETATM   20  C   UNL     1      -9.017   8.959  69.534  1.00  0.00    -0.145 C  
BRANCH  20  21
HETATM   21  C   UNL     1      -9.241  10.208  68.677  1.00  0.00    -0.157 C  
BRANCH  21  22
HETATM   22  C   UNL     1      -8.309  10.214  67.461  1.00  0.00    -0.118 C  
BRANCH  22  23
HETATM   23  C   UNL     1      -7.757  11.613  67.188  1.00  0.00    -0.159 C  
BRANCH  23  24
HETATM   24  C   UNL     1      -7.920  12.532  68.400  1.00  0.00    -0.139 C  
HETATM   25  C   UNL     1      -8.270  13.943  67.986  1.00  0.00    -0.161 C  
HETATM   26  O   UNL     1      -8.413  14.330  66.839  1.00  0.00    -0.192 OA 
HETATM   27  O   UNL     1      -8.411  14.765  69.050  1.00  0.00    -0.173 OA 
ENDBRANCH  23  24
ENDBRANCH  22  23
ENDBRANCH  21  22
ENDBRANCH  20  21
ENDBRANCH  19  20
ENDBRANCH  18  19
ENDBRANCH  10  11
ENDBRANCH   6   9
ENDBRANCH   5   6
ENDBRANCH   4   5
ENDBRANCH   3   4
ENDBRANCH   2   3
TORSDOF 12
ENDMDL
MODEL       44
REMARK 921   NORMALIZED FREE ENERGY PREDICTED BY IDOCK:   -5.27 KCAL/MOL
REMARK 922        TOTAL FREE ENERGY PREDICTED BY IDOCK:  -10.92 KCAL/MOL
REMARK 923 INTER-LIGAND FREE ENERGY PREDICTED BY IDOCK:   -9.67 KCAL/MOL
REMARK 924 INTRA-LIGAND FREE ENERGY PREDICTED BY IDOCK:   -1.25 KCAL/MOL
REMARK 927      BINDING AFFINITY PREDICTED BY RF-SCORE:    0.00 PKD
ROOT
HETATM    1  C   UNL     1     -10.134   9.167  66.501  1.00  0.00    -0.357 C  
HETATM    2  C   UNL     1      -9.999  10.649  66.200  1.00  0.00    -0.283 C  
ENDROOT
BRANCH   2   3
HETATM    3  C   UNL     1     -10.378  10.977  64.754  1.00  0.00    -0.389 C  
BRANCH   3   4
HETATM    4  C   UNL     1     -11.268  12.218  64.714  1.00  0.00    -0.364 C  
BRANCH   4   5
HETATM    5  C   UNL     1     -11.988  12.469  66.041  1.00  0.00    -0.456 C  
BRANCH   5   6
HETATM    6  C   UNL     1     -12.142  13.963  66.372  1.00  0.00    -0.455 C  
HETATM    7  O   UNL     1     -11.265  14.680  65.509  1.00  0.00    -0.325 OA 
HETATM    8  H   UNL     1     -11.360  15.604  65.713  1.00  0.00     0.000 HD 
BRANCH   6   9
HETATM    9  C   UNL     1     -11.847  14.279  67.822  1.00  0.00    -0.414 C  
HETATM   10  C   UNL     1     -12.100  13.504  68.890  1.00  0.00    -0.315 C  
BRANCH  10  11
HETATM   11  C   UNL     1     -11.924  13.949  70.326  1.00  0.00    -0.401 C  
HETATM   12  C   UNL     1     -11.362  15.386  70.367  1.00  0.00    -0.327 C  
HETATM   13  O   UNL     1      -9.959  15.417  70.146  1.00  0.00    -0.440 OA 
HETATM   14  C   UNL     1     -11.698  15.912  71.746  1.00  0.00    -0.575 C  
HETATM   15  H   UNL     1      -9.613  16.302  70.171  1.00  0.00     0.000 HD 
HETATM   16  C   UNL     1     -13.016  15.249  71.996  1.00  0.00    -0.370 C  
HETATM   17  O   UNL     1     -13.822  15.681  72.812  1.00  0.00    -0.559 OA 
HETATM   18  C   UNL     1     -13.232  14.002  71.152  1.00  0.00    -0.337 C  
BRANCH  18  19
HETATM   19  C   UNL     1     -13.407  12.733  72.009  1.00  0.00    -0.565 C  
BRANCH  19  20
HETATM   20  C   UNL     1     -12.461  11.586  71.628  1.00  0.00    -0.181 C  
BRANCH  20  21
HETATM   21  C   UNL     1     -13.217  10.382  71.060  1.00  0.00    -0.361 C  
BRANCH  21  22
HETATM   22  C   UNL     1     -13.518   9.356  72.157  1.00  0.00    -0.543 C  
BRANCH  22  23
HETATM   23  C   UNL     1     -12.406   8.312  72.264  1.00  0.00    -0.410 C  
BRANCH  23  24
HETATM   24  C   UNL     1     -12.566   7.207  71.219  1.00  0.00    -0.421 C  
HETATM   25  C   UNL     1     -11.428   7.213  70.223  1.00  0.00    -0.247 C  
HETATM   26  O   UNL     1     -10.487   7.988  70.228  1.00  0.00    -0.213 OA 
HETATM   27  O   UNL     1     -11.562   6.243  69.291  1.00  0.00    -0.363 OA 
ENDBRANCH  23  24
ENDBRANCH  22  23
ENDBRANCH  21  22
ENDBRANCH  20  21
ENDBRANCH  19  20
ENDBRANCH  18  19
ENDBRANCH  10  11
ENDBRANCH   6   9
ENDBRANCH   5   6
ENDBRANCH   4   5
ENDBRANCH   3   4
ENDBRANCH   2   3
TORSDOF 12
ENDMDL
MODEL       45
REMARK 921   NORMALIZED FREE ENERGY PREDICTED BY IDOCK:   -5.27 KCAL/MOL
REMARK 922        TOTAL FREE ENERGY PREDICTED BY IDOCK:  -10.91 KCAL/MOL
REMARK 923 INTER-LIGAND FREE ENERGY PREDICTED BY IDOCK:   -8.84 KCAL/MOL
REMARK 924 INTRA-LIGAND FREE ENERGY PREDICTED BY IDOCK:   -2.07 KCAL/MOL
REMARK 927      BINDING AFFINITY PREDICTED BY RF-SCORE:    0.00 PKD
ROOT
HETATM    1  C   UNL     1     -14.024  15.288  71.848  1.00  0.00    -0.644 C  
HETATM    2  C   UNL     1     -12.600  15.768  71.635  1.00  0.00    -0.521 C  
ENDROOT
BRANCH   2   3
HETATM    3  C   UNL     1     -11.727  14.700  70.973  1.00  0.00    -0.331 C  
BRANCH   3   4
HETATM    4  C   UNL     1     -12.603  13.699  70.222  1.00  0.00    -0.253 C  
BRANCH   4   5
HETATM    5  C   UNL     1     -12.416  12.264  70.721  1.00  0.00    -0.356 C  
BRANCH   5   6
HETATM    6  C   UNL     1     -11.852  11.319  69.646  1.00  0.00    -0.360 C  
HETATM    7  O   UNL     1     -10.649  10.760  70.164  1.00  0.00    -0.458 OA 
HETATM    8  H   UNL     1     -10.300  10.176  69.499  1.00  0.00     0.000 HD 
BRANCH   6   9
HETATM    9  C   UNL     1     -11.599  12.013  68.325  1.00  0.00    -0.394 C  
HETATM   10  C   UNL     1     -11.362  11.435  67.136  1.00  0.00    -0.327 C  
BRANCH  10  11
HETATM   11  C   UNL     1     -10.961  12.190  65.887  1.00  0.00    -0.332 C  
HETATM   12  C   UNL     1     -10.657  11.196  64.746  1.00  0.00    -0.303 C  
HETATM   13  O   UNL     1      -9.359  10.628  64.865  1.00  0.00    -0.197 OA 
HETATM   14  C   UNL     1     -10.774  11.999  63.468  1.00  0.00    -0.513 C  
HETATM   15  H   UNL     1      -9.172  10.017  64.162  1.00  0.00     0.000 HD 
HETATM   16  C   UNL     1     -11.875  12.948  63.823  1.00  0.00    -0.504 C  
HETATM   17  O   UNL     1     -12.550  13.516  62.971  1.00  0.00    -0.716 OA 
HETATM   18  C   UNL     1     -12.052  13.133  65.323  1.00  0.00    -0.471 C  
BRANCH  18  19
HETATM   19  C   UNL     1     -11.821  14.589  65.768  1.00  0.00    -0.327 C  
BRANCH  19  20
HETATM   20  C   UNL     1     -10.474  15.174  65.320  1.00  0.00    -0.434 C  
BRANCH  20  21
HETATM   21  C   UNL     1      -9.946  16.221  66.304  1.00  0.00    -0.335 C  
BRANCH  21  22
HETATM   22  C   UNL     1      -8.556  15.837  66.820  1.00  0.00    -0.306 C  
BRANCH  22  23
HETATM   23  C   UNL     1      -8.541  14.413  67.377  1.00  0.00    -0.213 C  
BRANCH  23  24
HETATM   24  C   UNL     1      -7.124  13.958  67.729  1.00  0.00    -0.181 C  
HETATM   25  C   UNL     1      -6.893  12.512  67.352  1.00  0.00    -0.145 C  
HETATM   26  O   UNL     1      -7.713  11.777  66.829  1.00  0.00    -0.149 OA 
HETATM   27  O   UNL     1      -5.645  12.098  67.665  1.00  0.00    -0.073 OA 
ENDBRANCH  23  24
ENDBRANCH  22  23
ENDBRANCH  21  22
ENDBRANCH  20  21
ENDBRANCH  19  20
ENDBRANCH  18  19
ENDBRANCH  10  11
ENDBRANCH   6   9
ENDBRANCH   5   6
ENDBRANCH   4   5
ENDBRANCH   3   4
ENDBRANCH   2   3
TORSDOF 12
ENDMDL
MODEL       46
REMARK 921   NORMALIZED FREE ENERGY PREDICTED BY IDOCK:   -5.26 KCAL/MOL
REMARK 922        TOTAL FREE ENERGY PREDICTED BY IDOCK:  -10.90 KCAL/MOL
REMARK 923 INTER-LIGAND FREE ENERGY PREDICTED BY IDOCK:   -9.19 KCAL/MOL
REMARK 924 INTRA-LIGAND FREE ENERGY PREDICTED BY IDOCK:   -1.71 KCAL/MOL
REMARK 927      BINDING AFFINITY PREDICTED BY RF-SCORE:    0.00 PKD
ROOT
HETATM    1  C   UNL     1     -13.192  15.726  73.036  1.00  0.00    -0.671 C  
HETATM    2  C   UNL     1     -13.777  14.890  71.912  1.00  0.00    -0.527 C  
ENDROOT
BRANCH   2   3
HETATM    3  C   UNL     1     -13.492  13.398  72.098  1.00  0.00    -0.646 C  
BRANCH   3   4
HETATM    4  C   UNL     1     -12.719  12.858  70.895  1.00  0.00    -0.291 C  
BRANCH   4   5
HETATM    5  C   UNL     1     -12.219  13.970  69.970  1.00  0.00    -0.414 C  
BRANCH   5   6
HETATM    6  C   UNL     1     -11.539  13.437  68.698  1.00  0.00    -0.327 C  
HETATM    7  O   UNL     1     -12.475  13.564  67.632  1.00  0.00    -0.260 OA 
HETATM    8  H   UNL     1     -12.054  13.235  66.846  1.00  0.00     0.000 HD 
BRANCH   6   9
HETATM    9  C   UNL     1     -11.071  12.004  68.836  1.00  0.00    -0.298 C  
HETATM   10  C   UNL     1      -9.804  11.559  68.826  1.00  0.00    -0.153 C  
BRANCH  10  11
HETATM   11  C   UNL     1      -9.416  10.096  68.810  1.00  0.00    -0.171 C  
HETATM   12  C   UNL     1      -9.141   9.609  70.248  1.00  0.00    -0.225 C  
HETATM   13  O   UNL     1      -7.848   9.986  70.703  1.00  0.00    -0.412 OA 
HETATM   14  C   UNL     1      -9.271   8.101  70.197  1.00  0.00    -0.155 C  
HETATM   15  H   UNL     1      -7.679   9.685  71.588  1.00  0.00     0.000 HD 
HETATM   16  C   UNL     1     -10.356   7.939  69.179  1.00  0.00    -0.219 C  
HETATM   17  O   UNL     1     -11.038   6.923  69.105  1.00  0.00    -0.219 OA 
HETATM   18  C   UNL     1     -10.506   9.143  68.261  1.00  0.00    -0.254 C  
BRANCH  18  19
HETATM   19  C   UNL     1     -10.250   8.792  66.782  1.00  0.00    -0.354 C  
BRANCH  19  20
HETATM   20  C   UNL     1      -9.222   9.698  66.092  1.00  0.00    -0.222 C  
BRANCH  20  21
HETATM   21  C   UNL     1      -9.242   9.535  64.570  1.00  0.00    -0.223 C  
BRANCH  21  22
HETATM   22  C   UNL     1      -9.996  10.691  63.904  1.00  0.00    -0.390 C  
BRANCH  22  23
HETATM   23  C   UNL     1     -10.451  11.726  64.933  1.00  0.00    -0.334 C  
BRANCH  23  24
HETATM   24  C   UNL     1     -10.809  13.059  64.273  1.00  0.00    -0.430 C  
HETATM   25  C   UNL     1     -12.302  13.298  64.277  1.00  0.00    -0.340 C  
HETATM   26  O   UNL     1     -13.140  12.544  64.742  1.00  0.00    -0.853 OA 
HETATM   27  O   UNL     1     -12.631  14.471  63.690  1.00  0.00    -0.798 OA 
ENDBRANCH  23  24
ENDBRANCH  22  23
ENDBRANCH  21  22
ENDBRANCH  20  21
ENDBRANCH  19  20
ENDBRANCH  18  19
ENDBRANCH  10  11
ENDBRANCH   6   9
ENDBRANCH   5   6
ENDBRANCH   4   5
ENDBRANCH   3   4
ENDBRANCH   2   3
TORSDOF 12
ENDMDL
MODEL       47
REMARK 921   NORMALIZED FREE ENERGY PREDICTED BY IDOCK:   -5.26 KCAL/MOL
REMARK 922        TOTAL FREE ENERGY PREDICTED BY IDOCK:  -10.89 KCAL/MOL
REMARK 923 INTER-LIGAND FREE ENERGY PREDICTED BY IDOCK:   -9.69 KCAL/MOL
REMARK 924 INTRA-LIGAND FREE ENERGY PREDICTED BY IDOCK:   -1.21 KCAL/MOL
REMARK 927      BINDING AFFINITY PREDICTED BY RF-SCORE:    0.00 PKD
ROOT
HETATM    1  C   UNL     1      -9.431   3.254  67.912  1.00  0.00    -0.219 C  
HETATM    2  C   UNL     1      -9.761   4.586  67.262  1.00  0.00    -0.221 C  
ENDROOT
BRANCH   2   3
HETATM    3  C   UNL     1     -10.507   5.521  68.215  1.00  0.00    -0.225 C  
BRANCH   3   4
HETATM    4  C   UNL     1     -11.119   6.684  67.436  1.00  0.00    -0.398 C  
BRANCH   4   5
HETATM    5  C   UNL     1     -10.099   7.778  67.115  1.00  0.00    -0.328 C  
BRANCH   5   6
HETATM    6  C   UNL     1     -10.258   9.030  67.995  1.00  0.00    -0.212 C  
HETATM    7  O   UNL     1     -11.179   8.705  69.031  1.00  0.00    -0.416 OA 
HETATM    8  H   UNL     1     -11.277   9.478  69.575  1.00  0.00     0.000 HD 
BRANCH   6   9
HETATM    9  C   UNL     1     -10.727  10.241  67.218  1.00  0.00    -0.323 C  
HETATM   10  C   UNL     1      -9.963  11.129  66.560  1.00  0.00    -0.252 C  
BRANCH  10  11
HETATM   11  C   UNL     1     -10.487  12.405  65.936  1.00  0.00    -0.284 C  
HETATM   12  C   UNL     1     -10.944  12.134  64.487  1.00  0.00    -0.314 C  
HETATM   13  O   UNL     1      -9.851  12.095  63.580  1.00  0.00    -0.530 OA 
HETATM   14  C   UNL     1     -11.886  13.268  64.141  1.00  0.00    -0.497 C  
HETATM   15  H   UNL     1     -10.132  11.928  62.689  1.00  0.00     0.000 HD 
HETATM   16  C   UNL     1     -12.542  13.513  65.464  1.00  0.00    -0.481 C  
HETATM   17  O   UNL     1     -13.627  14.074  65.562  1.00  0.00    -0.596 OA 
HETATM   18  C   UNL     1     -11.724  13.012  66.644  1.00  0.00    -0.438 C  
BRANCH  18  19
HETATM   19  C   UNL     1     -11.320  14.146  67.606  1.00  0.00    -0.342 C  
BRANCH  19  20
HETATM   20  C   UNL     1     -10.991  13.673  69.028  1.00  0.00    -0.271 C  
BRANCH  20  21
HETATM   21  C   UNL     1     -12.137  12.866  69.645  1.00  0.00    -0.290 C  
BRANCH  21  22
HETATM   22  C   UNL     1     -12.590  13.482  70.972  1.00  0.00    -0.438 C  
BRANCH  22  23
HETATM   23  C   UNL     1     -12.504  15.008  70.937  1.00  0.00    -0.407 C  
BRANCH  23  24
HETATM   24  C   UNL     1     -11.926  15.572  72.236  1.00  0.00    -0.542 C  
HETATM   25  C   UNL     1     -13.017  15.970  73.205  1.00  0.00    -0.527 C  
HETATM   26  O   UNL     1     -14.215  15.864  73.005  1.00  0.00    -0.410 OA 
HETATM   27  O   UNL     1     -12.516  16.475  74.355  1.00  0.00    -0.724 OA 
ENDBRANCH  23  24
ENDBRANCH  22  23
ENDBRANCH  21  22
ENDBRANCH  20  21
ENDBRANCH  19  20
ENDBRANCH  18  19
ENDBRANCH  10  11
ENDBRANCH   6   9
ENDBRANCH   5   6
ENDBRANCH   4   5
ENDBRANCH   3   4
ENDBRANCH   2   3
TORSDOF 12
ENDMDL
MODEL       48
REMARK 921   NORMALIZED FREE ENERGY PREDICTED BY IDOCK:   -5.25 KCAL/MOL
REMARK 922        TOTAL FREE ENERGY PREDICTED BY IDOCK:  -10.89 KCAL/MOL
REMARK 923 INTER-LIGAND FREE ENERGY PREDICTED BY IDOCK:   -8.74 KCAL/MOL
REMARK 924 INTRA-LIGAND FREE ENERGY PREDICTED BY IDOCK:   -2.15 KCAL/MOL
REMARK 927      BINDING AFFINITY PREDICTED BY RF-SCORE:    0.00 PKD
ROOT
HETATM    1  C   UNL     1     -14.178  14.115  71.989  1.00  0.00    -0.617 C  
HETATM    2  C   UNL     1     -13.497  15.125  71.082  1.00  0.00    -0.533 C  
ENDROOT
BRANCH   2   3
HETATM    3  C   UNL     1     -12.462  14.468  70.166  1.00  0.00    -0.375 C  
BRANCH   3   4
HETATM    4  C   UNL     1     -12.235  13.017  70.587  1.00  0.00    -0.390 C  
BRANCH   4   5
HETATM    5  C   UNL     1     -11.220  12.298  69.697  1.00  0.00    -0.120 C  
BRANCH   5   6
HETATM    6  C   UNL     1     -11.878  11.405  68.630  1.00  0.00    -0.310 C  
HETATM    7  O   UNL     1     -12.388  10.255  69.297  1.00  0.00    -0.617 OA 
HETATM    8  H   UNL     1     -12.794   9.703  68.638  1.00  0.00     0.000 HD 
BRANCH   6   9
HETATM    9  C   UNL     1     -10.924  11.008  67.524  1.00  0.00    -0.338 C  
HETATM   10  C   UNL     1      -9.811  11.655  67.140  1.00  0.00    -0.205 C  
BRANCH  10  11
HETATM   11  C   UNL     1      -8.990  11.288  65.923  1.00  0.00    -0.206 C  
HETATM   12  C   UNL     1      -7.575  10.850  66.355  1.00  0.00    -0.146 C  
HETATM   13  O   UNL     1      -6.733  11.961  66.635  1.00  0.00    -0.342 OA 
HETATM   14  C   UNL     1      -7.029  10.044  65.196  1.00  0.00    -0.134 C  
HETATM   15  H   UNL     1      -5.862  11.690  66.901  1.00  0.00     0.000 HD 
HETATM   16  C   UNL     1      -8.272   9.377  64.697  1.00  0.00    -0.148 C  
HETATM   17  O   UNL     1      -8.240   8.354  64.022  1.00  0.00    -0.159 OA 
HETATM   18  C   UNL     1      -9.548  10.101  65.100  1.00  0.00    -0.354 C  
BRANCH  18  19
HETATM   19  C   UNL     1     -10.356  10.592  63.884  1.00  0.00    -0.222 C  
BRANCH  19  20
HETATM   20  C   UNL     1     -10.516  12.117  63.813  1.00  0.00    -0.470 C  
BRANCH  20  21
HETATM   21  C   UNL     1     -11.970  12.533  63.576  1.00  0.00    -0.629 C  
BRANCH  21  22
HETATM   22  C   UNL     1     -12.711  12.721  64.903  1.00  0.00    -0.479 C  
BRANCH  22  23
HETATM   23  C   UNL     1     -12.780  14.196  65.299  1.00  0.00    -0.425 C  
BRANCH  23  24
HETATM   24  C   UNL     1     -11.788  14.528  66.416  1.00  0.00    -0.361 C  
HETATM   25  C   UNL     1     -10.797  15.586  65.984  1.00  0.00    -0.300 C  
HETATM   26  O   UNL     1     -10.769  16.126  64.892  1.00  0.00    -0.612 OA 
HETATM   27  O   UNL     1      -9.912  15.882  66.962  1.00  0.00    -0.239 OA 
ENDBRANCH  23  24
ENDBRANCH  22  23
ENDBRANCH  21  22
ENDBRANCH  20  21
ENDBRANCH  19  20
ENDBRANCH  18  19
ENDBRANCH  10  11
ENDBRANCH   6   9
ENDBRANCH   5   6
ENDBRANCH   4   5
ENDBRANCH   3   4
ENDBRANCH   2   3
TORSDOF 12
ENDMDL
MODEL       49
REMARK 921   NORMALIZED FREE ENERGY PREDICTED BY IDOCK:   -5.25 KCAL/MOL
REMARK 922        TOTAL FREE ENERGY PREDICTED BY IDOCK:  -10.88 KCAL/MOL
REMARK 923 INTER-LIGAND FREE ENERGY PREDICTED BY IDOCK:   -8.57 KCAL/MOL
REMARK 924 INTRA-LIGAND FREE ENERGY PREDICTED BY IDOCK:   -2.31 KCAL/MOL
REMARK 927      BINDING AFFINITY PREDICTED BY RF-SCORE:    0.00 PKD
ROOT
HETATM    1  C   UNL     1      -9.847   9.974  65.025  1.00  0.00    -0.374 C  
HETATM    2  C   UNL     1      -9.277   9.810  66.422  1.00  0.00    -0.200 C  
ENDROOT
BRANCH   2   3
HETATM    3  C   UNL     1      -8.135  10.791  66.695  1.00  0.00    -0.142 C  
BRANCH   3   4
HETATM    4  C   UNL     1      -8.137  11.201  68.167  1.00  0.00    -0.128 C  
BRANCH   4   5
HETATM    5  C   UNL     1      -7.046  10.496  68.976  1.00  0.00    -0.081 C  
BRANCH   5   6
HETATM    6  C   UNL     1      -7.603   9.651  70.135  1.00  0.00    -0.158 C  
HETATM    7  O   UNL     1      -7.120   8.323  69.961  1.00  0.00    -0.043 OA 
HETATM    8  H   UNL     1      -7.464   7.802  70.677  1.00  0.00     0.000 HD 
BRANCH   6   9
HETATM    9  C   UNL     1      -9.114   9.670  70.204  1.00  0.00    -0.280 C  
HETATM   10  C   UNL     1      -9.913   8.747  70.763  1.00  0.00    -0.263 C  
BRANCH  10  11
HETATM   11  C   UNL     1     -11.424   8.751  70.657  1.00  0.00    -0.263 C  
HETATM   12  C   UNL     1     -11.975   7.339  70.948  1.00  0.00    -0.305 C  
HETATM   13  O   UNL     1     -11.861   6.478  69.823  1.00  0.00    -0.628 OA 
HETATM   14  C   UNL     1     -13.428   7.542  71.321  1.00  0.00    -0.325 C  
HETATM   15  H   UNL     1     -12.202   5.610  70.002  1.00  0.00     0.000 HD 
HETATM   16  C   UNL     1     -13.363   8.856  72.034  1.00  0.00    -0.421 C  
HETATM   17  O   UNL     1     -14.227   9.214  72.827  1.00  0.00    -0.552 OA 
HETATM   18  C   UNL     1     -12.140   9.682  71.666  1.00  0.00    -0.481 C  
BRANCH  18  19
HETATM   19  C   UNL     1     -12.512  11.029  71.019  1.00  0.00    -0.512 C  
BRANCH  19  20
HETATM   20  C   UNL     1     -12.476  11.018  69.484  1.00  0.00    -0.148 C  
BRANCH  20  21
HETATM   21  C   UNL     1     -11.690  12.205  68.919  1.00  0.00    -0.381 C  
BRANCH  21  22
HETATM   22  C   UNL     1     -11.734  12.212  67.388  1.00  0.00    -0.374 C  
BRANCH  22  23
HETATM   23  C   UNL     1     -11.033  13.445  66.816  1.00  0.00    -0.298 C  
BRANCH  23  24
HETATM   24  C   UNL     1     -11.044  13.442  65.286  1.00  0.00    -0.305 C  
HETATM   25  C   UNL     1     -12.395  13.842  64.738  1.00  0.00    -0.386 C  
HETATM   26  O   UNL     1     -13.372  14.136  65.406  1.00  0.00    -0.705 OA 
HETATM   27  O   UNL     1     -12.417  13.837  63.386  1.00  0.00    -0.817 OA 
ENDBRANCH  23  24
ENDBRANCH  22  23
ENDBRANCH  21  22
ENDBRANCH  20  21
ENDBRANCH  19  20
ENDBRANCH  18  19
ENDBRANCH  10  11
ENDBRANCH   6   9
ENDBRANCH   5   6
ENDBRANCH   4   5
ENDBRANCH   3   4
ENDBRANCH   2   3
TORSDOF 12
ENDMDL
MODEL       50
REMARK 921   NORMALIZED FREE ENERGY PREDICTED BY IDOCK:   -5.24 KCAL/MOL
REMARK 922        TOTAL FREE ENERGY PREDICTED BY IDOCK:  -10.87 KCAL/MOL
REMARK 923 INTER-LIGAND FREE ENERGY PREDICTED BY IDOCK:   -8.10 KCAL/MOL
REMARK 924 INTRA-LIGAND FREE ENERGY PREDICTED BY IDOCK:   -2.77 KCAL/MOL
REMARK 927      BINDING AFFINITY PREDICTED BY RF-SCORE:    0.00 PKD
ROOT
HETATM    1  C   UNL     1     -11.990  13.503  69.701  1.00  0.00    -0.397 C  
HETATM    2  C   UNL     1     -11.819  12.512  68.564  1.00  0.00    -0.341 C  
ENDROOT
BRANCH   2   3
HETATM    3  C   UNL     1     -12.141  13.138  67.205  1.00  0.00    -0.343 C  
BRANCH   3   4
HETATM    4  C   UNL     1     -11.572  12.272  66.082  1.00  0.00    -0.450 C  
BRANCH   4   5
HETATM    5  C   UNL     1     -11.230  13.083  64.830  1.00  0.00    -0.344 C  
BRANCH   5   6
HETATM    6  C   UNL     1     -11.803  14.511  64.859  1.00  0.00    -0.416 C  
HETATM    7  O   UNL     1     -12.500  14.713  63.635  1.00  0.00    -1.070 OA 
HETATM    8  H   UNL     1     -12.854  15.595  63.653  1.00  0.00     0.000 HD 
BRANCH   6   9
HETATM    9  C   UNL     1     -10.739  15.569  65.054  1.00  0.00    -0.463 C  
HETATM   10  C   UNL     1     -10.653  16.461  66.054  1.00  0.00    -0.275 C  
BRANCH  10  11
HETATM   11  C   UNL     1      -9.650  17.594  66.103  1.00  0.00    -0.206 C  
HETATM   12  C   UNL     1     -10.382  18.937  66.305  1.00  0.00    -0.453 C  
HETATM   13  O   UNL     1     -10.938  19.431  65.094  1.00  0.00    -0.430 OA 
HETATM   14  C   UNL     1      -9.336  19.891  66.841  1.00  0.00    -0.493 C  
HETATM   15  H   UNL     1     -11.389  20.258  65.219  1.00  0.00     0.000 HD 
HETATM   16  C   UNL     1      -8.501  18.968  67.672  1.00  0.00    -0.288 C  
HETATM   17  O   UNL     1      -7.783  19.372  68.579  1.00  0.00    -0.320 OA 
HETATM   18  C   UNL     1      -8.632  17.507  67.266  1.00  0.00    -0.234 C  
BRANCH  18  19
HETATM   19  C   UNL     1      -7.294  16.904  66.797  1.00  0.00    -0.272 C  
BRANCH  19  20
HETATM   20  C   UNL     1      -6.947  15.563  67.458  1.00  0.00    -0.223 C  
BRANCH  20  21
HETATM   21  C   UNL     1      -7.825  15.279  68.680  1.00  0.00    -0.142 C  
BRANCH  21  22
HETATM   22  C   UNL     1      -8.562  13.945  68.528  1.00  0.00    -0.137 C  
BRANCH  22  23
HETATM   23  C   UNL     1      -8.296  13.314  67.161  1.00  0.00    -0.143 C  
BRANCH  23  24
HETATM   24  C   UNL     1      -8.069  11.805  67.270  1.00  0.00    -0.164 C  
HETATM   25  C   UNL     1      -6.620  11.442  67.035  1.00  0.00    -0.125 C  
HETATM   26  O   UNL     1      -5.723  12.230  66.790  1.00  0.00    -0.307 OA 
HETATM   27  O   UNL     1      -6.409  10.109  67.123  1.00  0.00    -0.065 OA 
ENDBRANCH  23  24
ENDBRANCH  22  23
ENDBRANCH  21  22
ENDBRANCH  20  21
ENDBRANCH  19  20
ENDBRANCH  18  19
ENDBRANCH  10  11
ENDBRANCH   6   9
ENDBRANCH   5   6
ENDBRANCH   4   5
ENDBRANCH   3   4
ENDBRANCH   2   3
TORSDOF 12
ENDMDL
MODEL       51
REMARK 921   NORMALIZED FREE ENERGY PREDICTED BY IDOCK:   -5.23 KCAL/MOL
REMARK 922        TOTAL FREE ENERGY PREDICTED BY IDOCK:  -10.84 KCAL/MOL
REMARK 923 INTER-LIGAND FREE ENERGY PREDICTED BY IDOCK:   -9.50 KCAL/MOL
REMARK 924 INTRA-LIGAND FREE ENERGY PREDICTED BY IDOCK:   -1.34 KCAL/MOL
REMARK 927      BINDING AFFINITY PREDICTED BY RF-SCORE:    0.00 PKD
ROOT
HETATM    1  C   UNL     1      -9.358  20.379  67.303  1.00  0.00    -0.547 C  
HETATM    2  C   UNL     1     -10.270  19.593  68.228  1.00  0.00    -0.567 C  
ENDROOT
BRANCH   2   3
HETATM    3  C   UNL     1     -10.381  18.125  67.813  1.00  0.00    -0.413 C  
BRANCH   3   4
HETATM    4  C   UNL     1      -9.971  17.961  66.350  1.00  0.00    -0.358 C  
BRANCH   4   5
HETATM    5  C   UNL     1      -8.588  17.326  66.194  1.00  0.00    -0.207 C  
BRANCH   5   6
HETATM    6  C   UNL     1      -8.454  15.981  66.928  1.00  0.00    -0.241 C  
HETATM    7  O   UNL     1      -7.066  15.667  66.988  1.00  0.00    -0.196 OA 
HETATM    8  H   UNL     1      -6.984  14.836  67.441  1.00  0.00     0.000 HD 
BRANCH   6   9
HETATM    9  C   UNL     1      -9.231  14.866  66.262  1.00  0.00    -0.301 C  
HETATM   10  C   UNL     1     -10.441  14.398  66.611  1.00  0.00    -0.274 C  
BRANCH  10  11
HETATM   11  C   UNL     1     -11.090  13.175  65.999  1.00  0.00    -0.299 C  
HETATM   12  C   UNL     1     -11.998  13.594  64.824  1.00  0.00    -0.396 C  
HETATM   13  O   UNL     1     -13.256  14.085  65.269  1.00  0.00    -0.782 OA 
HETATM   14  C   UNL     1     -12.178  12.346  63.986  1.00  0.00    -0.579 C  
HETATM   15  H   UNL     1     -13.815  14.343  64.546  1.00  0.00     0.000 HD 
HETATM   16  C   UNL     1     -10.843  11.692  64.152  1.00  0.00    -0.372 C  
HETATM   17  O   UNL     1     -10.416  10.864  63.355  1.00  0.00    -0.319 OA 
HETATM   18  C   UNL     1     -10.098  12.149  65.398  1.00  0.00    -0.282 C  
BRANCH  18  19
HETATM   19  C   UNL     1      -9.825  10.992  66.379  1.00  0.00    -0.252 C  
BRANCH  19  20
HETATM   20  C   UNL     1     -11.027  10.621  67.259  1.00  0.00    -0.348 C  
BRANCH  20  21
HETATM   21  C   UNL     1     -10.759  10.892  68.742  1.00  0.00    -0.243 C  
BRANCH  21  22
HETATM   22  C   UNL     1     -11.901  11.700  69.366  1.00  0.00    -0.408 C  
BRANCH  22  23
HETATM   23  C   UNL     1     -12.296  11.142  70.734  1.00  0.00    -0.504 C  
BRANCH  23  24
HETATM   24  C   UNL     1     -11.468   9.910  71.102  1.00  0.00    -0.459 C  
HETATM   25  C   UNL     1     -12.210   9.007  72.062  1.00  0.00    -0.375 C  
HETATM   26  O   UNL     1     -13.329   9.208  72.503  1.00  0.00    -0.458 OA 
HETATM   27  O   UNL     1     -11.484   7.917  72.399  1.00  0.00    -0.324 OA 
ENDBRANCH  23  24
ENDBRANCH  22  23
ENDBRANCH  21  22
ENDBRANCH  20  21
ENDBRANCH  19  20
ENDBRANCH  18  19
ENDBRANCH  10  11
ENDBRANCH   6   9
ENDBRANCH   5   6
ENDBRANCH   4   5
ENDBRANCH   3   4
ENDBRANCH   2   3
TORSDOF 12
ENDMDL
MODEL       52
REMARK 921   NORMALIZED FREE ENERGY PREDICTED BY IDOCK:   -5.22 KCAL/MOL
REMARK 922        TOTAL FREE ENERGY PREDICTED BY IDOCK:  -10.82 KCAL/MOL
REMARK 923 INTER-LIGAND FREE ENERGY PREDICTED BY IDOCK:   -8.82 KCAL/MOL
REMARK 924 INTRA-LIGAND FREE ENERGY PREDICTED BY IDOCK:   -2.00 KCAL/MOL
REMARK 927      BINDING AFFINITY PREDICTED BY RF-SCORE:    0.00 PKD
ROOT
HETATM    1  C   UNL     1      -7.735  10.031  63.882  1.00  0.00    -0.145 C  
HETATM    2  C   UNL     1      -9.215   9.849  63.594  1.00  0.00    -0.283 C  
ENDROOT
BRANCH   2   3
HETATM    3  C   UNL     1     -10.079  10.831  64.388  1.00  0.00    -0.419 C  
BRANCH   3   4
HETATM    4  C   UNL     1     -10.351  12.082  63.554  1.00  0.00    -0.492 C  
BRANCH   4   5
HETATM    5  C   UNL     1     -11.846  12.333  63.341  1.00  0.00    -0.563 C  
BRANCH   5   6
HETATM    6  C   UNL     1     -12.432  13.362  64.323  1.00  0.00    -0.257 C  
HETATM    7  O   UNL     1     -11.966  14.646  63.917  1.00  0.00    -0.786 OA 
HETATM    8  H   UNL     1     -12.328  15.282  64.524  1.00  0.00     0.000 HD 
BRANCH   6   9
HETATM    9  C   UNL     1     -12.058  13.083  65.762  1.00  0.00    -0.510 C  
HETATM   10  C   UNL     1     -12.097  13.943  66.793  1.00  0.00    -0.476 C  
BRANCH  10  11
HETATM   11  C   UNL     1     -11.559  13.641  68.175  1.00  0.00    -0.367 C  
HETATM   12  C   UNL     1     -12.492  14.243  69.247  1.00  0.00    -0.030 C  
HETATM   13  O   UNL     1     -12.273  15.637  69.425  1.00  0.00    -0.524 OA 
HETATM   14  C   UNL     1     -12.185  13.487  70.522  1.00  0.00    -0.433 C  
HETATM   15  H   UNL     1     -12.848  16.007  70.085  1.00  0.00     0.000 HD 
HETATM   16  C   UNL     1     -11.879  12.125  69.983  1.00  0.00    -0.306 C  
HETATM   17  O   UNL     1     -11.951  11.116  70.675  1.00  0.00    -0.343 OA 
HETATM   18  C   UNL     1     -11.466  12.135  68.519  1.00  0.00    -0.349 C  
BRANCH  18  19
HETATM   19  C   UNL     1     -10.038  11.597  68.305  1.00  0.00    -0.206 C  
BRANCH  19  20
HETATM   20  C   UNL     1      -8.935  12.628  68.577  1.00  0.00    -0.046 C  
BRANCH  20  21
HETATM   21  C   UNL     1      -8.628  13.481  67.343  1.00  0.00    -0.209 C  
BRANCH  21  22
HETATM   22  C   UNL     1      -7.585  14.556  67.665  1.00  0.00    -0.198 C  
BRANCH  22  23
HETATM   23  C   UNL     1      -8.192  15.958  67.602  1.00  0.00    -0.164 C  
BRANCH  23  24
HETATM   24  C   UNL     1      -8.760  16.266  66.215  1.00  0.00    -0.370 C  
HETATM   25  C   UNL     1     -10.141  16.876  66.303  1.00  0.00    -0.324 C  
HETATM   26  O   UNL     1     -10.750  17.106  67.333  1.00  0.00    -0.323 OA 
HETATM   27  O   UNL     1     -10.656  17.147  65.082  1.00  0.00    -0.695 OA 
ENDBRANCH  23  24
ENDBRANCH  22  23
ENDBRANCH  21  22
ENDBRANCH  20  21
ENDBRANCH  19  20
ENDBRANCH  18  19
ENDBRANCH  10  11
ENDBRANCH   6   9
ENDBRANCH   5   6
ENDBRANCH   4   5
ENDBRANCH   3   4
ENDBRANCH   2   3
TORSDOF 12
ENDMDL
MODEL       53
REMARK 921   NORMALIZED FREE ENERGY PREDICTED BY IDOCK:   -5.21 KCAL/MOL
REMARK 922        TOTAL FREE ENERGY PREDICTED BY IDOCK:  -10.82 KCAL/MOL
REMARK 923 INTER-LIGAND FREE ENERGY PREDICTED BY IDOCK:   -9.43 KCAL/MOL
REMARK 924 INTRA-LIGAND FREE ENERGY PREDICTED BY IDOCK:   -1.39 KCAL/MOL
REMARK 927      BINDING AFFINITY PREDICTED BY RF-SCORE:    0.00 PKD
ROOT
HETATM    1  C   UNL     1     -12.373  15.889  72.630  1.00  0.00    -0.581 C  
HETATM    2  C   UNL     1     -13.823  15.440  72.641  1.00  0.00    -0.625 C  
ENDROOT
BRANCH   2   3
HETATM    3  C   UNL     1     -14.007  14.077  71.970  1.00  0.00    -0.598 C  
BRANCH   3   4
HETATM    4  C   UNL     1     -12.666  13.350  71.885  1.00  0.00    -0.277 C  
BRANCH   4   5
HETATM    5  C   UNL     1     -12.534  12.506  70.615  1.00  0.00    -0.323 C  
BRANCH   5   6
HETATM    6  C   UNL     1     -11.802  13.236  69.477  1.00  0.00    -0.327 C  
HETATM    7  O   UNL     1     -12.394  14.526  69.352  1.00  0.00    -0.498 OA 
HETATM    8  H   UNL     1     -11.941  14.977  68.648  1.00  0.00     0.000 HD 
BRANCH   6   9
HETATM    9  C   UNL     1     -11.860  12.488  68.163  1.00  0.00    -0.371 C  
HETATM   10  C   UNL     1     -11.088  12.684  67.082  1.00  0.00    -0.321 C  
BRANCH  10  11
HETATM   11  C   UNL     1     -11.305  12.005  65.746  1.00  0.00    -0.384 C  
HETATM   12  C   UNL     1     -11.885  13.014  64.732  1.00  0.00    -0.363 C  
HETATM   13  O   UNL     1     -13.283  13.202  64.906  1.00  0.00    -0.705 OA 
HETATM   14  C   UNL     1     -11.590  12.429  63.367  1.00  0.00    -0.541 C  
HETATM   15  H   UNL     1     -13.640  13.822  64.281  1.00  0.00     0.000 HD 
HETATM   16  C   UNL     1     -10.271  11.768  63.614  1.00  0.00    -0.428 C  
HETATM   17  O   UNL     1      -9.490  11.504  62.706  1.00  0.00    -0.373 OA 
HETATM   18  C   UNL     1     -10.018  11.458  65.082  1.00  0.00    -0.310 C  
BRANCH  18  19
HETATM   19  C   UNL     1      -9.849   9.949  65.344  1.00  0.00    -0.384 C  
BRANCH  19  20
HETATM   20  C   UNL     1     -10.150   9.528  66.789  1.00  0.00    -0.312 C  
BRANCH  20  21
HETATM   21  C   UNL     1      -8.973   9.810  67.727  1.00  0.00    -0.132 C  
BRANCH  21  22
HETATM   22  C   UNL     1      -9.435   9.866  69.186  1.00  0.00    -0.201 C  
BRANCH  22  23
HETATM   23  C   UNL     1     -10.570   8.877  69.450  1.00  0.00    -0.226 C  
BRANCH  23  24
HETATM   24  C   UNL     1     -10.358   8.107  70.754  1.00  0.00    -0.217 C  
HETATM   25  C   UNL     1     -11.549   8.236  71.677  1.00  0.00    -0.284 C  
HETATM   26  O   UNL     1     -12.566   8.866  71.438  1.00  0.00    -0.308 OA 
HETATM   27  O   UNL     1     -11.370   7.563  72.836  1.00  0.00    -0.339 OA 
ENDBRANCH  23  24
ENDBRANCH  22  23
ENDBRANCH  21  22
ENDBRANCH  20  21
ENDBRANCH  19  20
ENDBRANCH  18  19
ENDBRANCH  10  11
ENDBRANCH   6   9
ENDBRANCH   5   6
ENDBRANCH   4   5
ENDBRANCH   3   4
ENDBRANCH   2   3
TORSDOF 12
ENDMDL
MODEL       54
REMARK 921   NORMALIZED FREE ENERGY PREDICTED BY IDOCK:   -5.21 KCAL/MOL
REMARK 922        TOTAL FREE ENERGY PREDICTED BY IDOCK:  -10.81 KCAL/MOL
REMARK 923 INTER-LIGAND FREE ENERGY PREDICTED BY IDOCK:   -8.84 KCAL/MOL
REMARK 924 INTRA-LIGAND FREE ENERGY PREDICTED BY IDOCK:   -1.96 KCAL/MOL
REMARK 927      BINDING AFFINITY PREDICTED BY RF-SCORE:    0.00 PKD
ROOT
HETATM    1  C   UNL     1      -8.540  14.373  67.592  1.00  0.00    -0.189 C  
HETATM    2  C   UNL     1      -9.223  15.628  67.078  1.00  0.00    -0.239 C  
ENDROOT
BRANCH   2   3
HETATM    3  C   UNL     1     -10.217  15.321  65.955  1.00  0.00    -0.335 C  
BRANCH   3   4
HETATM    4  C   UNL     1     -11.511  14.758  66.540  1.00  0.00    -0.328 C  
BRANCH   4   5
HETATM    5  C   UNL     1     -12.453  14.211  65.466  1.00  0.00    -0.495 C  
BRANCH   5   6
HETATM    6  C   UNL     1     -11.712  13.559  64.286  1.00  0.00    -0.416 C  
HETATM    7  O   UNL     1     -12.528  13.721  63.131  1.00  0.00    -1.089 OA 
HETATM    8  H   UNL     1     -12.070  13.318  62.402  1.00  0.00     0.000 HD 
BRANCH   6   9
HETATM    9  C   UNL     1     -11.396  12.098  64.523  1.00  0.00    -0.393 C  
HETATM   10  C   UNL     1     -10.303  11.589  65.114  1.00  0.00    -0.329 C  
BRANCH  10  11
HETATM   11  C   UNL     1      -9.979  10.111  65.177  1.00  0.00    -0.379 C  
HETATM   12  C   UNL     1      -8.913   9.761  64.117  1.00  0.00    -0.239 C  
HETATM   13  O   UNL     1      -9.475   9.621  62.819  1.00  0.00    -0.533 OA 
HETATM   14  C   UNL     1      -8.299   8.456  64.577  1.00  0.00    -0.125 C  
HETATM   15  H   UNL     1      -8.819   9.405  62.167  1.00  0.00     0.000 HD 
HETATM   16  C   UNL     1      -8.346   8.622  66.063  1.00  0.00    -0.131 C  
HETATM   17  O   UNL     1      -7.617   7.987  66.817  1.00  0.00    -0.091 OA 
HETATM   18  C   UNL     1      -9.382   9.636  66.524  1.00  0.00    -0.212 C  
BRANCH  18  19
HETATM   19  C   UNL     1     -10.462   9.007  67.425  1.00  0.00    -0.338 C  
BRANCH  19  20
HETATM   20  C   UNL     1     -10.740   9.795  68.712  1.00  0.00    -0.243 C  
BRANCH  20  21
HETATM   21  C   UNL     1     -11.465  11.114  68.435  1.00  0.00    -0.377 C  
BRANCH  21  22
HETATM   22  C   UNL     1     -11.850  11.814  69.741  1.00  0.00    -0.420 C  
BRANCH  22  23
HETATM   23  C   UNL     1     -11.751  13.334  69.610  1.00  0.00    -0.369 C  
BRANCH  23  24
HETATM   24  C   UNL     1     -12.280  14.045  70.857  1.00  0.00    -0.436 C  
HETATM   25  C   UNL     1     -11.739  15.453  70.967  1.00  0.00    -0.364 C  
HETATM   26  O   UNL     1     -10.977  15.983  70.177  1.00  0.00    -0.322 OA 
HETATM   27  O   UNL     1     -12.196  16.089  72.069  1.00  0.00    -0.451 OA 
ENDBRANCH  23  24
ENDBRANCH  22  23
ENDBRANCH  21  22
ENDBRANCH  20  21
ENDBRANCH  19  20
ENDBRANCH  18  19
ENDBRANCH  10  11
ENDBRANCH   6   9
ENDBRANCH   5   6
ENDBRANCH   4   5
ENDBRANCH   3   4
ENDBRANCH   2   3
TORSDOF 12
ENDMDL
MODEL       55
REMARK 921   NORMALIZED FREE ENERGY PREDICTED BY IDOCK:   -5.20 KCAL/MOL
REMARK 922        TOTAL FREE ENERGY PREDICTED BY IDOCK:  -10.81 KCAL/MOL
REMARK 923 INTER-LIGAND FREE ENERGY PREDICTED BY IDOCK:   -8.45 KCAL/MOL
REMARK 924 INTRA-LIGAND FREE ENERGY PREDICTED BY IDOCK:   -2.35 KCAL/MOL
REMARK 927      BINDING AFFINITY PREDICTED BY RF-SCORE:    0.00 PKD
ROOT
HETATM    1  C   UNL     1     -10.323  10.896  66.961  1.00  0.00    -0.276 C  
HETATM    2  C   UNL     1     -11.545  11.756  67.229  1.00  0.00    -0.344 C  
ENDROOT
BRANCH   2   3
HETATM    3  C   UNL     1     -11.716  12.061  68.719  1.00  0.00    -0.377 C  
BRANCH   3   4
HETATM    4  C   UNL     1     -12.000  13.548  68.920  1.00  0.00    -0.378 C  
BRANCH   4   5
HETATM    5  C   UNL     1     -11.886  13.976  70.385  1.00  0.00    -0.356 C  
BRANCH   5   6
HETATM    6  C   UNL     1     -12.022  15.496  70.584  1.00  0.00    -0.378 C  
HETATM    7  O   UNL     1     -13.300  15.875  70.085  1.00  0.00    -0.643 OA 
HETATM    8  H   UNL     1     -13.384  16.814  70.207  1.00  0.00     0.000 HD 
BRANCH   6   9
HETATM    9  C   UNL     1     -10.922  16.280  69.901  1.00  0.00    -0.365 C  
HETATM   10  C   UNL     1     -11.057  17.160  68.895  1.00  0.00     0.070 C  
BRANCH  10  11
HETATM   11  C   UNL     1      -9.897  17.790  68.154  1.00  0.00    -0.326 C  
HETATM   12  C   UNL     1     -10.186  19.284  67.897  1.00  0.00    -0.411 C  
HETATM   13  O   UNL     1     -11.050  19.478  66.786  1.00  0.00    -0.374 OA 
HETATM   14  C   UNL     1      -8.836  19.919  67.641  1.00  0.00    -0.406 C  
HETATM   15  H   UNL     1     -11.228  20.398  66.628  1.00  0.00     0.000 HD 
HETATM   16  C   UNL     1      -7.962  19.118  68.555  1.00  0.00    -0.351 C  
HETATM   17  O   UNL     1      -6.878  19.531  68.952  1.00  0.00    -0.310 OA 
HETATM   18  C   UNL     1      -8.550  17.763  68.917  1.00  0.00    -0.127 C  
BRANCH  18  19
HETATM   19  C   UNL     1      -7.664  16.592  68.450  1.00  0.00    -0.189 C  
BRANCH  19  20
HETATM   20  C   UNL     1      -8.040  15.238  69.068  1.00  0.00    -0.202 C  
BRANCH  20  21
HETATM   21  C   UNL     1      -8.311  14.174  68.000  1.00  0.00    -0.160 C  
BRANCH  21  22
HETATM   22  C   UNL     1      -8.520  14.817  66.626  1.00  0.00    -0.093 C  
BRANCH  22  23
HETATM   23  C   UNL     1      -9.841  14.372  65.997  1.00  0.00    -0.342 C  
BRANCH  23  24
HETATM   24  C   UNL     1     -10.584  15.544  65.353  1.00  0.00    -0.428 C  
HETATM   25  C   UNL     1     -11.704  15.068  64.457  1.00  0.00    -0.368 C  
HETATM   26  O   UNL     1     -12.004  13.903  64.254  1.00  0.00    -0.425 OA 
HETATM   27  O   UNL     1     -12.364  16.096  63.878  1.00  0.00    -0.895 OA 
ENDBRANCH  23  24
ENDBRANCH  22  23
ENDBRANCH  21  22
ENDBRANCH  20  21
ENDBRANCH  19  20
ENDBRANCH  18  19
ENDBRANCH  10  11
ENDBRANCH   6   9
ENDBRANCH   5   6
ENDBRANCH   4   5
ENDBRANCH   3   4
ENDBRANCH   2   3
TORSDOF 12
ENDMDL
MODEL       56
REMARK 921   NORMALIZED FREE ENERGY PREDICTED BY IDOCK:   -5.20 KCAL/MOL
REMARK 922        TOTAL FREE ENERGY PREDICTED BY IDOCK:  -10.80 KCAL/MOL
REMARK 923 INTER-LIGAND FREE ENERGY PREDICTED BY IDOCK:   -8.37 KCAL/MOL
REMARK 924 INTRA-LIGAND FREE ENERGY PREDICTED BY IDOCK:   -2.43 KCAL/MOL
REMARK 927      BINDING AFFINITY PREDICTED BY RF-SCORE:    0.00 PKD
ROOT
HETATM    1  C   UNL     1      -8.063  16.032  68.775  1.00  0.00    -0.212 C  
HETATM    2  C   UNL     1      -8.118  14.524  68.937  1.00  0.00    -0.124 C  
ENDROOT
BRANCH   2   3
HETATM    3  C   UNL     1      -7.943  13.796  67.603  1.00  0.00    -0.179 C  
BRANCH   3   4
HETATM    4  C   UNL     1      -7.125  12.522  67.804  1.00  0.00    -0.126 C  
BRANCH   4   5
HETATM    5  C   UNL     1      -7.712  11.322  67.057  1.00  0.00    -0.147 C  
BRANCH   5   6
HETATM    6  C   UNL     1      -8.290  10.249  67.996  1.00  0.00    -0.114 C  
HETATM    7  O   UNL     1      -8.327   9.026  67.269  1.00  0.00    -0.110 OA 
HETATM    8  H   UNL     1      -8.685   8.363  67.849  1.00  0.00     0.000 HD 
BRANCH   6   9
HETATM    9  C   UNL     1      -9.663  10.605  68.523  1.00  0.00    -0.177 C  
HETATM   10  C   UNL     1     -10.231  10.180  69.663  1.00  0.00    -0.272 C  
BRANCH  10  11
HETATM   11  C   UNL     1     -11.670  10.450  70.051  1.00  0.00    -0.366 C  
HETATM   12  C   UNL     1     -12.090   9.512  71.202  1.00  0.00    -0.347 C  
HETATM   13  O   UNL     1     -12.421   8.211  70.737  1.00  0.00    -0.503 OA 
HETATM   14  C   UNL     1     -13.292  10.172  71.843  1.00  0.00    -0.505 C  
HETATM   15  H   UNL     1     -12.680   7.634  71.446  1.00  0.00     0.000 HD 
HETATM   16  C   UNL     1     -12.945  11.620  71.687  1.00  0.00    -0.378 C  
HETATM   17  O   UNL     1     -13.441  12.492  72.392  1.00  0.00    -0.529 OA 
HETATM   18  C   UNL     1     -11.940  11.882  70.575  1.00  0.00    -0.360 C  
BRANCH  18  19
HETATM   19  C   UNL     1     -12.511  12.787  69.467  1.00  0.00     0.160 C  
BRANCH  19  20
HETATM   20  C   UNL     1     -11.800  14.142  69.338  1.00  0.00    -0.378 C  
BRANCH  20  21
HETATM   21  C   UNL     1     -11.520  14.507  67.877  1.00  0.00    -0.348 C  
BRANCH  21  22
HETATM   22  C   UNL     1     -11.716  13.294  66.961  1.00  0.00    -0.439 C  
BRANCH  22  23
HETATM   23  C   UNL     1     -10.829  13.384  65.720  1.00  0.00    -0.283 C  
BRANCH  23  24
HETATM   24  C   UNL     1     -10.645  14.831  65.259  1.00  0.00    -0.414 C  
HETATM   25  C   UNL     1     -11.770  15.272  64.349  1.00  0.00    -0.285 C  
HETATM   26  O   UNL     1     -12.718  14.585  64.009  1.00  0.00    -0.759 OA 
HETATM   27  O   UNL     1     -11.614  16.549  63.931  1.00  0.00    -1.175 OA 
ENDBRANCH  23  24
ENDBRANCH  22  23
ENDBRANCH  21  22
ENDBRANCH  20  21
ENDBRANCH  19  20
ENDBRANCH  18  19
ENDBRANCH  10  11
ENDBRANCH   6   9
ENDBRANCH   5   6
ENDBRANCH   4   5
ENDBRANCH   3   4
ENDBRANCH   2   3
TORSDOF 12
ENDMDL
MODEL       57
REMARK 921   NORMALIZED FREE ENERGY PREDICTED BY IDOCK:   -5.18 KCAL/MOL
REMARK 922        TOTAL FREE ENERGY PREDICTED BY IDOCK:  -10.76 KCAL/MOL
REMARK 923 INTER-LIGAND FREE ENERGY PREDICTED BY IDOCK:   -9.20 KCAL/MOL
REMARK 924 INTRA-LIGAND FREE ENERGY PREDICTED BY IDOCK:   -1.56 KCAL/MOL
REMARK 927      BINDING AFFINITY PREDICTED BY RF-SCORE:    0.00 PKD
ROOT
HETATM    1  C   UNL     1     -10.710  15.826  67.393  1.00  0.00    -0.317 C  
HETATM    2  C   UNL     1     -11.654  14.708  67.799  1.00  0.00    -0.382 C  
ENDROOT
BRANCH   2   3
HETATM    3  C   UNL     1     -12.136  13.898  66.594  1.00  0.00    -0.485 C  
BRANCH   3   4
HETATM    4  C   UNL     1     -11.678  12.446  66.721  1.00  0.00    -0.430 C  
BRANCH   4   5
HETATM    5  C   UNL     1     -10.387  12.167  65.948  1.00  0.00    -0.286 C  
BRANCH   5   6
HETATM    6  C   UNL     1      -9.858  10.737  66.152  1.00  0.00    -0.221 C  
HETATM    7  O   UNL     1      -9.954  10.067  64.900  1.00  0.00    -0.325 OA 
HETATM    8  H   UNL     1      -9.626   9.184  65.026  1.00  0.00     0.000 HD 
BRANCH   6   9
HETATM    9  C   UNL     1     -10.605   9.980  67.228  1.00  0.00    -0.319 C  
HETATM   10  C   UNL     1     -10.077   9.289  68.252  1.00  0.00    -0.214 C  
BRANCH  10  11
HETATM   11  C   UNL     1     -10.880   8.424  69.200  1.00  0.00    -0.042 C  
HETATM   12  C   UNL     1     -10.705   6.936  68.831  1.00  0.00    -0.222 C  
HETATM   13  O   UNL     1     -11.524   6.558  67.733  1.00  0.00    -0.664 OA 
HETATM   14  C   UNL     1     -11.089   6.163  70.075  1.00  0.00    -0.462 C  
HETATM   15  H   UNL     1     -11.416   5.641  67.506  1.00  0.00     0.000 HD 
HETATM   16  C   UNL     1     -10.603   7.085  71.149  1.00  0.00    -0.217 C  
HETATM   17  O   UNL     1     -10.364   6.696  72.287  1.00  0.00    -0.194 OA 
HETATM   18  C   UNL     1     -10.456   8.527  70.685  1.00  0.00    -0.234 C  
BRANCH  18  19
HETATM   19  C   UNL     1     -11.369   9.493  71.464  1.00  0.00    -0.456 C  
BRANCH  19  20
HETATM   20  C   UNL     1     -12.405  10.215  70.592  1.00  0.00    -0.382 C  
BRANCH  20  21
HETATM   21  C   UNL     1     -12.172  11.728  70.556  1.00  0.00    -0.438 C  
BRANCH  21  22
HETATM   22  C   UNL     1     -13.079  12.446  71.561  1.00  0.00    -0.362 C  
BRANCH  22  23
HETATM   23  C   UNL     1     -12.951  13.964  71.441  1.00  0.00    -0.430 C  
BRANCH  23  24
HETATM   24  C   UNL     1     -13.364  14.670  72.734  1.00  0.00    -0.593 C  
HETATM   25  C   UNL     1     -12.434  15.816  73.064  1.00  0.00    -0.472 C  
HETATM   26  O   UNL     1     -11.470  16.160  72.402  1.00  0.00    -0.351 OA 
HETATM   27  O   UNL     1     -12.787  16.444  74.209  1.00  0.00    -0.706 OA 
ENDBRANCH  23  24
ENDBRANCH  22  23
ENDBRANCH  21  22
ENDBRANCH  20  21
ENDBRANCH  19  20
ENDBRANCH  18  19
ENDBRANCH  10  11
ENDBRANCH   6   9
ENDBRANCH   5   6
ENDBRANCH   4   5
ENDBRANCH   3   4
ENDBRANCH   2   3
TORSDOF 12
ENDMDL
MODEL       58
REMARK 921   NORMALIZED FREE ENERGY PREDICTED BY IDOCK:   -5.17 KCAL/MOL
REMARK 922        TOTAL FREE ENERGY PREDICTED BY IDOCK:  -10.75 KCAL/MOL
REMARK 923 INTER-LIGAND FREE ENERGY PREDICTED BY IDOCK:   -8.76 KCAL/MOL
REMARK 924 INTRA-LIGAND FREE ENERGY PREDICTED BY IDOCK:   -1.99 KCAL/MOL
REMARK 927      BINDING AFFINITY PREDICTED BY RF-SCORE:    0.00 PKD
ROOT
HETATM    1  C   UNL     1     -10.194   6.551  68.477  1.00  0.00    -0.190 C  
HETATM    2  C   UNL     1     -11.160   6.148  69.576  1.00  0.00    -0.490 C  
ENDROOT
BRANCH   2   3
HETATM    3  C   UNL     1     -10.781   6.760  70.926  1.00  0.00    -0.269 C  
BRANCH   3   4
HETATM    4  C   UNL     1     -11.997   7.438  71.554  1.00  0.00    -0.337 C  
BRANCH   4   5
HETATM    5  C   UNL     1     -11.680   8.837  72.089  1.00  0.00    -0.433 C  
BRANCH   5   6
HETATM    6  C   UNL     1     -12.632   9.919  71.554  1.00  0.00    -0.416 C  
HETATM    7  O   UNL     1     -13.695   9.252  70.879  1.00  0.00    -0.591 OA 
HETATM    8  H   UNL     1     -14.283   9.921  70.548  1.00  0.00     0.000 HD 
BRANCH   6   9
HETATM    9  C   UNL     1     -11.946  10.906  70.634  1.00  0.00    -0.467 C  
HETATM   10  C   UNL     1     -11.985  10.928  69.292  1.00  0.00    -0.382 C  
BRANCH  10  11
HETATM   11  C   UNL     1     -11.147  11.849  68.431  1.00  0.00    -0.292 C  
HETATM   12  C   UNL     1     -11.108  13.261  69.052  1.00  0.00    -0.244 C  
HETATM   13  O   UNL     1     -12.286  14.003  68.765  1.00  0.00    -0.479 OA 
HETATM   14  C   UNL     1      -9.892  13.934  68.451  1.00  0.00    -0.229 C  
HETATM   15  H   UNL     1     -12.261  14.873  69.148  1.00  0.00     0.000 HD 
HETATM   16  C   UNL     1      -8.956  12.774  68.320  1.00  0.00    -0.175 C  
HETATM   17  O   UNL     1      -7.741  12.920  68.237  1.00  0.00    -0.122 OA 
HETATM   18  C   UNL     1      -9.664  11.428  68.287  1.00  0.00    -0.202 C  
BRANCH  18  19
HETATM   19  C   UNL     1      -9.421  10.666  66.971  1.00  0.00    -0.187 C  
BRANCH  19  20
HETATM   20  C   UNL     1     -10.560  10.800  65.951  1.00  0.00    -0.216 C  
BRANCH  20  21
HETATM   21  C   UNL     1     -10.038  11.090  64.541  1.00  0.00    -0.380 C  
BRANCH  21  22
HETATM   22  C   UNL     1      -9.726  12.579  64.367  1.00  0.00     0.035 C  
BRANCH  22  23
HETATM   23  C   UNL     1     -10.878  13.453  64.863  1.00  0.00    -0.363 C  
BRANCH  23  24
HETATM   24  C   UNL     1     -10.512  14.938  64.840  1.00  0.00    -0.389 C  
HETATM   25  C   UNL     1     -11.600  15.769  64.197  1.00  0.00    -0.076 C  
HETATM   26  O   UNL     1     -12.648  15.339  63.747  1.00  0.00    -0.733 OA 
HETATM   27  O   UNL     1     -11.284  17.083  64.166  1.00  0.00    -1.130 OA 
ENDBRANCH  23  24
ENDBRANCH  22  23
ENDBRANCH  21  22
ENDBRANCH  20  21
ENDBRANCH  19  20
ENDBRANCH  18  19
ENDBRANCH  10  11
ENDBRANCH   6   9
ENDBRANCH   5   6
ENDBRANCH   4   5
ENDBRANCH   3   4
ENDBRANCH   2   3
TORSDOF 12
ENDMDL
MODEL       59
REMARK 921   NORMALIZED FREE ENERGY PREDICTED BY IDOCK:   -5.16 KCAL/MOL
REMARK 922        TOTAL FREE ENERGY PREDICTED BY IDOCK:  -10.73 KCAL/MOL
REMARK 923 INTER-LIGAND FREE ENERGY PREDICTED BY IDOCK:   -8.67 KCAL/MOL
REMARK 924 INTRA-LIGAND FREE ENERGY PREDICTED BY IDOCK:   -2.07 KCAL/MOL
REMARK 927      BINDING AFFINITY PREDICTED BY RF-SCORE:    0.00 PKD
ROOT
HETATM    1  C   UNL     1     -10.390  19.502  66.454  1.00  0.00    -0.594 C  
HETATM    2  C   UNL     1      -9.543  19.829  67.671  1.00  0.00    -0.470 C  
ENDROOT
BRANCH   2   3
HETATM    3  C   UNL     1      -8.145  19.214  67.579  1.00  0.00    -0.301 C  
BRANCH   3   4
HETATM    4  C   UNL     1      -8.027  18.366  66.314  1.00  0.00    -0.264 C  
BRANCH   4   5
HETATM    5  C   UNL     1      -7.280  17.052  66.553  1.00  0.00    -0.311 C  
BRANCH   5   6
HETATM    6  C   UNL     1      -7.831  16.253  67.747  1.00  0.00    -0.142 C  
HETATM    7  O   UNL     1      -6.713  15.753  68.473  1.00  0.00    -0.114 OA 
HETATM    8  H   UNL     1      -7.054  15.259  69.211  1.00  0.00     0.000 HD 
BRANCH   6   9
HETATM    9  C   UNL     1      -8.749  15.126  67.328  1.00  0.00    -0.221 C  
HETATM   10  C   UNL     1      -9.503  15.062  66.218  1.00  0.00    -0.342 C  
BRANCH  10  11
HETATM   11  C   UNL     1     -10.519  13.975  65.939  1.00  0.00    -0.314 C  
HETATM   12  C   UNL     1     -11.932  14.465  66.318  1.00  0.00    -0.376 C  
HETATM   13  O   UNL     1     -12.170  14.381  67.717  1.00  0.00    -0.599 OA 
HETATM   14  C   UNL     1     -12.888  13.570  65.559  1.00  0.00    -0.406 C  
HETATM   15  H   UNL     1     -13.040  14.682  67.950  1.00  0.00     0.000 HD 
HETATM   16  C   UNL     1     -12.119  13.330  64.298  1.00  0.00    -0.416 C  
HETATM   17  O   UNL     1     -12.663  12.980  63.256  1.00  0.00    -0.663 OA 
HETATM   18  C   UNL     1     -10.622  13.551  64.453  1.00  0.00    -0.394 C  
BRANCH  18  19
HETATM   19  C   UNL     1      -9.805  12.275  64.176  1.00  0.00    -0.172 C  
BRANCH  19  20
HETATM   20  C   UNL     1     -10.319  11.031  64.914  1.00  0.00    -0.378 C  
BRANCH  20  21
HETATM   21  C   UNL     1      -9.433  10.665  66.109  1.00  0.00    -0.218 C  
BRANCH  21  22
HETATM   22  C   UNL     1     -10.258  10.013  67.223  1.00  0.00    -0.275 C  
BRANCH  22  23
HETATM   23  C   UNL     1     -11.065  11.052  68.001  1.00  0.00    -0.343 C  
BRANCH  23  24
HETATM   24  C   UNL     1     -11.614  10.479  69.308  1.00  0.00    -0.308 C  
HETATM   25  C   UNL     1     -11.984  11.573  70.284  1.00  0.00    -0.368 C  
HETATM   26  O   UNL     1     -11.871  12.770  70.083  1.00  0.00    -0.319 OA 
HETATM   27  O   UNL     1     -12.465  11.077  71.446  1.00  0.00    -0.360 OA 
ENDBRANCH  23  24
ENDBRANCH  22  23
ENDBRANCH  21  22
ENDBRANCH  20  21
ENDBRANCH  19  20
ENDBRANCH  18  19
ENDBRANCH  10  11
ENDBRANCH   6   9
ENDBRANCH   5   6
ENDBRANCH   4   5
ENDBRANCH   3   4
ENDBRANCH   2   3
TORSDOF 12
ENDMDL
MODEL       60
REMARK 921   NORMALIZED FREE ENERGY PREDICTED BY IDOCK:   -5.16 KCAL/MOL
REMARK 922        TOTAL FREE ENERGY PREDICTED BY IDOCK:  -10.73 KCAL/MOL
REMARK 923 INTER-LIGAND FREE ENERGY PREDICTED BY IDOCK:   -8.81 KCAL/MOL
REMARK 924 INTRA-LIGAND FREE ENERGY PREDICTED BY IDOCK:   -1.91 KCAL/MOL
REMARK 927      BINDING AFFINITY PREDICTED BY RF-SCORE:    0.00 PKD
ROOT
HETATM    1  C   UNL     1     -14.242   8.751  72.101  1.00  0.00    -0.504 C  
HETATM    2  C   UNL     1     -12.962   9.523  71.839  1.00  0.00    -0.514 C  
ENDROOT
BRANCH   2   3
HETATM    3  C   UNL     1     -13.196  11.035  71.831  1.00  0.00    -0.503 C  
BRANCH   3   4
HETATM    4  C   UNL     1     -12.325  11.695  70.763  1.00  0.00    -0.454 C  
BRANCH   4   5
HETATM    5  C   UNL     1     -12.329  13.222  70.862  1.00  0.00    -0.413 C  
BRANCH   5   6
HETATM    6  C   UNL     1     -11.705  13.909  69.635  1.00  0.00    -0.311 C  
HETATM    7  O   UNL     1     -12.613  14.919  69.207  1.00  0.00    -0.572 OA 
HETATM    8  H   UNL     1     -12.227  15.343  68.449  1.00  0.00     0.000 HD 
BRANCH   6   9
HETATM    9  C   UNL     1     -11.404  12.943  68.509  1.00  0.00    -0.324 C  
HETATM   10  C   UNL     1     -11.729  13.079  67.213  1.00  0.00    -0.429 C  
BRANCH  10  11
HETATM   11  C   UNL     1     -11.535  12.001  66.168  1.00  0.00    -0.401 C  
HETATM   12  C   UNL     1     -11.960  12.529  64.782  1.00  0.00    -0.409 C  
HETATM   13  O   UNL     1     -13.371  12.497  64.607  1.00  0.00    -0.804 OA 
HETATM   14  C   UNL     1     -11.277  11.625  63.778  1.00  0.00    -0.498 C  
HETATM   15  H   UNL     1     -13.632  12.822  63.753  1.00  0.00     0.000 HD 
HETATM   16  C   UNL     1      -9.992  11.327  64.485  1.00  0.00    -0.284 C  
HETATM   17  O   UNL     1      -8.989  10.951  63.889  1.00  0.00    -0.174 OA 
HETATM   18  C   UNL     1     -10.072  11.527  65.991  1.00  0.00    -0.270 C  
BRANCH  18  19
HETATM   19  C   UNL     1      -9.804  10.228  66.774  1.00  0.00    -0.246 C  
BRANCH  19  20
HETATM   20  C   UNL     1      -8.366  10.096  67.294  1.00  0.00    -0.121 C  
BRANCH  20  21
HETATM   21  C   UNL     1      -8.271  10.379  68.796  1.00  0.00    -0.128 C  
BRANCH  21  22
HETATM   22  C   UNL     1      -9.576  10.011  69.508  1.00  0.00    -0.249 C  
BRANCH  22  23
HETATM   23  C   UNL     1      -9.308   9.242  70.802  1.00  0.00    -0.322 C  
BRANCH  23  24
HETATM   24  C   UNL     1      -9.813   7.801  70.719  1.00  0.00    -0.183 C  
HETATM   25  C   UNL     1     -10.176   7.258  72.083  1.00  0.00    -0.190 C  
HETATM   26  O   UNL     1     -10.090   7.869  73.134  1.00  0.00    -0.297 OA 
HETATM   27  O   UNL     1     -10.618   5.982  72.021  1.00  0.00    -0.209 OA 
ENDBRANCH  23  24
ENDBRANCH  22  23
ENDBRANCH  21  22
ENDBRANCH  20  21
ENDBRANCH  19  20
ENDBRANCH  18  19
ENDBRANCH  10  11
ENDBRANCH   6   9
ENDBRANCH   5   6
ENDBRANCH   4   5
ENDBRANCH   3   4
ENDBRANCH   2   3
TORSDOF 12
ENDMDL
MODEL       61
REMARK 921   NORMALIZED FREE ENERGY PREDICTED BY IDOCK:   -5.15 KCAL/MOL
REMARK 922        TOTAL FREE ENERGY PREDICTED BY IDOCK:  -10.71 KCAL/MOL
REMARK 923 INTER-LIGAND FREE ENERGY PREDICTED BY IDOCK:   -8.84 KCAL/MOL
REMARK 924 INTRA-LIGAND FREE ENERGY PREDICTED BY IDOCK:   -1.87 KCAL/MOL
REMARK 927      BINDING AFFINITY PREDICTED BY RF-SCORE:    0.00 PKD
ROOT
HETATM    1  C   UNL     1      -5.899  20.703  68.672  1.00  0.00    -0.376 C  
HETATM    2  C   UNL     1      -6.610  19.664  69.520  1.00  0.00    -0.383 C  
ENDROOT
BRANCH   2   3
HETATM    3  C   UNL     1      -7.509  18.755  68.680  1.00  0.00    -0.343 C  
BRANCH   3   4
HETATM    4  C   UNL     1      -8.272  19.583  67.647  1.00  0.00    -0.332 C  
BRANCH   4   5
HETATM    5  C   UNL     1      -8.809  18.733  66.493  1.00  0.00    -0.315 C  
BRANCH   5   6
HETATM    6  C   UNL     1     -10.301  18.387  66.640  1.00  0.00    -0.396 C  
HETATM    7  O   UNL     1     -10.927  19.485  67.295  1.00  0.00    -0.499 OA 
HETATM    8  H   UNL     1     -11.849  19.271  67.386  1.00  0.00     0.000 HD 
BRANCH   6   9
HETATM    9  C   UNL     1     -10.535  17.100  67.400  1.00  0.00    -0.334 C  
HETATM   10  C   UNL     1     -10.787  16.967  68.713  1.00  0.00    -0.289 C  
BRANCH  10  11
HETATM   11  C   UNL     1     -10.855  15.639  69.437  1.00  0.00    -0.264 C  
HETATM   12  C   UNL     1     -12.208  15.505  70.165  1.00  0.00    -0.376 C  
HETATM   13  O   UNL     1     -12.227  16.218  71.394  1.00  0.00    -0.601 OA 
HETATM   14  C   UNL     1     -12.393  14.022  70.405  1.00  0.00    -0.429 C  
HETATM   15  H   UNL     1     -13.060  16.135  71.843  1.00  0.00     0.000 HD 
HETATM   16  C   UNL     1     -11.753  13.448  69.180  1.00  0.00    -0.326 C  
HETATM   17  O   UNL     1     -12.008  12.320  68.775  1.00  0.00    -0.302 OA 
HETATM   18  C   UNL     1     -10.764  14.396  68.518  1.00  0.00    -0.258 C  
BRANCH  18  19
HETATM   19  C   UNL     1      -9.333  13.826  68.484  1.00  0.00    -0.144 C  
BRANCH  19  20
HETATM   20  C   UNL     1      -8.803  13.547  67.071  1.00  0.00    -0.219 C  
BRANCH  20  21
HETATM   21  C   UNL     1      -8.414  12.078  66.882  1.00  0.00    -0.172 C  
BRANCH  21  22
HETATM   22  C   UNL     1      -9.533  11.300  66.183  1.00  0.00    -0.232 C  
BRANCH  22  23
HETATM   23  C   UNL     1     -10.213  12.146  65.107  1.00  0.00    -0.308 C  
BRANCH  23  24
HETATM   24  C   UNL     1     -11.683  12.410  65.439  1.00  0.00    -0.452 C  
HETATM   25  C   UNL     1     -12.098  13.811  65.053  1.00  0.00    -0.403 C  
HETATM   26  O   UNL     1     -11.376  14.648  64.538  1.00  0.00    -0.367 OA 
HETATM   27  O   UNL     1     -13.395  14.057  65.348  1.00  0.00    -0.721 OA 
ENDBRANCH  23  24
ENDBRANCH  22  23
ENDBRANCH  21  22
ENDBRANCH  20  21
ENDBRANCH  19  20
ENDBRANCH  18  19
ENDBRANCH  10  11
ENDBRANCH   6   9
ENDBRANCH   5   6
ENDBRANCH   4   5
ENDBRANCH   3   4
ENDBRANCH   2   3
TORSDOF 12
ENDMDL
MODEL       62
REMARK 921   NORMALIZED FREE ENERGY PREDICTED BY IDOCK:   -5.14 KCAL/MOL
REMARK 922        TOTAL FREE ENERGY PREDICTED BY IDOCK:  -10.70 KCAL/MOL
REMARK 923 INTER-LIGAND FREE ENERGY PREDICTED BY IDOCK:   -8.58 KCAL/MOL
REMARK 924 INTRA-LIGAND FREE ENERGY PREDICTED BY IDOCK:   -2.12 KCAL/MOL
REMARK 927      BINDING AFFINITY PREDICTED BY RF-SCORE:    0.00 PKD
ROOT
HETATM    1  C   UNL     1      -8.652   9.961  65.784  1.00  0.00    -0.151 C  
HETATM    2  C   UNL     1      -8.919  10.245  64.317  1.00  0.00    -0.261 C  
ENDROOT
BRANCH   2   3
HETATM    3  C   UNL     1     -10.310  10.843  64.092  1.00  0.00    -0.432 C  
BRANCH   3   4
HETATM    4  C   UNL     1     -10.188  12.249  63.509  1.00  0.00    -0.410 C  
BRANCH   4   5
HETATM    5  C   UNL     1     -10.669  13.332  64.477  1.00  0.00    -0.428 C  
BRANCH   5   6
HETATM    6  C   UNL     1     -12.056  13.037  65.073  1.00  0.00    -0.427 C  
HETATM    7  O   UNL     1     -12.890  14.152  64.776  1.00  0.00    -0.677 OA 
HETATM    8  H   UNL     1     -13.747  13.970  65.145  1.00  0.00     0.000 HD 
BRANCH   6   9
HETATM    9  C   UNL     1     -12.014  12.777  66.563  1.00  0.00    -0.428 C  
HETATM   10  C   UNL     1     -10.957  12.373  67.288  1.00  0.00    -0.302 C  
BRANCH  10  11
HETATM   11  C   UNL     1     -11.026  11.980  68.748  1.00  0.00    -0.282 C  
HETATM   12  C   UNL     1     -11.823  13.037  69.541  1.00  0.00    -0.323 C  
HETATM   13  O   UNL     1     -11.037  14.181  69.847  1.00  0.00    -0.432 OA 
HETATM   14  C   UNL     1     -12.270  12.341  70.809  1.00  0.00    -0.354 C  
HETATM   15  H   UNL     1     -11.528  14.832  70.335  1.00  0.00     0.000 HD 
HETATM   16  C   UNL     1     -12.502  10.950  70.308  1.00  0.00    -0.303 C  
HETATM   17  O   UNL     1     -13.224  10.154  70.897  1.00  0.00    -0.395 OA 
HETATM   18  C   UNL     1     -11.748  10.638  69.024  1.00  0.00    -0.305 C  
BRANCH  18  19
HETATM   19  C   UNL     1     -10.741   9.485  69.197  1.00  0.00    -0.228 C  
BRANCH  19  20
HETATM   20  C   UNL     1      -9.519   9.844  70.052  1.00  0.00    -0.246 C  
BRANCH  20  21
HETATM   21  C   UNL     1      -8.950   8.625  70.783  1.00  0.00    -0.209 C  
BRANCH  21  22
HETATM   22  C   UNL     1      -9.305   8.664  72.273  1.00  0.00    -0.322 C  
BRANCH  22  23
HETATM   23  C   UNL     1     -10.050   7.401  72.703  1.00  0.00    -0.255 C  
BRANCH  23  24
HETATM   24  C   UNL     1     -11.566   7.602  72.677  1.00  0.00    -0.371 C  
HETATM   25  C   UNL     1     -12.204   6.878  71.513  1.00  0.00    -0.371 C  
HETATM   26  O   UNL     1     -11.611   6.209  70.684  1.00  0.00    -0.321 OA 
HETATM   27  O   UNL     1     -13.544   7.054  71.477  1.00  0.00    -0.351 OA 
ENDBRANCH  23  24
ENDBRANCH  22  23
ENDBRANCH  21  22
ENDBRANCH  20  21
ENDBRANCH  19  20
ENDBRANCH  18  19
ENDBRANCH  10  11
ENDBRANCH   6   9
ENDBRANCH   5   6
ENDBRANCH   4   5
ENDBRANCH   3   4
ENDBRANCH   2   3
TORSDOF 12
ENDMDL
MODEL       63
REMARK 921   NORMALIZED FREE ENERGY PREDICTED BY IDOCK:   -5.14 KCAL/MOL
REMARK 922        TOTAL FREE ENERGY PREDICTED BY IDOCK:  -10.70 KCAL/MOL
REMARK 923 INTER-LIGAND FREE ENERGY PREDICTED BY IDOCK:   -8.58 KCAL/MOL
REMARK 924 INTRA-LIGAND FREE ENERGY PREDICTED BY IDOCK:   -2.12 KCAL/MOL
REMARK 927      BINDING AFFINITY PREDICTED BY RF-SCORE:    0.00 PKD
ROOT
HETATM    1  C   UNL     1     -12.580  14.053  65.433  1.00  0.00    -0.529 C  
HETATM    2  C   UNL     1     -12.509  12.545  65.270  1.00  0.00    -0.390 C  
ENDROOT
BRANCH   2   3
HETATM    3  C   UNL     1     -12.208  12.137  63.826  1.00  0.00    -0.630 C  
BRANCH   3   4
HETATM    4  C   UNL     1     -10.749  11.701  63.699  1.00  0.00    -0.500 C  
BRANCH   4   5
HETATM    5  C   UNL     1     -10.050  11.581  65.055  1.00  0.00    -0.315 C  
BRANCH   5   6
HETATM    6  C   UNL     1      -9.562  10.154  65.359  1.00  0.00    -0.264 C  
HETATM    7  O   UNL     1      -9.729   9.388  64.171  1.00  0.00    -0.342 OA 
HETATM    8  H   UNL     1      -9.427   8.506  64.359  1.00  0.00     0.000 HD 
BRANCH   6   9
HETATM    9  C   UNL     1     -10.295   9.516  66.519  1.00  0.00    -0.263 C  
HETATM   10  C   UNL     1      -9.755   8.993  67.632  1.00  0.00    -0.196 C  
BRANCH  10  11
HETATM   11  C   UNL     1     -10.535   8.229  68.680  1.00  0.00    -0.199 C  
HETATM   12  C   UNL     1     -10.585   6.731  68.311  1.00  0.00    -0.230 C  
HETATM   13  O   UNL     1     -11.570   6.457  67.323  1.00  0.00    -0.695 OA 
HETATM   14  C   UNL     1     -10.906   6.007  69.601  1.00  0.00    -0.439 C  
HETATM   15  H   UNL     1     -11.600   5.535  67.096  1.00  0.00     0.000 HD 
HETATM   16  C   UNL     1     -10.188   6.861  70.598  1.00  0.00    -0.195 C  
HETATM   17  O   UNL     1      -9.862   6.444  71.703  1.00  0.00    -0.168 OA 
HETATM   18  C   UNL     1      -9.926   8.276  70.103  1.00  0.00    -0.187 C  
BRANCH  18  19
HETATM   19  C   UNL     1     -10.616   9.343  70.974  1.00  0.00    -0.400 C  
BRANCH  19  20
HETATM   20  C   UNL     1     -12.107   9.077  71.225  1.00  0.00    -0.375 C  
BRANCH  20  21
HETATM   21  C   UNL     1     -12.935  10.364  71.188  1.00  0.00    -0.506 C  
BRANCH  21  22
HETATM   22  C   UNL     1     -12.067  11.563  70.794  1.00  0.00    -0.410 C  
BRANCH  22  23
HETATM   23  C   UNL     1     -12.113  11.814  69.287  1.00  0.00    -0.292 C  
BRANCH  23  24
HETATM   24  C   UNL     1     -11.754  13.260  68.943  1.00  0.00    -0.369 C  
HETATM   25  C   UNL     1     -10.328  13.379  68.454  1.00  0.00    -0.251 C  
HETATM   26  O   UNL     1      -9.540  12.456  68.337  1.00  0.00    -0.216 OA 
HETATM   27  O   UNL     1      -9.998  14.655  68.153  1.00  0.00    -0.215 OA 
ENDBRANCH  23  24
ENDBRANCH  22  23
ENDBRANCH  21  22
ENDBRANCH  20  21
ENDBRANCH  19  20
ENDBRANCH  18  19
ENDBRANCH  10  11
ENDBRANCH   6   9
ENDBRANCH   5   6
ENDBRANCH   4   5
ENDBRANCH   3   4
ENDBRANCH   2   3
TORSDOF 12
ENDMDL
MODEL       64
REMARK 921   NORMALIZED FREE ENERGY PREDICTED BY IDOCK:   -5.14 KCAL/MOL
REMARK 922        TOTAL FREE ENERGY PREDICTED BY IDOCK:  -10.69 KCAL/MOL
REMARK 923 INTER-LIGAND FREE ENERGY PREDICTED BY IDOCK:   -9.18 KCAL/MOL
REMARK 924 INTRA-LIGAND FREE ENERGY PREDICTED BY IDOCK:   -1.51 KCAL/MOL
REMARK 927      BINDING AFFINITY PREDICTED BY RF-SCORE:    0.00 PKD
ROOT
HETATM    1  C   UNL     1      -9.539  10.719  64.301  1.00  0.00    -0.333 C  
HETATM    2  C   UNL     1      -9.554   9.693  65.420  1.00  0.00    -0.361 C  
ENDROOT
BRANCH   2   3
HETATM    3  C   UNL     1      -8.177   9.530  66.067  1.00  0.00    -0.115 C  
BRANCH   3   4
HETATM    4  C   UNL     1      -7.356  10.806  65.881  1.00  0.00    -0.094 C  
BRANCH   4   5
HETATM    5  C   UNL     1      -6.768  11.324  67.196  1.00  0.00    -0.113 C  
BRANCH   5   6
HETATM    6  C   UNL     1      -7.313  12.705  67.598  1.00  0.00    -0.139 C  
HETATM    7  O   UNL     1      -7.332  12.754  69.021  1.00  0.00    -0.259 OA 
HETATM    8  H   UNL     1      -7.669  13.608  69.270  1.00  0.00     0.000 HD 
BRANCH   6   9
HETATM    9  C   UNL     1      -8.688  12.984  67.031  1.00  0.00    -0.195 C  
HETATM   10  C   UNL     1      -9.229  14.185  66.766  1.00  0.00    -0.282 C  
BRANCH  10  11
HETATM   11  C   UNL     1     -10.669  14.396  66.348  1.00  0.00    -0.306 C  
HETATM   12  C   UNL     1     -10.723  14.945  64.906  1.00  0.00    -0.405 C  
HETATM   13  O   UNL     1     -10.463  16.342  64.856  1.00  0.00    -0.624 OA 
HETATM   14  C   UNL     1     -12.121  14.644  64.411  1.00  0.00    -0.481 C  
HETATM   15  H   UNL     1     -10.497  16.679  63.969  1.00  0.00     0.000 HD 
HETATM   16  C   UNL     1     -12.394  13.339  65.092  1.00  0.00    -0.466 C  
HETATM   17  O   UNL     1     -13.241  12.553  64.684  1.00  0.00    -0.848 OA 
HETATM   18  C   UNL     1     -11.532  13.111  66.325  1.00  0.00    -0.372 C  
BRANCH  18  19
HETATM   19  C   UNL     1     -12.368  12.973  67.611  1.00  0.00     0.114 C  
BRANCH  19  20
HETATM   20  C   UNL     1     -11.604  13.330  68.894  1.00  0.00    -0.357 C  
BRANCH  20  21
HETATM   21  C   UNL     1     -11.987  12.418  70.063  1.00  0.00    -0.372 C  
BRANCH  21  22
HETATM   22  C   UNL     1     -12.599  13.225  71.212  1.00  0.00    -0.398 C  
BRANCH  22  23
HETATM   23  C   UNL     1     -12.303  14.718  71.064  1.00  0.00    -0.397 C  
BRANCH  23  24
HETATM   24  C   UNL     1     -11.812  15.330  72.377  1.00  0.00    -0.532 C  
HETATM   25  C   UNL     1     -12.960  15.858  73.209  1.00  0.00    -0.570 C  
HETATM   26  O   UNL     1     -14.138  15.814  72.899  1.00  0.00    -0.542 OA 
HETATM   27  O   UNL     1     -12.536  16.406  74.370  1.00  0.00    -0.730 OA 
ENDBRANCH  23  24
ENDBRANCH  22  23
ENDBRANCH  21  22
ENDBRANCH  20  21
ENDBRANCH  19  20
ENDBRANCH  18  19
ENDBRANCH  10  11
ENDBRANCH   6   9
ENDBRANCH   5   6
ENDBRANCH   4   5
ENDBRANCH   3   4
ENDBRANCH   2   3
TORSDOF 12
ENDMDL
MODEL       65
REMARK 921   NORMALIZED FREE ENERGY PREDICTED BY IDOCK:   -5.14 KCAL/MOL
REMARK 922        TOTAL FREE ENERGY PREDICTED BY IDOCK:  -10.69 KCAL/MOL
REMARK 923 INTER-LIGAND FREE ENERGY PREDICTED BY IDOCK:   -8.71 KCAL/MOL
REMARK 924 INTRA-LIGAND FREE ENERGY PREDICTED BY IDOCK:   -1.98 KCAL/MOL
REMARK 927      BINDING AFFINITY PREDICTED BY RF-SCORE:    0.00 PKD
ROOT
HETATM    1  C   UNL     1     -11.370   6.241  69.640  1.00  0.00    -0.492 C  
HETATM    2  C   UNL     1     -10.058   6.353  68.883  1.00  0.00    -0.187 C  
ENDROOT
BRANCH   2   3
HETATM    3  C   UNL     1      -9.937   5.293  67.785  1.00  0.00    -0.204 C  
BRANCH   3   4
HETATM    4  C   UNL     1      -9.536   5.949  66.465  1.00  0.00    -0.180 C  
BRANCH   4   5
HETATM    5  C   UNL     1      -9.691   7.471  66.494  1.00  0.00    -0.238 C  
BRANCH   5   6
HETATM    6  C   UNL     1      -8.672   8.199  65.600  1.00  0.00    -0.145 C  
HETATM    7  O   UNL     1      -7.399   8.081  66.226  1.00  0.00    -0.076 OA 
HETATM    8  H   UNL     1      -6.769   8.531  65.674  1.00  0.00     0.000 HD 
BRANCH   6   9
HETATM    9  C   UNL     1      -9.025   9.652  65.365  1.00  0.00    -0.231 C  
HETATM   10  C   UNL     1     -10.238  10.219  65.469  1.00  0.00    -0.308 C  
BRANCH  10  11
HETATM   11  C   UNL     1     -10.548  11.645  65.067  1.00  0.00    -0.342 C  
HETATM   12  C   UNL     1     -11.211  11.667  63.674  1.00  0.00    -0.411 C  
HETATM   13  O   UNL     1     -10.258  11.539  62.626  1.00  0.00    -0.604 OA 
HETATM   14  C   UNL     1     -11.926  12.999  63.586  1.00  0.00    -0.608 C  
HETATM   15  H   UNL     1     -10.667  11.553  61.769  1.00  0.00     0.000 HD 
HETATM   16  C   UNL     1     -12.363  13.186  65.005  1.00  0.00    -0.459 C  
HETATM   17  O   UNL     1     -13.289  13.929  65.312  1.00  0.00    -0.732 OA 
HETATM   18  C   UNL     1     -11.542  12.380  66.000  1.00  0.00    -0.455 C  
BRANCH  18  19
HETATM   19  C   UNL     1     -10.804  13.272  67.015  1.00  0.00    -0.278 C  
BRANCH  19  20
HETATM   20  C   UNL     1     -10.068  12.494  68.115  1.00  0.00    -0.225 C  
BRANCH  20  21
HETATM   21  C   UNL     1     -10.983  11.485  68.815  1.00  0.00    -0.271 C  
BRANCH  21  22
HETATM   22  C   UNL     1     -10.195  10.254  69.272  1.00  0.00    -0.244 C  
BRANCH  22  23
HETATM   23  C   UNL     1     -10.610   9.816  70.677  1.00  0.00    -0.382 C  
BRANCH  23  24
HETATM   24  C   UNL     1     -12.102  10.047  70.923  1.00  0.00    -0.448 C  
HETATM   25  C   UNL     1     -12.650   9.090  71.957  1.00  0.00    -0.394 C  
HETATM   26  O   UNL     1     -12.009   8.232  72.540  1.00  0.00    -0.387 OA 
HETATM   27  O   UNL     1     -13.970   9.283  72.179  1.00  0.00    -0.409 OA 
ENDBRANCH  23  24
ENDBRANCH  22  23
ENDBRANCH  21  22
ENDBRANCH  20  21
ENDBRANCH  19  20
ENDBRANCH  18  19
ENDBRANCH  10  11
ENDBRANCH   6   9
ENDBRANCH   5   6
ENDBRANCH   4   5
ENDBRANCH   3   4
ENDBRANCH   2   3
TORSDOF 12
ENDMDL
MODEL       66
REMARK 921   NORMALIZED FREE ENERGY PREDICTED BY IDOCK:   -5.13 KCAL/MOL
REMARK 922        TOTAL FREE ENERGY PREDICTED BY IDOCK:  -10.68 KCAL/MOL
REMARK 923 INTER-LIGAND FREE ENERGY PREDICTED BY IDOCK:   -9.54 KCAL/MOL
REMARK 924 INTRA-LIGAND FREE ENERGY PREDICTED BY IDOCK:   -1.13 KCAL/MOL
REMARK 927      BINDING AFFINITY PREDICTED BY RF-SCORE:    0.00 PKD
ROOT
HETATM    1  C   UNL     1      -7.917  19.813  67.144  1.00  0.00    -0.323 C  
HETATM    2  C   UNL     1      -9.260  20.496  67.328  1.00  0.00    -0.500 C  
ENDROOT
BRANCH   2   3
HETATM    3  C   UNL     1     -10.415  19.493  67.363  1.00  0.00    -0.593 C  
BRANCH   3   4
HETATM    4  C   UNL     1     -10.550  18.802  66.007  1.00  0.00    -0.442 C  
BRANCH   4   5
HETATM    5  C   UNL     1     -10.864  17.310  66.136  1.00  0.00     0.030 C  
BRANCH   5   6
HETATM    6  C   UNL     1     -10.575  16.518  64.849  1.00  0.00    -0.032 C  
HETATM    7  O   UNL     1     -11.644  16.777  63.944  1.00  0.00    -1.451 OA 
HETATM    8  H   UNL     1     -11.465  16.287  63.149  1.00  0.00     0.000 HD 
BRANCH   6   9
HETATM    9  C   UNL     1     -10.423  15.032  65.093  1.00  0.00    -0.438 C  
HETATM   10  C   UNL     1     -11.241  14.053  64.675  1.00  0.00    -0.377 C  
BRANCH  10  11
HETATM   11  C   UNL     1     -11.114  12.602  65.089  1.00  0.00    -0.329 C  
HETATM   12  C   UNL     1     -10.744  11.736  63.866  1.00  0.00    -0.399 C  
HETATM   13  O   UNL     1     -11.875  11.445  63.055  1.00  0.00    -0.903 OA 
HETATM   14  C   UNL     1     -10.153  10.464  64.435  1.00  0.00    -0.342 C  
HETATM   15  H   UNL     1     -11.647  10.911  62.303  1.00  0.00     0.000 HD 
HETATM   16  C   UNL     1      -9.456  10.988  65.651  1.00  0.00    -0.217 C  
HETATM   17  O   UNL     1      -8.540  10.381  66.194  1.00  0.00    -0.136 OA 
HETATM   18  C   UNL     1     -10.007  12.322  66.134  1.00  0.00    -0.260 C  
BRANCH  18  19
HETATM   19  C   UNL     1     -10.587  12.240  67.558  1.00  0.00    -0.242 C  
BRANCH  19  20
HETATM   20  C   UNL     1     -11.737  11.234  67.708  1.00  0.00    -0.254 C  
BRANCH  20  21
HETATM   21  C   UNL     1     -11.501  10.259  68.865  1.00  0.00    -0.190 C  
BRANCH  21  22
HETATM   22  C   UNL     1     -12.131  10.781  70.160  1.00  0.00    -0.427 C  
BRANCH  22  23
HETATM   23  C   UNL     1     -11.754   9.907  71.356  1.00  0.00    -0.449 C  
BRANCH  23  24
HETATM   24  C   UNL     1     -11.189   8.556  70.913  1.00  0.00    -0.304 C  
HETATM   25  C   UNL     1     -12.232   7.465  70.988  1.00  0.00    -0.282 C  
HETATM   26  O   UNL     1     -13.387   7.612  71.350  1.00  0.00    -0.337 OA 
HETATM   27  O   UNL     1     -11.741   6.265  70.605  1.00  0.00    -0.343 OA 
ENDBRANCH  23  24
ENDBRANCH  22  23
ENDBRANCH  21  22
ENDBRANCH  20  21
ENDBRANCH  19  20
ENDBRANCH  18  19
ENDBRANCH  10  11
ENDBRANCH   6   9
ENDBRANCH   5   6
ENDBRANCH   4   5
ENDBRANCH   3   4
ENDBRANCH   2   3
TORSDOF 12
ENDMDL
MODEL       67
REMARK 921   NORMALIZED FREE ENERGY PREDICTED BY IDOCK:   -5.11 KCAL/MOL
REMARK 922        TOTAL FREE ENERGY PREDICTED BY IDOCK:  -10.64 KCAL/MOL
REMARK 923 INTER-LIGAND FREE ENERGY PREDICTED BY IDOCK:   -8.75 KCAL/MOL
REMARK 924 INTRA-LIGAND FREE ENERGY PREDICTED BY IDOCK:   -1.88 KCAL/MOL
REMARK 927      BINDING AFFINITY PREDICTED BY RF-SCORE:    0.00 PKD
ROOT
HETATM    1  C   UNL     1     -10.714   9.668  71.204  1.00  0.00    -0.365 C  
HETATM    2  C   UNL     1     -11.506   8.373  71.198  1.00  0.00    -0.314 C  
ENDROOT
BRANCH   2   3
HETATM    3  C   UNL     1     -10.618   7.159  70.919  1.00  0.00    -0.238 C  
BRANCH   3   4
HETATM    4  C   UNL     1     -11.322   6.205  69.955  1.00  0.00    -0.443 C  
BRANCH   4   5
HETATM    5  C   UNL     1     -10.561   6.029  68.640  1.00  0.00    -0.327 C  
BRANCH   5   6
HETATM    6  C   UNL     1     -11.088   6.929  67.510  1.00  0.00    -0.213 C  
HETATM    7  O   UNL     1     -11.229   6.115  66.350  1.00  0.00    -0.725 OA 
HETATM    8  H   UNL     1     -11.555   6.672  65.652  1.00  0.00     0.000 HD 
BRANCH   6   9
HETATM    9  C   UNL     1     -10.189   8.114  67.232  1.00  0.00    -0.348 C  
HETATM   10  C   UNL     1     -10.422   9.401  67.537  1.00  0.00    -0.343 C  
BRANCH  10  11
HETATM   11  C   UNL     1      -9.550  10.554  67.088  1.00  0.00    -0.194 C  
HETATM   12  C   UNL     1      -8.734  11.093  68.282  1.00  0.00    -0.151 C  
HETATM   13  O   UNL     1      -9.505  11.950  69.113  1.00  0.00    -0.388 OA 
HETATM   14  C   UNL     1      -7.572  11.846  67.670  1.00  0.00    -0.136 C  
HETATM   15  H   UNL     1      -9.002  12.282  69.848  1.00  0.00     0.000 HD 
HETATM   16  C   UNL     1      -7.304  11.022  66.449  1.00  0.00    -0.128 C  
HETATM   17  O   UNL     1      -6.224  11.041  65.871  1.00  0.00    -0.119 OA 
HETATM   18  C   UNL     1      -8.500  10.190  66.010  1.00  0.00    -0.136 C  
BRANCH  18  19
HETATM   19  C   UNL     1      -8.991  10.563  64.599  1.00  0.00    -0.229 C  
BRANCH  19  20
HETATM   20  C   UNL     1     -10.059  11.666  64.579  1.00  0.00    -0.321 C  
BRANCH  20  21
HETATM   21  C   UNL     1     -10.817  11.709  63.250  1.00  0.00    -0.380 C  
BRANCH  21  22
HETATM   22  C   UNL     1     -12.210  12.321  63.432  1.00  0.00    -0.630 C  
BRANCH  22  23
HETATM   23  C   UNL     1     -12.275  13.195  64.685  1.00  0.00    -0.471 C  
BRANCH  23  24
HETATM   24  C   UNL     1     -12.535  14.661  64.339  1.00  0.00    -0.312 C  
HETATM   25  C   UNL     1     -11.284  15.498  64.484  1.00  0.00    -0.315 C  
HETATM   26  O   UNL     1     -10.191  15.084  64.830  1.00  0.00    -0.357 OA 
HETATM   27  O   UNL     1     -11.505  16.799  64.186  1.00  0.00    -1.171 OA 
ENDBRANCH  23  24
ENDBRANCH  22  23
ENDBRANCH  21  22
ENDBRANCH  20  21
ENDBRANCH  19  20
ENDBRANCH  18  19
ENDBRANCH  10  11
ENDBRANCH   6   9
ENDBRANCH   5   6
ENDBRANCH   4   5
ENDBRANCH   3   4
ENDBRANCH   2   3
TORSDOF 12
ENDMDL
MODEL       68
REMARK 921   NORMALIZED FREE ENERGY PREDICTED BY IDOCK:   -5.09 KCAL/MOL
REMARK 922        TOTAL FREE ENERGY PREDICTED BY IDOCK:  -10.62 KCAL/MOL
REMARK 923 INTER-LIGAND FREE ENERGY PREDICTED BY IDOCK:   -8.51 KCAL/MOL
REMARK 924 INTRA-LIGAND FREE ENERGY PREDICTED BY IDOCK:   -2.11 KCAL/MOL
REMARK 927      BINDING AFFINITY PREDICTED BY RF-SCORE:    0.00 PKD
ROOT
HETATM    1  C   UNL     1     -11.311  14.881  69.907  1.00  0.00    -0.311 C  
HETATM    2  C   UNL     1     -11.787  13.455  69.690  1.00  0.00    -0.394 C  
ENDROOT
BRANCH   2   3
HETATM    3  C   UNL     1     -12.588  12.929  70.882  1.00  0.00    -0.355 C  
BRANCH   3   4
HETATM    4  C   UNL     1     -12.485  11.407  70.952  1.00  0.00    -0.478 C  
BRANCH   4   5
HETATM    5  C   UNL     1     -13.395  10.804  72.025  1.00  0.00    -0.403 C  
BRANCH   5   6
HETATM    6  C   UNL     1     -13.529   9.276  71.915  1.00  0.00    -0.430 C  
HETATM    7  O   UNL     1     -13.574   8.758  73.241  1.00  0.00    -0.983 OA 
HETATM    8  H   UNL     1     -13.656   7.814  73.173  1.00  0.00     0.000 HD 
BRANCH   6   9
HETATM    9  C   UNL     1     -12.405   8.641  71.126  1.00  0.00    -0.243 C  
HETATM   10  C   UNL     1     -12.078   7.339  71.082  1.00  0.00    -0.376 C  
BRANCH  10  11
HETATM   11  C   UNL     1     -10.843   6.794  70.396  1.00  0.00    -0.306 C  
HETATM   12  C   UNL     1     -10.413   5.469  71.062  1.00  0.00    -0.244 C  
HETATM   13  O   UNL     1      -9.693   5.687  72.268  1.00  0.00    -0.154 OA 
HETATM   14  C   UNL     1      -9.544   4.767  70.040  1.00  0.00    -0.260 C  
HETATM   15  H   UNL     1      -9.428   4.871  72.677  1.00  0.00     0.000 HD 
HETATM   16  C   UNL     1     -10.206   5.181  68.764  1.00  0.00    -0.132 C  
HETATM   17  O   UNL     1     -10.073   4.549  67.722  1.00  0.00    -0.102 OA 
HETATM   18  C   UNL     1     -11.032   6.452  68.898  1.00  0.00    -0.412 C  
BRANCH  18  19
HETATM   19  C   UNL     1     -10.518   7.588  67.994  1.00  0.00    -0.253 C  
BRANCH  19  20
HETATM   20  C   UNL     1      -9.452   8.476  68.650  1.00  0.00    -0.144 C  
BRANCH  20  21
HETATM   21  C   UNL     1      -9.880   9.945  68.702  1.00  0.00    -0.168 C  
BRANCH  21  22
HETATM   22  C   UNL     1     -10.990  10.229  67.686  1.00  0.00    -0.356 C  
BRANCH  22  23
HETATM   23  C   UNL     1     -10.625  11.401  66.775  1.00  0.00    -0.298 C  
BRANCH  23  24
HETATM   24  C   UNL     1     -11.856  12.223  66.389  1.00  0.00    -0.382 C  
HETATM   25  C   UNL     1     -11.583  13.107  65.193  1.00  0.00    -0.318 C  
HETATM   26  O   UNL     1     -10.526  13.178  64.590  1.00  0.00    -0.357 OA 
HETATM   27  O   UNL     1     -12.664  13.842  64.847  1.00  0.00    -0.648 OA 
ENDBRANCH  23  24
ENDBRANCH  22  23
ENDBRANCH  21  22
ENDBRANCH  20  21
ENDBRANCH  19  20
ENDBRANCH  18  19
ENDBRANCH  10  11
ENDBRANCH   6   9
ENDBRANCH   5   6
ENDBRANCH   4   5
ENDBRANCH   3   4
ENDBRANCH   2   3
TORSDOF 12
ENDMDL
MODEL       69
REMARK 921   NORMALIZED FREE ENERGY PREDICTED BY IDOCK:   -5.09 KCAL/MOL
REMARK 922        TOTAL FREE ENERGY PREDICTED BY IDOCK:  -10.61 KCAL/MOL
REMARK 923 INTER-LIGAND FREE ENERGY PREDICTED BY IDOCK:   -8.95 KCAL/MOL
REMARK 924 INTRA-LIGAND FREE ENERGY PREDICTED BY IDOCK:   -1.66 KCAL/MOL
REMARK 927      BINDING AFFINITY PREDICTED BY RF-SCORE:    0.00 PKD
ROOT
HETATM    1  C   UNL     1      -9.872   9.227  66.209  1.00  0.00    -0.361 C  
HETATM    2  C   UNL     1      -9.625   7.776  66.585  1.00  0.00    -0.286 C  
ENDROOT
BRANCH   2   3
HETATM    3  C   UNL     1     -10.900   7.086  67.074  1.00  0.00    -0.413 C  
BRANCH   3   4
HETATM    4  C   UNL     1     -10.638   6.383  68.405  1.00  0.00    -0.311 C  
BRANCH   4   5
HETATM    5  C   UNL     1      -9.264   6.722  68.989  1.00  0.00    -0.136 C  
BRANCH   5   6
HETATM    6  C   UNL     1      -9.345   7.457  70.338  1.00  0.00    -0.161 C  
HETATM    7  O   UNL     1      -9.796   6.516  71.306  1.00  0.00    -0.180 OA 
HETATM    8  H   UNL     1      -9.846   6.970  72.140  1.00  0.00     0.000 HD 
BRANCH   6   9
HETATM    9  C   UNL     1     -10.253   8.666  70.296  1.00  0.00    -0.213 C  
HETATM   10  C   UNL     1     -11.408   8.837  70.961  1.00  0.00    -0.332 C  
BRANCH  10  11
HETATM   11  C   UNL     1     -12.346  10.007  70.751  1.00  0.00    -0.396 C  
HETATM   12  C   UNL     1     -12.921  10.470  72.106  1.00  0.00    -0.263 C  
HETATM   13  O   UNL     1     -13.991   9.642  72.543  1.00  0.00    -0.626 OA 
HETATM   14  C   UNL     1     -13.401  11.888  71.879  1.00  0.00    -0.405 C  
HETATM   15  H   UNL     1     -14.345   9.928  73.377  1.00  0.00     0.000 HD 
HETATM   16  C   UNL     1     -12.384  12.384  70.899  1.00  0.00    -0.262 C  
HETATM   17  O   UNL     1     -12.161  13.578  70.735  1.00  0.00    -0.349 OA 
HETATM   18  C   UNL     1     -11.683  11.267  70.141  1.00  0.00    -0.429 C  
BRANCH  18  19
HETATM   19  C   UNL     1     -11.922  11.346  68.621  1.00  0.00    -0.317 C  
BRANCH  19  20
HETATM   20  C   UNL     1     -10.943  12.268  67.881  1.00  0.00    -0.265 C  
BRANCH  20  21
HETATM   21  C   UNL     1     -11.666  13.392  67.133  1.00  0.00    -0.424 C  
BRANCH  21  22
HETATM   22  C   UNL     1     -10.664  14.349  66.480  1.00  0.00    -0.306 C  
BRANCH  22  23
HETATM   23  C   UNL     1     -10.886  14.444  64.970  1.00  0.00    -0.420 C  
BRANCH  23  24
HETATM   24  C   UNL     1     -12.177  13.745  64.543  1.00  0.00    -0.441 C  
HETATM   25  C   UNL     1     -11.899  12.568  63.635  1.00  0.00    -0.530 C  
HETATM   26  O   UNL     1     -10.796  12.198  63.273  1.00  0.00    -0.415 OA 
HETATM   27  O   UNL     1     -13.035  11.946  63.247  1.00  0.00    -0.707 OA 
ENDBRANCH  23  24
ENDBRANCH  22  23
ENDBRANCH  21  22
ENDBRANCH  20  21
ENDBRANCH  19  20
ENDBRANCH  18  19
ENDBRANCH  10  11
ENDBRANCH   6   9
ENDBRANCH   5   6
ENDBRANCH   4   5
ENDBRANCH   3   4
ENDBRANCH   2   3
TORSDOF 12
ENDMDL
MODEL       70
REMARK 921   NORMALIZED FREE ENERGY PREDICTED BY IDOCK:   -5.09 KCAL/MOL
REMARK 922        TOTAL FREE ENERGY PREDICTED BY IDOCK:  -10.61 KCAL/MOL
REMARK 923 INTER-LIGAND FREE ENERGY PREDICTED BY IDOCK:   -9.40 KCAL/MOL
REMARK 924 INTRA-LIGAND FREE ENERGY PREDICTED BY IDOCK:   -1.21 KCAL/MOL
REMARK 927      BINDING AFFINITY PREDICTED BY RF-SCORE:    0.00 PKD
ROOT
HETATM    1  C   UNL     1     -11.272   6.248  71.782  1.00  0.00    -0.334 C  
HETATM    2  C   UNL     1     -11.606   7.651  71.308  1.00  0.00    -0.302 C  
ENDROOT
BRANCH   2   3
HETATM    3  C   UNL     1     -10.697   8.704  71.946  1.00  0.00    -0.414 C  
BRANCH   3   4
HETATM    4  C   UNL     1      -9.885   9.420  70.868  1.00  0.00    -0.338 C  
BRANCH   4   5
HETATM    5  C   UNL     1     -10.645   9.544  69.545  1.00  0.00    -0.238 C  
BRANCH   5   6
HETATM    6  C   UNL     1     -11.410  10.871  69.410  1.00  0.00    -0.280 C  
HETATM    7  O   UNL     1     -12.797  10.555  69.344  1.00  0.00    -0.654 OA 
HETATM    8  H   UNL     1     -13.270  11.375  69.260  1.00  0.00     0.000 HD 
BRANCH   6   9
HETATM    9  C   UNL     1     -10.983  11.678  68.203  1.00  0.00    -0.275 C  
HETATM   10  C   UNL     1     -11.681  12.643  67.582  1.00  0.00    -0.420 C  
BRANCH  10  11
HETATM   11  C   UNL     1     -11.260  13.299  66.285  1.00  0.00    -0.321 C  
HETATM   12  C   UNL     1     -12.505  13.647  65.442  1.00  0.00    -0.499 C  
HETATM   13  O   UNL     1     -13.014  12.516  64.748  1.00  0.00    -0.827 OA 
HETATM   14  C   UNL     1     -12.049  14.712  64.467  1.00  0.00    -0.490 C  
HETATM   15  H   UNL     1     -13.780  12.731  64.230  1.00  0.00     0.000 HD 
HETATM   16  C   UNL     1     -11.051  15.456  65.297  1.00  0.00    -0.360 C  
HETATM   17  O   UNL     1     -10.720  16.609  65.046  1.00  0.00    -0.677 OA 
HETATM   18  C   UNL     1     -10.498  14.636  66.454  1.00  0.00    -0.296 C  
BRANCH  18  19
HETATM   19  C   UNL     1      -8.974  14.430  66.355  1.00  0.00    -0.122 C  
BRANCH  19  20
HETATM   20  C   UNL     1      -8.169  15.191  67.418  1.00  0.00    -0.215 C  
BRANCH  20  21
HETATM   21  C   UNL     1      -7.846  16.622  66.980  1.00  0.00    -0.233 C  
BRANCH  21  22
HETATM   22  C   UNL     1      -7.315  17.448  68.155  1.00  0.00    -0.205 C  
BRANCH  22  23
HETATM   23  C   UNL     1      -7.701  18.921  68.020  1.00  0.00    -0.298 C  
BRANCH  23  24
HETATM   24  C   UNL     1      -8.417  19.200  66.697  1.00  0.00    -0.319 C  
HETATM   25  C   UNL     1      -9.795  19.781  66.921  1.00  0.00    -0.400 C  
HETATM   26  O   UNL     1     -10.299  20.011  68.007  1.00  0.00    -0.410 OA 
HETATM   27  O   UNL     1     -10.438  20.025  65.757  1.00  0.00    -0.477 OA 
ENDBRANCH  23  24
ENDBRANCH  22  23
ENDBRANCH  21  22
ENDBRANCH  20  21
ENDBRANCH  19  20
ENDBRANCH  18  19
ENDBRANCH  10  11
ENDBRANCH   6   9
ENDBRANCH   5   6
ENDBRANCH   4   5
ENDBRANCH   3   4
ENDBRANCH   2   3
TORSDOF 12
ENDMDL
MODEL       71
REMARK 921   NORMALIZED FREE ENERGY PREDICTED BY IDOCK:   -5.09 KCAL/MOL
REMARK 922        TOTAL FREE ENERGY PREDICTED BY IDOCK:  -10.60 KCAL/MOL
REMARK 923 INTER-LIGAND FREE ENERGY PREDICTED BY IDOCK:   -8.69 KCAL/MOL
REMARK 924 INTRA-LIGAND FREE ENERGY PREDICTED BY IDOCK:   -1.91 KCAL/MOL
REMARK 927      BINDING AFFINITY PREDICTED BY RF-SCORE:    0.00 PKD
ROOT
HETATM    1  C   UNL     1      -9.329  10.258  64.061  1.00  0.00    -0.337 C  
HETATM    2  C   UNL     1     -10.030  11.605  64.026  1.00  0.00    -0.328 C  
ENDROOT
BRANCH   2   3
HETATM    3  C   UNL     1     -11.446  11.500  63.458  1.00  0.00    -0.334 C  
BRANCH   3   4
HETATM    4  C   UNL     1     -12.397  12.397  64.250  1.00  0.00    -0.544 C  
BRANCH   4   5
HETATM    5  C   UNL     1     -12.595  13.766  63.596  1.00  0.00     0.014 C  
BRANCH   5   6
HETATM    6  C   UNL     1     -12.241  14.938  64.528  1.00  0.00    -0.382 C  
HETATM    7  O   UNL     1     -12.175  16.112  63.726  1.00  0.00    -1.281 OA 
HETATM    8  H   UNL     1     -11.956  16.836  64.302  1.00  0.00     0.000 HD 
BRANCH   6   9
HETATM    9  C   UNL     1     -10.944  14.723  65.278  1.00  0.00    -0.382 C  
HETATM   10  C   UNL     1     -10.135  15.667  65.787  1.00  0.00    -0.394 C  
BRANCH  10  11
HETATM   11  C   UNL     1      -8.773  15.387  66.387  1.00  0.00    -0.307 C  
HETATM   12  C   UNL     1      -8.066  16.716  66.729  1.00  0.00    -0.246 C  
HETATM   13  O   UNL     1      -7.479  17.319  65.584  1.00  0.00    -0.336 OA 
HETATM   14  C   UNL     1      -7.005  16.358  67.748  1.00  0.00    -0.157 C  
HETATM   15  H   UNL     1      -7.044  18.137  65.796  1.00  0.00     0.000 HD 
HETATM   16  C   UNL     1      -7.686  15.260  68.502  1.00  0.00    -0.128 C  
HETATM   17  O   UNL     1      -7.355  14.942  69.638  1.00  0.00    -0.183 OA 
HETATM   18  C   UNL     1      -8.802  14.590  67.714  1.00  0.00    -0.183 C  
BRANCH  18  19
HETATM   19  C   UNL     1      -8.537  13.091  67.474  1.00  0.00    -0.192 C  
BRANCH  19  20
HETATM   20  C   UNL     1      -9.506  12.158  68.213  1.00  0.00    -0.204 C  
BRANCH  20  21
HETATM   21  C   UNL     1     -10.920  12.218  67.630  1.00  0.00    -0.287 C  
BRANCH  21  22
HETATM   22  C   UNL     1     -11.856  11.250  68.360  1.00  0.00    -0.331 C  
BRANCH  22  23
HETATM   23  C   UNL     1     -11.610  11.268  69.869  1.00  0.00    -0.413 C  
BRANCH  23  24
HETATM   24  C   UNL     1     -12.312  12.448  70.542  1.00  0.00    -0.346 C  
HETATM   25  C   UNL     1     -13.133  12.003  71.731  1.00  0.00    -0.355 C  
HETATM   26  O   UNL     1     -13.239  10.856  72.129  1.00  0.00    -0.474 OA 
HETATM   27  O   UNL     1     -13.763  13.039  72.330  1.00  0.00    -0.578 OA 
ENDBRANCH  23  24
ENDBRANCH  22  23
ENDBRANCH  21  22
ENDBRANCH  20  21
ENDBRANCH  19  20
ENDBRANCH  18  19
ENDBRANCH  10  11
ENDBRANCH   6   9
ENDBRANCH   5   6
ENDBRANCH   4   5
ENDBRANCH   3   4
ENDBRANCH   2   3
TORSDOF 12
ENDMDL
MODEL       72
REMARK 921   NORMALIZED FREE ENERGY PREDICTED BY IDOCK:   -5.08 KCAL/MOL
REMARK 922        TOTAL FREE ENERGY PREDICTED BY IDOCK:  -10.60 KCAL/MOL
REMARK 923 INTER-LIGAND FREE ENERGY PREDICTED BY IDOCK:   -7.78 KCAL/MOL
REMARK 924 INTRA-LIGAND FREE ENERGY PREDICTED BY IDOCK:   -2.82 KCAL/MOL
REMARK 927      BINDING AFFINITY PREDICTED BY RF-SCORE:    0.00 PKD
ROOT
HETATM    1  C   UNL     1      -7.414   8.400  66.341  1.00  0.00    -0.083 C  
HETATM    2  C   UNL     1      -8.670   7.570  66.144  1.00  0.00    -0.174 C  
ENDROOT
BRANCH   2   3
HETATM    3  C   UNL     1      -9.256   7.092  67.474  1.00  0.00    -0.131 C  
BRANCH   3   4
HETATM    4  C   UNL     1     -10.497   7.912  67.825  1.00  0.00    -0.278 C  
BRANCH   4   5
HETATM    5  C   UNL     1     -10.330   8.705  69.123  1.00  0.00    -0.227 C  
BRANCH   5   6
HETATM    6  C   UNL     1      -9.911  10.167  68.888  1.00  0.00    -0.189 C  
HETATM    7  O   UNL     1     -10.585  10.962  69.858  1.00  0.00    -0.435 OA 
HETATM    8  H   UNL     1     -10.326  11.865  69.713  1.00  0.00     0.000 HD 
BRANCH   6   9
HETATM    9  C   UNL     1     -10.217  10.650  67.487  1.00  0.00    -0.236 C  
HETATM   10  C   UNL     1      -9.712  11.732  66.872  1.00  0.00    -0.212 C  
BRANCH  10  11
HETATM   11  C   UNL     1     -10.182  12.245  65.528  1.00  0.00    -0.296 C  
HETATM   12  C   UNL     1      -9.913  11.186  64.437  1.00  0.00    -0.301 C  
HETATM   13  O   UNL     1      -8.558  11.194  64.008  1.00  0.00    -0.378 OA 
HETATM   14  C   UNL     1     -10.838  11.541  63.292  1.00  0.00    -0.342 C  
HETATM   15  H   UNL     1      -8.392  10.543  63.337  1.00  0.00     0.000 HD 
HETATM   16  C   UNL     1     -12.028  12.065  64.034  1.00  0.00    -0.403 C  
HETATM   17  O   UNL     1     -13.145  12.108  63.531  1.00  0.00    -0.785 OA 
HETATM   18  C   UNL     1     -11.700  12.538  65.442  1.00  0.00    -0.444 C  
BRANCH  18  19
HETATM   19  C   UNL     1     -11.994  14.037  65.644  1.00  0.00    -0.408 C  
BRANCH  19  20
HETATM   20  C   UNL     1     -11.023  14.969  64.908  1.00  0.00    -0.427 C  
BRANCH  20  21
HETATM   21  C   UNL     1     -10.535  16.113  65.803  1.00  0.00    -0.384 C  
BRANCH  21  22
HETATM   22  C   UNL     1      -9.335  15.674  66.648  1.00  0.00    -0.291 C  
BRANCH  22  23
HETATM   23  C   UNL     1      -9.612  15.846  68.142  1.00  0.00    -0.208 C  
BRANCH  23  24
HETATM   24  C   UNL     1     -10.129  14.552  68.773  1.00  0.00    -0.239 C  
HETATM   25  C   UNL     1     -11.567  14.686  69.219  1.00  0.00    -0.302 C  
HETATM   26  O   UNL     1     -12.256  15.685  69.102  1.00  0.00    -0.298 OA 
HETATM   27  O   UNL     1     -12.032  13.549  69.785  1.00  0.00    -0.310 OA 
ENDBRANCH  23  24
ENDBRANCH  22  23
ENDBRANCH  21  22
ENDBRANCH  20  21
ENDBRANCH  19  20
ENDBRANCH  18  19
ENDBRANCH  10  11
ENDBRANCH   6   9
ENDBRANCH   5   6
ENDBRANCH   4   5
ENDBRANCH   3   4
ENDBRANCH   2   3
TORSDOF 12
ENDMDL
MODEL       73
REMARK 921   NORMALIZED FREE ENERGY PREDICTED BY IDOCK:   -5.08 KCAL/MOL
REMARK 922        TOTAL FREE ENERGY PREDICTED BY IDOCK:  -10.58 KCAL/MOL
REMARK 923 INTER-LIGAND FREE ENERGY PREDICTED BY IDOCK:   -8.16 KCAL/MOL
REMARK 924 INTRA-LIGAND FREE ENERGY PREDICTED BY IDOCK:   -2.43 KCAL/MOL
REMARK 927      BINDING AFFINITY PREDICTED BY RF-SCORE:    0.00 PKD
ROOT
HETATM    1  C   UNL     1      -8.180  13.232  68.368  1.00  0.00    -0.134 C  
HETATM    2  C   UNL     1      -8.392  13.925  67.034  1.00  0.00    -0.113 C  
ENDROOT
BRANCH   2   3
HETATM    3  C   UNL     1      -9.836  14.400  66.858  1.00  0.00    -0.263 C  
BRANCH   3   4
HETATM    4  C   UNL     1     -10.805  13.263  67.179  1.00  0.00    -0.268 C  
BRANCH   4   5
HETATM    5  C   UNL     1     -11.958  13.710  68.081  1.00  0.00    -0.390 C  
BRANCH   5   6
HETATM    6  C   UNL     1     -12.027  12.931  69.405  1.00  0.00    -0.269 C  
HETATM    7  O   UNL     1     -11.399  13.732  70.401  1.00  0.00    -0.499 OA 
HETATM    8  H   UNL     1     -11.441  13.250  71.220  1.00  0.00     0.000 HD 
BRANCH   6   9
HETATM    9  C   UNL     1     -11.375  11.567  69.321  1.00  0.00    -0.353 C  
HETATM   10  C   UNL     1     -11.308  10.638  70.288  1.00  0.00    -0.401 C  
BRANCH  10  11
HETATM   11  C   UNL     1     -10.504   9.359  70.187  1.00  0.00    -0.280 C  
HETATM   12  C   UNL     1     -11.020   8.330  71.214  1.00  0.00    -0.243 C  
HETATM   13  O   UNL     1     -10.522   8.584  72.521  1.00  0.00    -0.317 OA 
HETATM   14  C   UNL     1     -10.543   6.984  70.713  1.00  0.00    -0.240 C  
HETATM   15  H   UNL     1     -10.839   7.950  73.153  1.00  0.00     0.000 HD 
HETATM   16  C   UNL     1     -10.625   7.181  69.231  1.00  0.00    -0.221 C  
HETATM   17  O   UNL     1     -10.699   6.241  68.449  1.00  0.00    -0.230 OA 
HETATM   18  C   UNL     1     -10.596   8.645  68.816  1.00  0.00    -0.169 C  
BRANCH  18  19
HETATM   19  C   UNL     1      -9.384   8.980  67.926  1.00  0.00    -0.155 C  
BRANCH  19  20
HETATM   20  C   UNL     1      -9.742   9.256  66.459  1.00  0.00    -0.305 C  
BRANCH  20  21
HETATM   21  C   UNL     1      -8.948  10.433  65.886  1.00  0.00    -0.182 C  
BRANCH  21  22
HETATM   22  C   UNL     1      -9.289  10.657  64.409  1.00  0.00    -0.291 C  
BRANCH  22  23
HETATM   23  C   UNL     1     -10.769  10.995  64.223  1.00  0.00    -0.348 C  
BRANCH  23  24
HETATM   24  C   UNL     1     -10.957  12.341  63.522  1.00  0.00    -0.521 C  
HETATM   25  C   UNL     1     -12.346  12.896  63.746  1.00  0.00    -0.417 C  
HETATM   26  O   UNL     1     -13.225  12.362  64.400  1.00  0.00    -0.816 OA 
HETATM   27  O   UNL     1     -12.525  14.084  63.125  1.00  0.00    -0.733 OA 
ENDBRANCH  23  24
ENDBRANCH  22  23
ENDBRANCH  21  22
ENDBRANCH  20  21
ENDBRANCH  19  20
ENDBRANCH  18  19
ENDBRANCH  10  11
ENDBRANCH   6   9
ENDBRANCH   5   6
ENDBRANCH   4   5
ENDBRANCH   3   4
ENDBRANCH   2   3
TORSDOF 12
ENDMDL
MODEL       74
REMARK 921   NORMALIZED FREE ENERGY PREDICTED BY IDOCK:   -5.07 KCAL/MOL
REMARK 922        TOTAL FREE ENERGY PREDICTED BY IDOCK:  -10.58 KCAL/MOL
REMARK 923 INTER-LIGAND FREE ENERGY PREDICTED BY IDOCK:   -9.26 KCAL/MOL
REMARK 924 INTRA-LIGAND FREE ENERGY PREDICTED BY IDOCK:   -1.33 KCAL/MOL
REMARK 927      BINDING AFFINITY PREDICTED BY RF-SCORE:    0.00 PKD
ROOT
HETATM    1  C   UNL     1     -10.841   5.049  73.299  1.00  0.00    -0.356 C  
HETATM    2  C   UNL     1     -11.461   6.137  72.441  1.00  0.00    -0.349 C  
ENDROOT
BRANCH   2   3
HETATM    3  C   UNL     1     -11.224   7.532  73.022  1.00  0.00    -0.373 C  
BRANCH   3   4
HETATM    4  C   UNL     1     -10.438   8.387  72.029  1.00  0.00    -0.384 C  
BRANCH   4   5
HETATM    5  C   UNL     1     -11.325   8.977  70.930  1.00  0.00    -0.351 C  
BRANCH   5   6
HETATM    6  C   UNL     1     -12.485   9.825  71.479  1.00  0.00    -0.403 C  
HETATM    7  O   UNL     1     -13.687   9.321  70.906  1.00  0.00    -0.591 OA 
HETATM    8  H   UNL     1     -14.404   9.845  71.245  1.00  0.00     0.000 HD 
BRANCH   6   9
HETATM    9  C   UNL     1     -12.326  11.301  71.186  1.00  0.00    -0.429 C  
HETATM   10  C   UNL     1     -13.002  12.318  71.746  1.00  0.00    -0.431 C  
BRANCH  10  11
HETATM   11  C   UNL     1     -12.903  13.758  71.292  1.00  0.00    -0.434 C  
HETATM   12  C   UNL     1     -12.585  14.669  72.497  1.00  0.00    -0.330 C  
HETATM   13  O   UNL     1     -13.742  14.954  73.272  1.00  0.00    -0.558 OA 
HETATM   14  C   UNL     1     -12.014  15.939  71.903  1.00  0.00    -0.588 C  
HETATM   15  H   UNL     1     -13.545  15.514  74.013  1.00  0.00     0.000 HD 
HETATM   16  C   UNL     1     -11.275  15.399  70.720  1.00  0.00    -0.346 C  
HETATM   17  O   UNL     1     -10.363  16.015  70.180  1.00  0.00    -0.253 OA 
HETATM   18  C   UNL     1     -11.779  14.037  70.265  1.00  0.00    -0.308 C  
BRANCH  18  19
HETATM   19  C   UNL     1     -12.328  14.063  68.825  1.00  0.00    -0.074 C  
BRANCH  19  20
HETATM   20  C   UNL     1     -11.926  12.846  67.981  1.00  0.00    -0.323 C  
BRANCH  20  21
HETATM   21  C   UNL     1     -11.071  13.240  66.774  1.00  0.00    -0.313 C  
BRANCH  21  22
HETATM   22  C   UNL     1      -9.585  13.284  67.145  1.00  0.00    -0.240 C  
BRANCH  22  23
HETATM   23  C   UNL     1      -9.048  14.715  67.128  1.00  0.00    -0.236 C  
BRANCH  23  24
HETATM   24  C   UNL     1     -10.121  15.716  66.697  1.00  0.00    -0.280 C  
HETATM   25  C   UNL     1      -9.520  16.897  65.969  1.00  0.00    -0.195 C  
HETATM   26  O   UNL     1      -8.334  17.058  65.737  1.00  0.00    -0.500 OA 
HETATM   27  O   UNL     1     -10.459  17.792  65.589  1.00  0.00    -0.613 OA 
ENDBRANCH  23  24
ENDBRANCH  22  23
ENDBRANCH  21  22
ENDBRANCH  20  21
ENDBRANCH  19  20
ENDBRANCH  18  19
ENDBRANCH  10  11
ENDBRANCH   6   9
ENDBRANCH   5   6
ENDBRANCH   4   5
ENDBRANCH   3   4
ENDBRANCH   2   3
TORSDOF 12
ENDMDL
MODEL       75
REMARK 921   NORMALIZED FREE ENERGY PREDICTED BY IDOCK:   -5.06 KCAL/MOL
REMARK 922        TOTAL FREE ENERGY PREDICTED BY IDOCK:  -10.56 KCAL/MOL
REMARK 923 INTER-LIGAND FREE ENERGY PREDICTED BY IDOCK:   -8.65 KCAL/MOL
REMARK 924 INTRA-LIGAND FREE ENERGY PREDICTED BY IDOCK:   -1.91 KCAL/MOL
REMARK 927      BINDING AFFINITY PREDICTED BY RF-SCORE:    0.00 PKD
ROOT
HETATM    1  C   UNL     1     -12.810  10.386  71.238  1.00  0.00    -0.533 C  
HETATM    2  C   UNL     1     -13.261   9.303  72.202  1.00  0.00    -0.535 C  
ENDROOT
BRANCH   2   3
HETATM    3  C   UNL     1     -12.193   8.225  72.394  1.00  0.00    -0.412 C  
BRANCH   3   4
HETATM    4  C   UNL     1     -12.540   6.990  71.565  1.00  0.00    -0.426 C  
BRANCH   4   5
HETATM    5  C   UNL     1     -11.298   6.223  71.104  1.00  0.00    -0.364 C  
BRANCH   5   6
HETATM    6  C   UNL     1     -11.090   6.270  69.581  1.00  0.00    -0.412 C  
HETATM    7  O   UNL     1     -10.090   5.309  69.260  1.00  0.00    -0.194 OA 
HETATM    8  H   UNL     1      -9.961   5.338  68.319  1.00  0.00     0.000 HD 
BRANCH   6   9
HETATM    9  C   UNL     1     -10.697   7.644  69.082  1.00  0.00    -0.153 C  
HETATM   10  C   UNL     1     -10.639   8.059  67.806  1.00  0.00    -0.239 C  
BRANCH  10  11
HETATM   11  C   UNL     1     -10.086   9.399  67.370  1.00  0.00    -0.271 C  
HETATM   12  C   UNL     1     -10.681  10.523  68.244  1.00  0.00    -0.229 C  
HETATM   13  O   UNL     1     -11.991  10.887  67.829  1.00  0.00    -0.691 OA 
HETATM   14  C   UNL     1      -9.731  11.693  68.100  1.00  0.00    -0.189 C  
HETATM   15  H   UNL     1     -12.356  11.579  68.367  1.00  0.00     0.000 HD 
HETATM   16  C   UNL     1      -8.418  10.986  67.978  1.00  0.00    -0.129 C  
HETATM   17  O   UNL     1      -7.351  11.538  68.224  1.00  0.00    -0.080 OA 
HETATM   18  C   UNL     1      -8.551   9.543  67.514  1.00  0.00    -0.126 C  
BRANCH  18  19
HETATM   19  C   UNL     1      -7.836   9.286  66.174  1.00  0.00    -0.099 C  
BRANCH  19  20
HETATM   20  C   UNL     1      -8.112  10.350  65.103  1.00  0.00    -0.145 C  
BRANCH  20  21
HETATM   21  C   UNL     1      -8.630   9.733  63.800  1.00  0.00    -0.208 C  
BRANCH  21  22
HETATM   22  C   UNL     1      -9.782  10.560  63.222  1.00  0.00    -0.361 C  
BRANCH  22  23
HETATM   23  C   UNL     1     -10.535  11.312  64.320  1.00  0.00    -0.419 C  
BRANCH  23  24
HETATM   24  C   UNL     1     -10.861  12.747  63.900  1.00  0.00    -0.447 C  
HETATM   25  C   UNL     1     -12.335  13.049  64.053  1.00  0.00    -0.363 C  
HETATM   26  O   UNL     1     -13.180  12.270  64.458  1.00  0.00    -0.799 OA 
HETATM   27  O   UNL     1     -12.636  14.313  63.679  1.00  0.00    -0.831 OA 
ENDBRANCH  23  24
ENDBRANCH  22  23
ENDBRANCH  21  22
ENDBRANCH  20  21
ENDBRANCH  19  20
ENDBRANCH  18  19
ENDBRANCH  10  11
ENDBRANCH   6   9
ENDBRANCH   5   6
ENDBRANCH   4   5
ENDBRANCH   3   4
ENDBRANCH   2   3
TORSDOF 12
ENDMDL
MODEL       76
REMARK 921   NORMALIZED FREE ENERGY PREDICTED BY IDOCK:   -5.01 KCAL/MOL
REMARK 922        TOTAL FREE ENERGY PREDICTED BY IDOCK:  -10.48 KCAL/MOL
REMARK 923 INTER-LIGAND FREE ENERGY PREDICTED BY IDOCK:   -8.36 KCAL/MOL
REMARK 924 INTRA-LIGAND FREE ENERGY PREDICTED BY IDOCK:   -2.11 KCAL/MOL
REMARK 927      BINDING AFFINITY PREDICTED BY RF-SCORE:    0.00 PKD
ROOT
HETATM    1  C   UNL     1      -8.950   9.770  63.788  1.00  0.00    -0.272 C  
HETATM    2  C   UNL     1      -9.526  11.078  64.299  1.00  0.00    -0.270 C  
ENDROOT
BRANCH   2   3
HETATM    3  C   UNL     1     -10.596  11.640  63.361  1.00  0.00    -0.472 C  
BRANCH   3   4
HETATM    4  C   UNL     1     -11.743  12.239  64.173  1.00  0.00    -0.481 C  
BRANCH   4   5
HETATM    5  C   UNL     1     -12.319  13.504  63.533  1.00  0.00    -0.343 C  
BRANCH   5   6
HETATM    6  C   UNL     1     -12.245  14.734  64.454  1.00  0.00    -0.428 C  
HETATM    7  O   UNL     1     -12.244  15.888  63.620  1.00  0.00    -1.156 OA 
HETATM    8  H   UNL     1     -12.199  16.648  64.189  1.00  0.00     0.000 HD 
BRANCH   6   9
HETATM    9  C   UNL     1     -11.032  14.722  65.358  1.00  0.00    -0.365 C  
HETATM   10  C   UNL     1     -10.098  15.679  65.477  1.00  0.00    -0.395 C  
BRANCH  10  11
HETATM   11  C   UNL     1      -8.825  15.533  66.284  1.00  0.00    -0.338 C  
HETATM   12  C   UNL     1      -8.351  16.916  66.776  1.00  0.00    -0.235 C  
HETATM   13  O   UNL     1      -7.668  17.639  65.760  1.00  0.00    -0.540 OA 
HETATM   14  C   UNL     1      -7.430  16.637  67.944  1.00  0.00    -0.169 C  
HETATM   15  H   UNL     1      -7.375  18.491  66.063  1.00  0.00     0.000 HD 
HETATM   16  C   UNL     1      -8.082  15.432  68.545  1.00  0.00    -0.142 C  
HETATM   17  O   UNL     1      -7.899  15.101  69.711  1.00  0.00    -0.198 OA 
HETATM   18  C   UNL     1      -8.967  14.675  67.566  1.00  0.00    -0.193 C  
BRANCH  18  19
HETATM   19  C   UNL     1      -8.485  13.231  67.330  1.00  0.00    -0.206 C  
BRANCH  19  20
HETATM   20  C   UNL     1      -9.269  12.172  68.118  1.00  0.00    -0.197 C  
BRANCH  20  21
HETATM   21  C   UNL     1     -10.723  12.066  67.648  1.00  0.00    -0.252 C  
BRANCH  21  22
HETATM   22  C   UNL     1     -11.345  10.738  68.087  1.00  0.00    -0.377 C  
BRANCH  22  23
HETATM   23  C   UNL     1     -10.541   9.546  67.568  1.00  0.00    -0.338 C  
BRANCH  23  24
HETATM   24  C   UNL     1     -10.436   8.435  68.614  1.00  0.00    -0.197 C  
HETATM   25  C   UNL     1     -10.723   7.077  68.015  1.00  0.00    -0.194 C  
HETATM   26  O   UNL     1     -11.003   6.862  66.848  1.00  0.00    -0.377 OA 
HETATM   27  O   UNL     1     -10.639   6.088  68.933  1.00  0.00    -0.227 OA 
ENDBRANCH  23  24
ENDBRANCH  22  23
ENDBRANCH  21  22
ENDBRANCH  20  21
ENDBRANCH  19  20
ENDBRANCH  18  19
ENDBRANCH  10  11
ENDBRANCH   6   9
ENDBRANCH   5   6
ENDBRANCH   4   5
ENDBRANCH   3   4
ENDBRANCH   2   3
TORSDOF 12
ENDMDL
MODEL       77
REMARK 921   NORMALIZED FREE ENERGY PREDICTED BY IDOCK:   -5.01 KCAL/MOL
REMARK 922        TOTAL FREE ENERGY PREDICTED BY IDOCK:  -10.47 KCAL/MOL
REMARK 923 INTER-LIGAND FREE ENERGY PREDICTED BY IDOCK:   -8.34 KCAL/MOL
REMARK 924 INTRA-LIGAND FREE ENERGY PREDICTED BY IDOCK:   -2.13 KCAL/MOL
REMARK 927      BINDING AFFINITY PREDICTED BY RF-SCORE:    0.00 PKD
ROOT
HETATM    1  C   UNL     1     -11.047   7.546  73.075  1.00  0.00    -0.413 C  
HETATM    2  C   UNL     1     -12.256   8.301  72.553  1.00  0.00    -0.367 C  
ENDROOT
BRANCH   2   3
HETATM    3  C   UNL     1     -11.952   9.041  71.249  1.00  0.00    -0.374 C  
BRANCH   3   4
HETATM    4  C   UNL     1     -12.433  10.488  71.343  1.00  0.00    -0.516 C  
BRANCH   4   5
HETATM    5  C   UNL     1     -11.864  11.371  70.230  1.00  0.00    -0.438 C  
BRANCH   5   6
HETATM    6  C   UNL     1     -10.938  10.608  69.267  1.00  0.00    -0.245 C  
HETATM    7  O   UNL     1      -9.605  10.782  69.734  1.00  0.00    -0.411 OA 
HETATM    8  H   UNL     1      -9.033  10.311  69.139  1.00  0.00     0.000 HD 
BRANCH   6   9
HETATM    9  C   UNL     1     -11.071  11.070  67.832  1.00  0.00    -0.347 C  
HETATM   10  C   UNL     1     -10.081  11.257  66.944  1.00  0.00    -0.246 C  
BRANCH  10  11
HETATM   11  C   UNL     1     -10.271  11.872  65.574  1.00  0.00    -0.290 C  
HETATM   12  C   UNL     1     -10.070  10.799  64.483  1.00  0.00    -0.350 C  
HETATM   13  O   UNL     1      -8.694  10.553  64.223  1.00  0.00    -0.183 OA 
HETATM   14  C   UNL     1     -10.757  11.343  63.249  1.00  0.00    -0.332 C  
HETATM   15  H   UNL     1      -8.570   9.893  63.551  1.00  0.00     0.000 HD 
HETATM   16  C   UNL     1     -11.912  12.073  63.859  1.00  0.00    -0.443 C  
HETATM   17  O   UNL     1     -12.928  12.338  63.227  1.00  0.00    -0.707 OA 
HETATM   18  C   UNL     1     -11.683  12.452  65.315  1.00  0.00    -0.437 C  
BRANCH  18  19
HETATM   19  C   UNL     1     -11.713  13.976  65.539  1.00  0.00    -0.353 C  
BRANCH  19  20
HETATM   20  C   UNL     1     -12.034  14.390  66.982  1.00  0.00    -0.424 C  
BRANCH  20  21
HETATM   21  C   UNL     1     -10.825  15.016  67.683  1.00  0.00    -0.291 C  
BRANCH  21  22
HETATM   22  C   UNL     1      -9.731  15.376  66.673  1.00  0.00    -0.269 C  
BRANCH  22  23
HETATM   23  C   UNL     1      -8.336  15.169  67.263  1.00  0.00    -0.225 C  
BRANCH  23  24
HETATM   24  C   UNL     1      -8.302  13.982  68.228  1.00  0.00    -0.162 C  
HETATM   25  C   UNL     1      -6.950  13.305  68.229  1.00  0.00    -0.107 C  
HETATM   26  O   UNL     1      -5.989  13.640  67.558  1.00  0.00    -0.309 OA 
HETATM   27  O   UNL     1      -6.910  12.250  69.075  1.00  0.00    -0.097 OA 
ENDBRANCH  23  24
ENDBRANCH  22  23
ENDBRANCH  21  22
ENDBRANCH  20  21
ENDBRANCH  19  20
ENDBRANCH  18  19
ENDBRANCH  10  11
ENDBRANCH   6   9
ENDBRANCH   5   6
ENDBRANCH   4   5
ENDBRANCH   3   4
ENDBRANCH   2   3
TORSDOF 12
ENDMDL
MODEL       78
REMARK 921   NORMALIZED FREE ENERGY PREDICTED BY IDOCK:   -5.00 KCAL/MOL
REMARK 922        TOTAL FREE ENERGY PREDICTED BY IDOCK:  -10.46 KCAL/MOL
REMARK 923 INTER-LIGAND FREE ENERGY PREDICTED BY IDOCK:   -8.07 KCAL/MOL
REMARK 924 INTRA-LIGAND FREE ENERGY PREDICTED BY IDOCK:   -2.39 KCAL/MOL
REMARK 927      BINDING AFFINITY PREDICTED BY RF-SCORE:    0.00 PKD
ROOT
HETATM    1  C   UNL     1      -7.298  14.958  69.743  1.00  0.00    -0.100 C  
HETATM    2  C   UNL     1      -7.796  15.825  68.601  1.00  0.00    -0.156 C  
ENDROOT
BRANCH   2   3
HETATM    3  C   UNL     1      -8.080  15.006  67.340  1.00  0.00    -0.216 C  
BRANCH   3   4
HETATM    4  C   UNL     1      -9.342  14.168  67.532  1.00  0.00    -0.204 C  
BRANCH   4   5
HETATM    5  C   UNL     1     -10.624  14.986  67.362  1.00  0.00    -0.271 C  
BRANCH   5   6
HETATM    6  C   UNL     1     -11.818  14.406  68.138  1.00  0.00    -0.327 C  
HETATM    7  O   UNL     1     -12.402  15.475  68.876  1.00  0.00    -0.602 OA 
HETATM    8  H   UNL     1     -13.141  15.117  69.356  1.00  0.00     0.000 HD 
BRANCH   6   9
HETATM    9  C   UNL     1     -11.429  13.268  69.055  1.00  0.00    -0.350 C  
HETATM   10  C   UNL     1     -12.155  12.177  69.350  1.00  0.00    -0.247 C  
BRANCH  10  11
HETATM   11  C   UNL     1     -11.770  11.155  70.398  1.00  0.00    -0.415 C  
HETATM   12  C   UNL     1     -13.024  10.695  71.171  1.00  0.00    -0.387 C  
HETATM   13  O   UNL     1     -13.408  11.630  72.170  1.00  0.00    -0.576 OA 
HETATM   14  C   UNL     1     -12.650   9.368  71.796  1.00  0.00    -0.470 C  
HETATM   15  H   UNL     1     -14.180  11.347  72.646  1.00  0.00     0.000 HD 
HETATM   16  C   UNL     1     -11.745   8.799  70.748  1.00  0.00    -0.219 C  
HETATM   17  O   UNL     1     -11.520   7.598  70.660  1.00  0.00    -0.282 OA 
HETATM   18  C   UNL     1     -11.142   9.856  69.835  1.00  0.00    -0.318 C  
BRANCH  18  19
HETATM   19  C   UNL     1      -9.604   9.895  69.915  1.00  0.00    -0.265 C  
BRANCH  19  20
HETATM   20  C   UNL     1      -8.900   9.600  68.584  1.00  0.00    -0.128 C  
BRANCH  20  21
HETATM   21  C   UNL     1      -9.757  10.000  67.379  1.00  0.00    -0.196 C  
BRANCH  21  22
HETATM   22  C   UNL     1      -8.897  10.633  66.281  1.00  0.00    -0.172 C  
BRANCH  22  23
HETATM   23  C   UNL     1      -9.749  11.079  65.093  1.00  0.00    -0.302 C  
BRANCH  23  24
HETATM   24  C   UNL     1     -11.094  11.652  65.545  1.00  0.00    -0.297 C  
HETATM   25  C   UNL     1     -11.809  12.353  64.412  1.00  0.00    -0.389 C  
HETATM   26  O   UNL     1     -11.394  12.462  63.271  1.00  0.00    -0.437 OA 
HETATM   27  O   UNL     1     -12.997  12.869  64.803  1.00  0.00    -0.743 OA 
ENDBRANCH  23  24
ENDBRANCH  22  23
ENDBRANCH  21  22
ENDBRANCH  20  21
ENDBRANCH  19  20
ENDBRANCH  18  19
ENDBRANCH  10  11
ENDBRANCH   6   9
ENDBRANCH   5   6
ENDBRANCH   4   5
ENDBRANCH   3   4
ENDBRANCH   2   3
TORSDOF 12
ENDMDL
MODEL       79
REMARK 921   NORMALIZED FREE ENERGY PREDICTED BY IDOCK:   -4.97 KCAL/MOL
REMARK 922        TOTAL FREE ENERGY PREDICTED BY IDOCK:  -10.41 KCAL/MOL
REMARK 923 INTER-LIGAND FREE ENERGY PREDICTED BY IDOCK:   -8.83 KCAL/MOL
REMARK 924 INTRA-LIGAND FREE ENERGY PREDICTED BY IDOCK:   -1.58 KCAL/MOL
REMARK 927      BINDING AFFINITY PREDICTED BY RF-SCORE:    0.00 PKD
ROOT
HETATM    1  C   UNL     1     -12.776  13.812  65.506  1.00  0.00    -0.530 C  
HETATM    2  C   UNL     1     -12.309  13.917  64.065  1.00  0.00    -0.355 C  
ENDROOT
BRANCH   2   3
HETATM    3  C   UNL     1     -12.147  12.542  63.413  1.00  0.00    -0.621 C  
BRANCH   3   4
HETATM    4  C   UNL     1     -11.346  11.618  64.329  1.00  0.00    -0.361 C  
BRANCH   4   5
HETATM    5  C   UNL     1      -9.935  12.143  64.606  1.00  0.00    -0.227 C  
BRANCH   5   6
HETATM    6  C   UNL     1      -9.488  11.933  66.063  1.00  0.00    -0.229 C  
HETATM    7  O   UNL     1     -10.434  11.063  66.675  1.00  0.00    -0.238 OA 
HETATM    8  H   UNL     1     -10.157  10.933  67.575  1.00  0.00     0.000 HD 
BRANCH   6   9
HETATM    9  C   UNL     1      -9.368  13.229  66.835  1.00  0.00    -0.244 C  
HETATM   10  C   UNL     1      -9.251  14.468  66.330  1.00  0.00    -0.231 C  
BRANCH  10  11
HETATM   11  C   UNL     1      -8.977  15.704  67.160  1.00  0.00    -0.232 C  
HETATM   12  C   UNL     1      -7.786  16.485  66.564  1.00  0.00    -0.303 C  
HETATM   13  O   UNL     1      -6.537  15.916  66.930  1.00  0.00    -0.282 OA 
HETATM   14  C   UNL     1      -7.913  17.892  67.108  1.00  0.00    -0.225 C  
HETATM   15  H   UNL     1      -5.804  16.397  66.563  1.00  0.00     0.000 HD 
HETATM   16  C   UNL     1      -9.400  18.047  67.165  1.00  0.00    -0.259 C  
HETATM   17  O   UNL     1      -9.943  19.146  67.182  1.00  0.00    -0.325 OA 
HETATM   18  C   UNL     1     -10.143  16.721  67.212  1.00  0.00    -0.281 C  
BRANCH  18  19
HETATM   19  C   UNL     1     -10.975  16.556  68.498  1.00  0.00    -0.350 C  
BRANCH  19  20
HETATM   20  C   UNL     1     -11.614  15.169  68.656  1.00  0.00    -0.358 C  
BRANCH  20  21
HETATM   21  C   UNL     1     -11.588  14.686  70.109  1.00  0.00    -0.336 C  
BRANCH  21  22
HETATM   22  C   UNL     1     -12.272  13.322  70.246  1.00  0.00    -0.391 C  
BRANCH  22  23
HETATM   23  C   UNL     1     -13.057  13.221  71.553  1.00  0.00    -0.414 C  
BRANCH  23  24
HETATM   24  C   UNL     1     -13.704  14.555  71.929  1.00  0.00    -0.516 C  
HETATM   25  C   UNL     1     -13.116  15.120  73.203  1.00  0.00    -0.516 C  
HETATM   26  O   UNL     1     -12.236  14.602  73.867  1.00  0.00    -0.412 OA 
HETATM   27  O   UNL     1     -13.686  16.297  73.547  1.00  0.00    -0.595 OA 
ENDBRANCH  23  24
ENDBRANCH  22  23
ENDBRANCH  21  22
ENDBRANCH  20  21
ENDBRANCH  19  20
ENDBRANCH  18  19
ENDBRANCH  10  11
ENDBRANCH   6   9
ENDBRANCH   5   6
ENDBRANCH   4   5
ENDBRANCH   3   4
ENDBRANCH   2   3
TORSDOF 12
ENDMDL
MODEL       80
REMARK 921   NORMALIZED FREE ENERGY PREDICTED BY IDOCK:   -4.97 KCAL/MOL
REMARK 922        TOTAL FREE ENERGY PREDICTED BY IDOCK:  -10.41 KCAL/MOL
REMARK 923 INTER-LIGAND FREE ENERGY PREDICTED BY IDOCK:   -8.88 KCAL/MOL
REMARK 924 INTRA-LIGAND FREE ENERGY PREDICTED BY IDOCK:   -1.53 KCAL/MOL
REMARK 927      BINDING AFFINITY PREDICTED BY RF-SCORE:    0.00 PKD
ROOT
HETATM    1  C   UNL     1     -10.561   6.227  68.075  1.00  0.00    -0.326 C  
HETATM    2  C   UNL     1     -10.394   5.155  69.137  1.00  0.00    -0.226 C  
ENDROOT
BRANCH   2   3
HETATM    3  C   UNL     1     -10.607   5.706  70.548  1.00  0.00    -0.354 C  
BRANCH   3   4
HETATM    4  C   UNL     1     -11.851   6.592  70.582  1.00  0.00    -0.443 C  
BRANCH   4   5
HETATM    5  C   UNL     1     -12.245   6.999  72.004  1.00  0.00    -0.317 C  
BRANCH   5   6
HETATM    6  C   UNL     1     -12.200   8.520  72.232  1.00  0.00    -0.389 C  
HETATM    7  O   UNL     1     -13.472   8.909  72.740  1.00  0.00    -0.708 OA 
HETATM    8  H   UNL     1     -13.444   9.849  72.881  1.00  0.00     0.000 HD 
BRANCH   6   9
HETATM    9  C   UNL     1     -11.860   9.294  70.977  1.00  0.00    -0.376 C  
HETATM   10  C   UNL     1     -10.670   9.821  70.645  1.00  0.00    -0.394 C  
BRANCH  10  11
HETATM   11  C   UNL     1     -10.441  10.719  69.448  1.00  0.00    -0.229 C  
HETATM   12  C   UNL     1      -9.907   9.888  68.261  1.00  0.00    -0.147 C  
HETATM   13  O   UNL     1      -8.516   9.624  68.377  1.00  0.00    -0.116 OA 
HETATM   14  C   UNL     1     -10.193  10.717  67.027  1.00  0.00    -0.267 C  
HETATM   15  H   UNL     1      -8.188   9.113  67.646  1.00  0.00     0.000 HD 
HETATM   16  C   UNL     1     -11.485  11.368  67.409  1.00  0.00    -0.251 C  
HETATM   17  O   UNL     1     -12.263  11.818  66.575  1.00  0.00    -0.348 OA 
HETATM   18  C   UNL     1     -11.713  11.421  68.912  1.00  0.00    -0.409 C  
BRANCH  18  19
HETATM   19  C   UNL     1     -11.823  12.863  69.442  1.00  0.00    -0.371 C  
BRANCH  19  20
HETATM   20  C   UNL     1     -10.761  13.819  68.881  1.00  0.00    -0.249 C  
BRANCH  20  21
HETATM   21  C   UNL     1     -11.371  14.878  67.958  1.00  0.00    -0.337 C  
BRANCH  21  22
HETATM   22  C   UNL     1     -10.379  15.291  66.867  1.00  0.00    -0.278 C  
BRANCH  22  23
HETATM   23  C   UNL     1     -11.000  15.174  65.475  1.00  0.00    -0.370 C  
BRANCH  23  24
HETATM   24  C   UNL     1     -10.594  13.871  64.783  1.00  0.00    -0.444 C  
HETATM   25  C   UNL     1     -11.607  13.456  63.740  1.00  0.00    -0.313 C  
HETATM   26  O   UNL     1     -12.627  14.063  63.461  1.00  0.00    -0.842 OA 
HETATM   27  O   UNL     1     -11.261  12.302  63.126  1.00  0.00    -0.370 OA 
ENDBRANCH  23  24
ENDBRANCH  22  23
ENDBRANCH  21  22
ENDBRANCH  20  21
ENDBRANCH  19  20
ENDBRANCH  18  19
ENDBRANCH  10  11
ENDBRANCH   6   9
ENDBRANCH   5   6
ENDBRANCH   4   5
ENDBRANCH   3   4
ENDBRANCH   2   3
TORSDOF 12
ENDMDL
MODEL       81
REMARK 921   NORMALIZED FREE ENERGY PREDICTED BY IDOCK:   -4.96 KCAL/MOL
REMARK 922        TOTAL FREE ENERGY PREDICTED BY IDOCK:  -10.39 KCAL/MOL
REMARK 923 INTER-LIGAND FREE ENERGY PREDICTED BY IDOCK:   -8.40 KCAL/MOL
REMARK 924 INTRA-LIGAND FREE ENERGY PREDICTED BY IDOCK:   -1.99 KCAL/MOL
REMARK 927      BINDING AFFINITY PREDICTED BY RF-SCORE:    0.00 PKD
ROOT
HETATM    1  C   UNL     1      -7.713  10.151  64.677  1.00  0.00    -0.141 C  
HETATM    2  C   UNL     1      -8.935   9.254  64.600  1.00  0.00    -0.202 C  
ENDROOT
BRANCH   2   3
HETATM    3  C   UNL     1      -9.441   8.855  65.988  1.00  0.00    -0.320 C  
BRANCH   3   4
HETATM    4  C   UNL     1      -8.602   7.705  66.542  1.00  0.00    -0.142 C  
BRANCH   4   5
HETATM    5  C   UNL     1      -9.172   6.332  66.180  1.00  0.00    -0.143 C  
BRANCH   5   6
HETATM    6  C   UNL     1     -10.256   5.851  67.160  1.00  0.00    -0.203 C  
HETATM    7  O   UNL     1     -11.511   5.982  66.501  1.00  0.00    -0.674 OA 
HETATM    8  H   UNL     1     -12.181   5.685  67.106  1.00  0.00     0.000 HD 
BRANCH   6   9
HETATM    9  C   UNL     1     -10.251   6.615  68.466  1.00  0.00    -0.185 C  
HETATM   10  C   UNL     1     -11.254   6.713  69.354  1.00  0.00    -0.356 C  
BRANCH  10  11
HETATM   11  C   UNL     1     -11.234   7.623  70.564  1.00  0.00    -0.275 C  
HETATM   12  C   UNL     1     -11.505   6.804  71.843  1.00  0.00    -0.282 C  
HETATM   13  O   UNL     1     -12.889   6.533  72.022  1.00  0.00    -0.499 OA 
HETATM   14  C   UNL     1     -10.974   7.646  72.983  1.00  0.00    -0.457 C  
HETATM   15  H   UNL     1     -13.055   6.029  72.810  1.00  0.00     0.000 HD 
HETATM   16  C   UNL     1      -9.793   8.298  72.335  1.00  0.00    -0.304 C  
HETATM   17  O   UNL     1      -8.861   8.759  72.984  1.00  0.00    -0.340 OA 
HETATM   18  C   UNL     1      -9.883   8.335  70.817  1.00  0.00    -0.205 C  
BRANCH  18  19
HETATM   19  C   UNL     1      -9.893   9.772  70.261  1.00  0.00    -0.296 C  
BRANCH  19  20
HETATM   20  C   UNL     1     -11.297  10.322  69.973  1.00  0.00    -0.370 C  
BRANCH  20  21
HETATM   21  C   UNL     1     -11.457  10.752  68.513  1.00  0.00    -0.362 C  
BRANCH  21  22
HETATM   22  C   UNL     1     -11.326  12.272  68.372  1.00  0.00    -0.340 C  
BRANCH  22  23
HETATM   23  C   UNL     1     -11.928  12.764  67.056  1.00  0.00    -0.364 C  
BRANCH  23  24
HETATM   24  C   UNL     1     -11.169  12.217  65.846  1.00  0.00    -0.384 C  
HETATM   25  C   UNL     1     -12.050  12.151  64.619  1.00  0.00    -0.311 C  
HETATM   26  O   UNL     1     -13.221  12.486  64.568  1.00  0.00    -0.832 OA 
HETATM   27  O   UNL     1     -11.389  11.662  63.545  1.00  0.00    -0.417 OA 
ENDBRANCH  23  24
ENDBRANCH  22  23
ENDBRANCH  21  22
ENDBRANCH  20  21
ENDBRANCH  19  20
ENDBRANCH  18  19
ENDBRANCH  10  11
ENDBRANCH   6   9
ENDBRANCH   5   6
ENDBRANCH   4   5
ENDBRANCH   3   4
ENDBRANCH   2   3
TORSDOF 12
ENDMDL
MODEL       82
REMARK 921   NORMALIZED FREE ENERGY PREDICTED BY IDOCK:   -4.96 KCAL/MOL
REMARK 922        TOTAL FREE ENERGY PREDICTED BY IDOCK:  -10.39 KCAL/MOL
REMARK 923 INTER-LIGAND FREE ENERGY PREDICTED BY IDOCK:   -8.39 KCAL/MOL
REMARK 924 INTRA-LIGAND FREE ENERGY PREDICTED BY IDOCK:   -2.00 KCAL/MOL
REMARK 927      BINDING AFFINITY PREDICTED BY RF-SCORE:    0.00 PKD
ROOT
HETATM    1  C   UNL     1     -11.789  13.894  66.639  1.00  0.00    -0.447 C  
HETATM    2  C   UNL     1     -11.957  13.122  67.935  1.00  0.00    -0.347 C  
ENDROOT
BRANCH   2   3
HETATM    3  C   UNL     1     -11.951  14.043  69.157  1.00  0.00    -0.400 C  
BRANCH   3   4
HETATM    4  C   UNL     1     -12.285  13.246  70.416  1.00  0.00    -0.404 C  
BRANCH   4   5
HETATM    5  C   UNL     1     -12.058  11.743  70.239  1.00  0.00    -0.426 C  
BRANCH   5   6
HETATM    6  C   UNL     1     -12.984  10.884  71.118  1.00  0.00    -0.352 C  
HETATM    7  O   UNL     1     -13.371  11.682  72.231  1.00  0.00    -0.625 OA 
HETATM    8  H   UNL     1     -13.943  11.151  72.774  1.00  0.00     0.000 HD 
BRANCH   6   9
HETATM    9  C   UNL     1     -12.333   9.597  71.577  1.00  0.00    -0.477 C  
HETATM   10  C   UNL     1     -11.030   9.279  71.516  1.00  0.00    -0.446 C  
BRANCH  10  11
HETATM   11  C   UNL     1     -10.470   7.912  71.848  1.00  0.00    -0.284 C  
HETATM   12  C   UNL     1      -9.964   7.890  73.306  1.00  0.00    -0.263 C  
HETATM   13  O   UNL     1      -8.681   8.489  73.435  1.00  0.00    -0.331 OA 
HETATM   14  C   UNL     1      -9.914   6.428  73.695  1.00  0.00    -0.232 C  
HETATM   15  H   UNL     1      -8.370   8.475  74.333  1.00  0.00     0.000 HD 
HETATM   16  C   UNL     1     -11.087   5.888  72.939  1.00  0.00    -0.269 C  
HETATM   17  O   UNL     1     -11.643   4.842  73.255  1.00  0.00    -0.333 OA 
HETATM   18  C   UNL     1     -11.494   6.754  71.757  1.00  0.00    -0.320 C  
BRANCH  18  19
HETATM   19  C   UNL     1     -11.381   6.009  70.413  1.00  0.00    -0.322 C  
BRANCH  19  20
HETATM   20  C   UNL     1      -9.948   5.601  70.043  1.00  0.00    -0.267 C  
BRANCH  20  21
HETATM   21  C   UNL     1      -9.678   5.745  68.543  1.00  0.00    -0.161 C  
BRANCH  21  22
HETATM   22  C   UNL     1     -10.935   6.214  67.802  1.00  0.00    -0.400 C  
BRANCH  22  23
HETATM   23  C   UNL     1     -10.658   7.466  66.971  1.00  0.00    -0.414 C  
BRANCH  23  24
HETATM   24  C   UNL     1     -10.179   8.629  67.841  1.00  0.00    -0.273 C  
HETATM   25  C   UNL     1      -9.810   9.834  67.007  1.00  0.00    -0.193 C  
HETATM   26  O   UNL     1      -9.877   9.902  65.791  1.00  0.00    -0.252 OA 
HETATM   27  O   UNL     1      -9.379  10.866  67.767  1.00  0.00    -0.153 OA 
ENDBRANCH  23  24
ENDBRANCH  22  23
ENDBRANCH  21  22
ENDBRANCH  20  21
ENDBRANCH  19  20
ENDBRANCH  18  19
ENDBRANCH  10  11
ENDBRANCH   6   9
ENDBRANCH   5   6
ENDBRANCH   4   5
ENDBRANCH   3   4
ENDBRANCH   2   3
TORSDOF 12
ENDMDL
MODEL       83
REMARK 921   NORMALIZED FREE ENERGY PREDICTED BY IDOCK:   -4.96 KCAL/MOL
REMARK 922        TOTAL FREE ENERGY PREDICTED BY IDOCK:  -10.39 KCAL/MOL
REMARK 923 INTER-LIGAND FREE ENERGY PREDICTED BY IDOCK:   -8.89 KCAL/MOL
REMARK 924 INTRA-LIGAND FREE ENERGY PREDICTED BY IDOCK:   -1.50 KCAL/MOL
REMARK 927      BINDING AFFINITY PREDICTED BY RF-SCORE:    0.00 PKD
ROOT
HETATM    1  C   UNL     1     -10.237   5.786  69.441  1.00  0.00    -0.301 C  
HETATM    2  C   UNL     1     -10.652   7.240  69.575  1.00  0.00    -0.244 C  
ENDROOT
BRANCH   2   3
HETATM    3  C   UNL     1     -11.084   7.584  71.002  1.00  0.00    -0.274 C  
BRANCH   3   4
HETATM    4  C   UNL     1     -10.752   9.043  71.312  1.00  0.00    -0.379 C  
BRANCH   4   5
HETATM    5  C   UNL     1     -10.619   9.898  70.050  1.00  0.00    -0.335 C  
BRANCH   5   6
HETATM    6  C   UNL     1     -11.751  10.928  69.896  1.00  0.00    -0.339 C  
HETATM    7  O   UNL     1     -12.969  10.202  69.770  1.00  0.00    -0.474 OA 
HETATM    8  H   UNL     1     -13.669  10.838  69.674  1.00  0.00     0.000 HD 
BRANCH   6   9
HETATM    9  C   UNL     1     -11.549  11.852  68.714  1.00  0.00    -0.366 C  
HETATM   10  C   UNL     1     -11.651  11.539  67.412  1.00  0.00    -0.307 C  
BRANCH  10  11
HETATM   11  C   UNL     1     -11.282  12.474  66.280  1.00  0.00    -0.359 C  
HETATM   12  C   UNL     1     -11.538  11.785  64.923  1.00  0.00    -0.158 C  
HETATM   13  O   UNL     1     -10.492  10.888  64.574  1.00  0.00    -0.346 OA 
HETATM   14  C   UNL     1     -11.640  12.907  63.912  1.00  0.00    -0.515 C  
HETATM   15  H   UNL     1     -10.649  10.464  63.738  1.00  0.00     0.000 HD 
HETATM   16  C   UNL     1     -12.291  13.977  64.732  1.00  0.00    -0.413 C  
HETATM   17  O   UNL     1     -12.901  14.911  64.224  1.00  0.00    -0.607 OA 
HETATM   18  C   UNL     1     -12.104  13.785  66.230  1.00  0.00    -0.484 C  
BRANCH  18  19
HETATM   19  C   UNL     1     -11.339  14.953  66.882  1.00  0.00    -0.338 C  
BRANCH  19  20
HETATM   20  C   UNL     1      -9.814  14.862  66.734  1.00  0.00    -0.254 C  
BRANCH  20  21
HETATM   21  C   UNL     1      -9.188  16.216  66.389  1.00  0.00    -0.334 C  
BRANCH  21  22
HETATM   22  C   UNL     1     -10.243  17.186  65.850  1.00  0.00    -0.290 C  
BRANCH  22  23
HETATM   23  C   UNL     1      -9.905  18.633  66.209  1.00  0.00    -0.364 C  
BRANCH  23  24
HETATM   24  C   UNL     1     -10.548  19.052  67.532  1.00  0.00    -0.546 C  
HETATM   25  C   UNL     1      -9.531  19.113  68.651  1.00  0.00    -0.405 C  
HETATM   26  O   UNL     1      -8.342  18.866  68.542  1.00  0.00    -0.329 OA 
HETATM   27  O   UNL     1     -10.090  19.476  69.827  1.00  0.00    -0.128 OA 
ENDBRANCH  23  24
ENDBRANCH  22  23
ENDBRANCH  21  22
ENDBRANCH  20  21
ENDBRANCH  19  20
ENDBRANCH  18  19
ENDBRANCH  10  11
ENDBRANCH   6   9
ENDBRANCH   5   6
ENDBRANCH   4   5
ENDBRANCH   3   4
ENDBRANCH   2   3
TORSDOF 12
ENDMDL
MODEL       84
REMARK 921   NORMALIZED FREE ENERGY PREDICTED BY IDOCK:   -4.96 KCAL/MOL
REMARK 922        TOTAL FREE ENERGY PREDICTED BY IDOCK:  -10.38 KCAL/MOL
REMARK 923 INTER-LIGAND FREE ENERGY PREDICTED BY IDOCK:   -8.18 KCAL/MOL
REMARK 924 INTRA-LIGAND FREE ENERGY PREDICTED BY IDOCK:   -2.21 KCAL/MOL
REMARK 927      BINDING AFFINITY PREDICTED BY RF-SCORE:    0.00 PKD
ROOT
HETATM    1  C   UNL     1      -9.109   9.088  71.057  1.00  0.00    -0.322 C  
HETATM    2  C   UNL     1     -10.585   9.442  71.072  1.00  0.00    -0.400 C  
ENDROOT
BRANCH   2   3
HETATM    3  C   UNL     1     -11.473   8.207  70.906  1.00  0.00    -0.288 C  
BRANCH   3   4
HETATM    4  C   UNL     1     -10.656   7.046  70.343  1.00  0.00    -0.244 C  
BRANCH   4   5
HETATM    5  C   UNL     1     -11.226   6.508  69.028  1.00  0.00    -0.354 C  
BRANCH   5   6
HETATM    6  C   UNL     1     -10.384   6.895  67.801  1.00  0.00    -0.203 C  
HETATM    7  O   UNL     1      -9.019   6.662  68.133  1.00  0.00    -0.123 OA 
HETATM    8  H   UNL     1      -8.499   6.901  67.374  1.00  0.00     0.000 HD 
BRANCH   6   9
HETATM    9  C   UNL     1     -10.596   8.330  67.370  1.00  0.00    -0.324 C  
HETATM   10  C   UNL     1      -9.651   9.233  67.058  1.00  0.00    -0.223 C  
BRANCH  10  11
HETATM   11  C   UNL     1      -9.927  10.696  66.788  1.00  0.00    -0.254 C  
HETATM   12  C   UNL     1      -9.610  11.029  65.315  1.00  0.00    -0.227 C  
HETATM   13  O   UNL     1      -8.218  11.213  65.097  1.00  0.00    -0.372 OA 
HETATM   14  C   UNL     1     -10.371  12.303  65.015  1.00  0.00    -0.321 C  
HETATM   15  H   UNL     1      -8.023  11.418  64.190  1.00  0.00     0.000 HD 
HETATM   16  C   UNL     1     -11.598  12.110  65.850  1.00  0.00    -0.364 C  
HETATM   17  O   UNL     1     -12.645  12.706  65.622  1.00  0.00    -0.611 OA 
HETATM   18  C   UNL     1     -11.401  11.125  66.992  1.00  0.00    -0.216 C  
BRANCH  18  19
HETATM   19  C   UNL     1     -11.610  11.775  68.374  1.00  0.00    -0.380 C  
BRANCH  19  20
HETATM   20  C   UNL     1     -10.617  12.900  68.693  1.00  0.00    -0.256 C  
BRANCH  20  21
HETATM   21  C   UNL     1     -11.269  14.283  68.609  1.00  0.00    -0.287 C  
BRANCH  21  22
HETATM   22  C   UNL     1     -10.274  15.383  68.991  1.00  0.00    -0.233 C  
BRANCH  22  23
HETATM   23  C   UNL     1      -9.549  15.931  67.762  1.00  0.00    -0.218 C  
BRANCH  23  24
HETATM   24  C   UNL     1     -10.297  15.599  66.470  1.00  0.00    -0.296 C  
HETATM   25  C   UNL     1     -10.395  16.802  65.558  1.00  0.00    -0.215 C  
HETATM   26  O   UNL     1      -9.942  17.909  65.795  1.00  0.00    -0.551 OA 
HETATM   27  O   UNL     1     -11.060  16.520  64.415  1.00  0.00    -0.894 OA 
ENDBRANCH  23  24
ENDBRANCH  22  23
ENDBRANCH  21  22
ENDBRANCH  20  21
ENDBRANCH  19  20
ENDBRANCH  18  19
ENDBRANCH  10  11
ENDBRANCH   6   9
ENDBRANCH   5   6
ENDBRANCH   4   5
ENDBRANCH   3   4
ENDBRANCH   2   3
TORSDOF 12
ENDMDL
MODEL       85
REMARK 921   NORMALIZED FREE ENERGY PREDICTED BY IDOCK:   -4.94 KCAL/MOL
REMARK 922        TOTAL FREE ENERGY PREDICTED BY IDOCK:  -10.35 KCAL/MOL
REMARK 923 INTER-LIGAND FREE ENERGY PREDICTED BY IDOCK:   -8.32 KCAL/MOL
REMARK 924 INTRA-LIGAND FREE ENERGY PREDICTED BY IDOCK:   -2.04 KCAL/MOL
REMARK 927      BINDING AFFINITY PREDICTED BY RF-SCORE:    0.00 PKD
ROOT
HETATM    1  C   UNL     1     -12.096  14.537  64.334  1.00  0.00    -0.492 C  
HETATM    2  C   UNL     1     -11.119  15.591  64.825  1.00  0.00    -0.421 C  
ENDROOT
BRANCH   2   3
HETATM    3  C   UNL     1     -10.840  15.460  66.324  1.00  0.00    -0.301 C  
BRANCH   3   4
HETATM    4  C   UNL     1     -11.878  14.546  66.973  1.00  0.00    -0.408 C  
BRANCH   4   5
HETATM    5  C   UNL     1     -11.294  13.710  68.114  1.00  0.00    -0.321 C  
BRANCH   5   6
HETATM    6  C   UNL     1     -10.930  12.277  67.688  1.00  0.00    -0.244 C  
HETATM    7  O   UNL     1     -11.870  11.879  66.695  1.00  0.00    -0.591 OA 
HETATM    8  H   UNL     1     -11.645  10.994  66.432  1.00  0.00     0.000 HD 
BRANCH   6   9
HETATM    9  C   UNL     1     -10.924  11.302  68.846  1.00  0.00    -0.274 C  
HETATM   10  C   UNL     1     -11.984  10.866  69.546  1.00  0.00    -0.401 C  
BRANCH  10  11
HETATM   11  C   UNL     1     -11.889  10.013  70.793  1.00  0.00    -0.435 C  
HETATM   12  C   UNL     1     -13.220  10.070  71.573  1.00  0.00    -0.401 C  
HETATM   13  O   UNL     1     -13.334  11.256  72.348  1.00  0.00    -0.589 OA 
HETATM   14  C   UNL     1     -13.218   8.847  72.465  1.00  0.00    -0.438 C  
HETATM   15  H   UNL     1     -14.153  11.291  72.828  1.00  0.00     0.000 HD 
HETATM   16  C   UNL     1     -12.504   7.858  71.599  1.00  0.00    -0.319 C  
HETATM   17  O   UNL     1     -12.613   6.648  71.759  1.00  0.00    -0.354 OA 
HETATM   18  C   UNL     1     -11.638   8.508  70.530  1.00  0.00    -0.145 C  
BRANCH  18  19
HETATM   19  C   UNL     1     -10.147   8.153  70.682  1.00  0.00    -0.209 C  
BRANCH  19  20
HETATM   20  C   UNL     1      -9.524   7.517  69.433  1.00  0.00    -0.155 C  
BRANCH  20  21
HETATM   21  C   UNL     1     -10.582   7.134  68.394  1.00  0.00    -0.223 C  
BRANCH  21  22
HETATM   22  C   UNL     1     -10.066   7.374  66.972  1.00  0.00    -0.328 C  
BRANCH  22  23
HETATM   23  C   UNL     1      -9.612   8.821  66.779  1.00  0.00    -0.267 C  
BRANCH  23  24
HETATM   24  C   UNL     1      -8.729   8.977  65.540  1.00  0.00    -0.212 C  
HETATM   25  C   UNL     1      -9.339   9.930  64.538  1.00  0.00    -0.275 C  
HETATM   26  O   UNL     1     -10.399  10.518  64.673  1.00  0.00    -0.344 OA 
HETATM   27  O   UNL     1      -8.569  10.071  63.435  1.00  0.00    -0.168 OA 
ENDBRANCH  23  24
ENDBRANCH  22  23
ENDBRANCH  21  22
ENDBRANCH  20  21
ENDBRANCH  19  20
ENDBRANCH  18  19
ENDBRANCH  10  11
ENDBRANCH   6   9
ENDBRANCH   5   6
ENDBRANCH   4   5
ENDBRANCH   3   4
ENDBRANCH   2   3
TORSDOF 12
ENDMDL
MODEL       86
REMARK 921   NORMALIZED FREE ENERGY PREDICTED BY IDOCK:   -4.94 KCAL/MOL
REMARK 922        TOTAL FREE ENERGY PREDICTED BY IDOCK:  -10.35 KCAL/MOL
REMARK 923 INTER-LIGAND FREE ENERGY PREDICTED BY IDOCK:   -8.24 KCAL/MOL
REMARK 924 INTRA-LIGAND FREE ENERGY PREDICTED BY IDOCK:   -2.11 KCAL/MOL
REMARK 927      BINDING AFFINITY PREDICTED BY RF-SCORE:    0.00 PKD
ROOT
HETATM    1  C   UNL     1     -12.269  12.145  63.477  1.00  0.00    -0.670 C  
HETATM    2  C   UNL     1     -11.698  12.341  64.870  1.00  0.00    -0.409 C  
ENDROOT
BRANCH   2   3
HETATM    3  C   UNL     1     -12.517  13.341  65.690  1.00  0.00    -0.510 C  
BRANCH   3   4
HETATM    4  C   UNL     1     -11.744  13.749  66.943  1.00  0.00    -0.424 C  
BRANCH   4   5
HETATM    5  C   UNL     1     -11.996  12.808  68.123  1.00  0.00    -0.295 C  
BRANCH   5   6
HETATM    6  C   UNL     1     -10.711  12.159  68.664  1.00  0.00    -0.233 C  
HETATM    7  O   UNL     1      -9.684  13.144  68.610  1.00  0.00    -0.368 OA 
HETATM    8  H   UNL     1      -8.890  12.743  68.945  1.00  0.00     0.000 HD 
BRANCH   6   9
HETATM    9  C   UNL     1     -10.309  10.919  67.896  1.00  0.00    -0.216 C  
HETATM   10  C   UNL     1     -10.974   9.754  67.829  1.00  0.00    -0.242 C  
BRANCH  10  11
HETATM   11  C   UNL     1     -10.434   8.502  67.170  1.00  0.00    -0.370 C  
HETATM   12  C   UNL     1      -9.302   8.870  66.188  1.00  0.00    -0.239 C  
HETATM   13  O   UNL     1      -9.805   9.352  64.948  1.00  0.00    -0.415 OA 
HETATM   14  C   UNL     1      -8.512   7.595  65.985  1.00  0.00    -0.149 C  
HETATM   15  H   UNL     1      -9.108   9.578  64.344  1.00  0.00     0.000 HD 
HETATM   16  C   UNL     1      -8.619   6.970  67.340  1.00  0.00    -0.121 C  
HETATM   17  O   UNL     1      -7.823   6.127  67.737  1.00  0.00    -0.103 OA 
HETATM   18  C   UNL     1      -9.807   7.476  68.145  1.00  0.00    -0.179 C  
BRANCH  18  19
HETATM   19  C   UNL     1     -10.803   6.354  68.496  1.00  0.00    -0.382 C  
BRANCH  19  20
HETATM   20  C   UNL     1     -11.042   6.179  70.002  1.00  0.00    -0.462 C  
BRANCH  20  21
HETATM   21  C   UNL     1      -9.756   6.353  70.813  1.00  0.00    -0.197 C  
BRANCH  21  22
HETATM   22  C   UNL     1      -9.937   7.409  71.908  1.00  0.00    -0.196 C  
BRANCH  22  23
HETATM   23  C   UNL     1     -11.369   7.944  71.936  1.00  0.00    -0.324 C  
BRANCH  23  24
HETATM   24  C   UNL     1     -11.427   9.423  71.550  1.00  0.00    -0.467 C  
HETATM   25  C   UNL     1     -12.818   9.989  71.724  1.00  0.00    -0.446 C  
HETATM   26  O   UNL     1     -13.791   9.371  72.122  1.00  0.00    -0.414 OA 
HETATM   27  O   UNL     1     -12.883  11.295  71.380  1.00  0.00    -0.406 OA 
ENDBRANCH  23  24
ENDBRANCH  22  23
ENDBRANCH  21  22
ENDBRANCH  20  21
ENDBRANCH  19  20
ENDBRANCH  18  19
ENDBRANCH  10  11
ENDBRANCH   6   9
ENDBRANCH   5   6
ENDBRANCH   4   5
ENDBRANCH   3   4
ENDBRANCH   2   3
TORSDOF 12
ENDMDL
MODEL       87
REMARK 921   NORMALIZED FREE ENERGY PREDICTED BY IDOCK:   -4.93 KCAL/MOL
REMARK 922        TOTAL FREE ENERGY PREDICTED BY IDOCK:  -10.34 KCAL/MOL
REMARK 923 INTER-LIGAND FREE ENERGY PREDICTED BY IDOCK:   -8.09 KCAL/MOL
REMARK 924 INTRA-LIGAND FREE ENERGY PREDICTED BY IDOCK:   -2.24 KCAL/MOL
REMARK 927      BINDING AFFINITY PREDICTED BY RF-SCORE:    0.00 PKD
ROOT
HETATM    1  C   UNL     1     -12.271  14.163  66.928  1.00  0.00    -0.400 C  
HETATM    2  C   UNL     1     -12.898  13.759  65.606  1.00  0.00    -0.456 C  
ENDROOT
BRANCH   2   3
HETATM    3  C   UNL     1     -12.043  14.186  64.411  1.00  0.00    -0.486 C  
BRANCH   3   4
HETATM    4  C   UNL     1     -12.238  13.210  63.253  1.00  0.00    -0.438 C  
BRANCH   4   5
HETATM    5  C   UNL     1     -11.852  11.775  63.621  1.00  0.00    -0.498 C  
BRANCH   5   6
HETATM    6  C   UNL     1     -10.344  11.600  63.869  1.00  0.00    -0.369 C  
HETATM    7  O   UNL     1      -9.962  10.355  63.293  1.00  0.00    -0.469 OA 
HETATM    8  H   UNL     1      -9.030  10.247  63.447  1.00  0.00     0.000 HD 
BRANCH   6   9
HETATM    9  C   UNL     1      -9.980  11.649  65.337  1.00  0.00    -0.287 C  
HETATM   10  C   UNL     1     -10.553  10.963  66.340  1.00  0.00    -0.289 C  
BRANCH  10  11
HETATM   11  C   UNL     1     -10.243  11.179  67.806  1.00  0.00    -0.205 C  
HETATM   12  C   UNL     1     -11.073  10.205  68.669  1.00  0.00    -0.205 C  
HETATM   13  O   UNL     1     -12.410  10.654  68.847  1.00  0.00    -0.800 OA 
HETATM   14  C   UNL     1     -10.353  10.128  69.998  1.00  0.00    -0.301 C  
HETATM   15  H   UNL     1     -12.920  10.054  69.378  1.00  0.00     0.000 HD 
HETATM   16  C   UNL     1      -8.927  10.256  69.563  1.00  0.00    -0.157 C  
HETATM   17  O   UNL     1      -7.994   9.868  70.256  1.00  0.00    -0.182 OA 
HETATM   18  C   UNL     1      -8.769  10.916  68.201  1.00  0.00    -0.133 C  
BRANCH  18  19
HETATM   19  C   UNL     1      -7.964  12.228  68.271  1.00  0.00    -0.163 C  
BRANCH  19  20
HETATM   20  C   UNL     1      -8.827  13.495  68.213  1.00  0.00    -0.179 C  
BRANCH  20  21
HETATM   21  C   UNL     1      -8.157  14.611  67.406  1.00  0.00    -0.216 C  
BRANCH  21  22
HETATM   22  C   UNL     1      -9.080  15.111  66.290  1.00  0.00    -0.313 C  
BRANCH  22  23
HETATM   23  C   UNL     1      -9.242  16.630  66.341  1.00  0.00    -0.318 C  
BRANCH  23  24
HETATM   24  C   UNL     1      -9.779  17.097  67.695  1.00  0.00    -0.263 C  
HETATM   25  C   UNL     1      -9.500  18.564  67.929  1.00  0.00    -0.296 C  
HETATM   26  O   UNL     1      -8.924  19.309  67.154  1.00  0.00    -0.286 OA 
HETATM   27  O   UNL     1      -9.966  18.986  69.126  1.00  0.00    -0.385 OA 
ENDBRANCH  23  24
ENDBRANCH  22  23
ENDBRANCH  21  22
ENDBRANCH  20  21
ENDBRANCH  19  20
ENDBRANCH  18  19
ENDBRANCH  10  11
ENDBRANCH   6   9
ENDBRANCH   5   6
ENDBRANCH   4   5
ENDBRANCH   3   4
ENDBRANCH   2   3
TORSDOF 12
ENDMDL
MODEL       88
REMARK 921   NORMALIZED FREE ENERGY PREDICTED BY IDOCK:   -4.93 KCAL/MOL
REMARK 922        TOTAL FREE ENERGY PREDICTED BY IDOCK:  -10.34 KCAL/MOL
REMARK 923 INTER-LIGAND FREE ENERGY PREDICTED BY IDOCK:   -8.84 KCAL/MOL
REMARK 924 INTRA-LIGAND FREE ENERGY PREDICTED BY IDOCK:   -1.49 KCAL/MOL
REMARK 927      BINDING AFFINITY PREDICTED BY RF-SCORE:    0.00 PKD
ROOT
HETATM    1  C   UNL     1     -12.102  16.121  72.589  1.00  0.00    -0.652 C  
HETATM    2  C   UNL     1     -13.498  15.591  72.863  1.00  0.00    -0.641 C  
ENDROOT
BRANCH   2   3
HETATM    3  C   UNL     1     -13.851  14.409  71.959  1.00  0.00    -0.567 C  
BRANCH   3   4
HETATM    4  C   UNL     1     -12.786  13.320  72.080  1.00  0.00    -0.291 C  
BRANCH   4   5
HETATM    5  C   UNL     1     -13.381  11.910  72.062  1.00  0.00    -0.425 C  
BRANCH   5   6
HETATM    6  C   UNL     1     -12.775  11.012  70.970  1.00  0.00    -0.386 C  
HETATM    7  O   UNL     1     -11.804  10.180  71.597  1.00  0.00    -0.333 OA 
HETATM    8  H   UNL     1     -11.429   9.625  70.923  1.00  0.00     0.000 HD 
BRANCH   6   9
HETATM    9  C   UNL     1     -12.158  11.799  69.835  1.00  0.00    -0.359 C  
HETATM   10  C   UNL     1     -11.850  11.349  68.608  1.00  0.00    -0.377 C  
BRANCH  10  11
HETATM   11  C   UNL     1     -11.090  12.151  67.572  1.00  0.00    -0.328 C  
HETATM   12  C   UNL     1      -9.580  12.123  67.890  1.00  0.00    -0.198 C  
HETATM   13  O   UNL     1      -9.232  13.045  68.914  1.00  0.00    -0.386 OA 
HETATM   14  C   UNL     1      -8.887  12.479  66.592  1.00  0.00    -0.142 C  
HETATM   15  H   UNL     1      -8.302  13.027  69.109  1.00  0.00     0.000 HD 
HETATM   16  C   UNL     1      -9.803  11.846  65.592  1.00  0.00    -0.241 C  
HETATM   17  O   UNL     1      -9.436  11.559  64.458  1.00  0.00    -0.190 OA 
HETATM   18  C   UNL     1     -11.209  11.616  66.124  1.00  0.00    -0.314 C  
BRANCH  18  19
HETATM   19  C   UNL     1     -12.276  12.390  65.326  1.00  0.00    -0.418 C  
BRANCH  19  20
HETATM   20  C   UNL     1     -11.704  13.257  64.196  1.00  0.00    -0.470 C  
BRANCH  20  21
HETATM   21  C   UNL     1     -11.892  14.752  64.466  1.00  0.00    -0.428 C  
BRANCH  21  22
HETATM   22  C   UNL     1     -10.572  15.402  64.892  1.00  0.00    -0.380 C  
BRANCH  22  23
HETATM   23  C   UNL     1     -10.500  15.578  66.409  1.00  0.00    -0.310 C  
BRANCH  23  24
HETATM   24  C   UNL     1      -9.533  16.696  66.803  1.00  0.00    -0.260 C  
HETATM   25  C   UNL     1      -9.366  16.784  68.303  1.00  0.00    -0.230 C  
HETATM   26  O   UNL     1      -9.919  16.068  69.121  1.00  0.00    -0.218 OA 
HETATM   27  O   UNL     1      -8.517  17.773  68.663  1.00  0.00    -0.298 OA 
ENDBRANCH  23  24
ENDBRANCH  22  23
ENDBRANCH  21  22
ENDBRANCH  20  21
ENDBRANCH  19  20
ENDBRANCH  18  19
ENDBRANCH  10  11
ENDBRANCH   6   9
ENDBRANCH   5   6
ENDBRANCH   4   5
ENDBRANCH   3   4
ENDBRANCH   2   3
TORSDOF 12
ENDMDL
MODEL       89
REMARK 921   NORMALIZED FREE ENERGY PREDICTED BY IDOCK:   -4.91 KCAL/MOL
REMARK 922        TOTAL FREE ENERGY PREDICTED BY IDOCK:  -10.30 KCAL/MOL
REMARK 923 INTER-LIGAND FREE ENERGY PREDICTED BY IDOCK:   -9.27 KCAL/MOL
REMARK 924 INTRA-LIGAND FREE ENERGY PREDICTED BY IDOCK:   -1.03 KCAL/MOL
REMARK 927      BINDING AFFINITY PREDICTED BY RF-SCORE:    0.00 PKD
ROOT
HETATM    1  C   UNL     1     -12.644  15.741  71.941  1.00  0.00    -0.522 C  
HETATM    2  C   UNL     1     -13.165  14.752  72.968  1.00  0.00    -0.592 C  
ENDROOT
BRANCH   2   3
HETATM    3  C   UNL     1     -13.906  13.584  72.315  1.00  0.00    -0.680 C  
BRANCH   3   4
HETATM    4  C   UNL     1     -12.912  12.654  71.622  1.00  0.00    -0.400 C  
BRANCH   4   5
HETATM    5  C   UNL     1     -13.162  11.179  71.947  1.00  0.00    -0.488 C  
BRANCH   5   6
HETATM    6  C   UNL     1     -12.947  10.250  70.740  1.00  0.00    -0.330 C  
HETATM    7  O   UNL     1     -13.762   9.099  70.941  1.00  0.00    -0.586 OA 
HETATM    8  H   UNL     1     -13.629   8.525  70.195  1.00  0.00     0.000 HD 
BRANCH   6   9
HETATM    9  C   UNL     1     -11.498   9.857  70.549  1.00  0.00    -0.391 C  
HETATM   10  C   UNL     1     -10.590  10.459  69.763  1.00  0.00    -0.302 C  
BRANCH  10  11
HETATM   11  C   UNL     1      -9.201   9.919  69.499  1.00  0.00    -0.238 C  
HETATM   12  C   UNL     1      -8.911   8.729  70.437  1.00  0.00    -0.169 C  
HETATM   13  O   UNL     1      -8.538   9.154  71.741  1.00  0.00    -0.340 OA 
HETATM   14  C   UNL     1      -7.782   7.962  69.781  1.00  0.00    -0.099 C  
HETATM   15  H   UNL     1      -8.360   8.421  72.318  1.00  0.00     0.000 HD 
HETATM   16  C   UNL     1      -8.104   8.156  68.333  1.00  0.00    -0.128 C  
HETATM   17  O   UNL     1      -7.682   7.403  67.462  1.00  0.00    -0.106 OA 
HETATM   18  C   UNL     1      -8.982   9.370  68.067  1.00  0.00    -0.128 C  
BRANCH  18  19
HETATM   19  C   UNL     1      -8.291  10.412  67.167  1.00  0.00    -0.126 C  
BRANCH  19  20
HETATM   20  C   UNL     1      -8.467  10.154  65.664  1.00  0.00    -0.159 C  
BRANCH  20  21
HETATM   21  C   UNL     1      -9.926  10.303  65.222  1.00  0.00    -0.387 C  
BRANCH  21  22
HETATM   22  C   UNL     1     -10.015  10.649  63.733  1.00  0.00    -0.379 C  
BRANCH  22  23
HETATM   23  C   UNL     1     -10.720  11.988  63.513  1.00  0.00    -0.513 C  
BRANCH  23  24
HETATM   24  C   UNL     1     -11.475  12.441  64.763  1.00  0.00    -0.375 C  
HETATM   25  C   UNL     1     -12.357  13.636  64.478  1.00  0.00    -0.356 C  
HETATM   26  O   UNL     1     -12.474  14.189  63.398  1.00  0.00    -0.797 OA 
HETATM   27  O   UNL     1     -13.026  14.049  65.579  1.00  0.00    -0.681 OA 
ENDBRANCH  23  24
ENDBRANCH  22  23
ENDBRANCH  21  22
ENDBRANCH  20  21
ENDBRANCH  19  20
ENDBRANCH  18  19
ENDBRANCH  10  11
ENDBRANCH   6   9
ENDBRANCH   5   6
ENDBRANCH   4   5
ENDBRANCH   3   4
ENDBRANCH   2   3
TORSDOF 12
ENDMDL
MODEL       90
REMARK 921   NORMALIZED FREE ENERGY PREDICTED BY IDOCK:   -4.90 KCAL/MOL
REMARK 922        TOTAL FREE ENERGY PREDICTED BY IDOCK:  -10.28 KCAL/MOL
REMARK 923 INTER-LIGAND FREE ENERGY PREDICTED BY IDOCK:   -8.65 KCAL/MOL
REMARK 924 INTRA-LIGAND FREE ENERGY PREDICTED BY IDOCK:   -1.63 KCAL/MOL
REMARK 927      BINDING AFFINITY PREDICTED BY RF-SCORE:    0.00 PKD
ROOT
HETATM    1  C   UNL     1      -9.444  15.167  66.221  1.00  0.00    -0.341 C  
HETATM    2  C   UNL     1     -10.655  15.782  65.544  1.00  0.00    -0.424 C  
ENDROOT
BRANCH   2   3
HETATM    3  C   UNL     1     -11.359  14.790  64.616  1.00  0.00    -0.370 C  
BRANCH   3   4
HETATM    4  C   UNL     1     -12.429  14.019  65.386  1.00  0.00    -0.520 C  
BRANCH   4   5
HETATM    5  C   UNL     1     -12.660  12.614  64.826  1.00  0.00    -0.530 C  
BRANCH   5   6
HETATM    6  C   UNL     1     -11.416  12.025  64.140  1.00  0.00    -0.383 C  
HETATM    7  O   UNL     1     -11.869  11.259  63.027  1.00  0.00    -0.864 OA 
HETATM    8  H   UNL     1     -11.100  10.895  62.603  1.00  0.00     0.000 HD 
BRANCH   6   9
HETATM    9  C   UNL     1     -10.575  11.178  65.070  1.00  0.00    -0.340 C  
HETATM   10  C   UNL     1      -9.876  11.595  66.138  1.00  0.00    -0.250 C  
BRANCH  10  11
HETATM   11  C   UNL     1      -8.930  10.719  66.931  1.00  0.00    -0.147 C  
HETATM   12  C   UNL     1      -7.478  11.207  66.744  1.00  0.00    -0.146 C  
HETATM   13  O   UNL     1      -6.919  10.763  65.515  1.00  0.00    -0.313 OA 
HETATM   14  C   UNL     1      -6.706  10.642  67.917  1.00  0.00    -0.064 C  
HETATM   15  H   UNL     1      -6.025  11.064  65.400  1.00  0.00     0.000 HD 
HETATM   16  C   UNL     1      -7.742  10.691  68.995  1.00  0.00    -0.130 C  
HETATM   17  O   UNL     1      -7.449  10.690  70.186  1.00  0.00    -0.125 OA 
HETATM   18  C   UNL     1      -9.167  10.730  68.461  1.00  0.00    -0.174 C  
BRANCH  18  19
HETATM   19  C   UNL     1      -9.997   9.512  68.910  1.00  0.00    -0.187 C  
BRANCH  19  20
HETATM   20  C   UNL     1     -11.025   9.825  70.006  1.00  0.00    -0.319 C  
BRANCH  20  21
HETATM   21  C   UNL     1     -11.704  11.180  69.788  1.00  0.00    -0.419 C  
BRANCH  21  22
HETATM   22  C   UNL     1     -12.501  11.600  71.027  1.00  0.00    -0.436 C  
BRANCH  22  23
HETATM   23  C   UNL     1     -12.757  13.107  71.042  1.00  0.00    -0.361 C  
BRANCH  23  24
HETATM   24  C   UNL     1     -13.192  13.593  72.425  1.00  0.00    -0.584 C  
HETATM   25  C   UNL     1     -12.353  14.761  72.894  1.00  0.00    -0.282 C  
HETATM   26  O   UNL     1     -11.440  15.273  72.270  1.00  0.00    -0.447 OA 
HETATM   27  O   UNL     1     -12.726  15.195  74.119  1.00  0.00    -0.499 OA 
ENDBRANCH  23  24
ENDBRANCH  22  23
ENDBRANCH  21  22
ENDBRANCH  20  21
ENDBRANCH  19  20
ENDBRANCH  18  19
ENDBRANCH  10  11
ENDBRANCH   6   9
ENDBRANCH   5   6
ENDBRANCH   4   5
ENDBRANCH   3   4
ENDBRANCH   2   3
TORSDOF 12
ENDMDL
MODEL       91
REMARK 921   NORMALIZED FREE ENERGY PREDICTED BY IDOCK:   -4.90 KCAL/MOL
REMARK 922        TOTAL FREE ENERGY PREDICTED BY IDOCK:  -10.28 KCAL/MOL
REMARK 923 INTER-LIGAND FREE ENERGY PREDICTED BY IDOCK:   -8.23 KCAL/MOL
REMARK 924 INTRA-LIGAND FREE ENERGY PREDICTED BY IDOCK:   -2.05 KCAL/MOL
REMARK 927      BINDING AFFINITY PREDICTED BY RF-SCORE:    0.00 PKD
ROOT
HETATM    1  C   UNL     1     -11.029   6.248  67.389  1.00  0.00    -0.447 C  
HETATM    2  C   UNL     1      -9.731   5.536  67.054  1.00  0.00    -0.158 C  
ENDROOT
BRANCH   2   3
HETATM    3  C   UNL     1      -8.890   6.321  66.045  1.00  0.00    -0.159 C  
BRANCH   3   4
HETATM    4  C   UNL     1      -8.795   7.785  66.468  1.00  0.00    -0.175 C  
BRANCH   4   5
HETATM    5  C   UNL     1      -7.560   8.072  67.325  1.00  0.00    -0.097 C  
BRANCH   5   6
HETATM    6  C   UNL     1      -7.906   8.584  68.733  1.00  0.00    -0.110 C  
HETATM    7  O   UNL     1      -7.717   7.500  69.637  1.00  0.00    -0.096 OA 
HETATM    8  H   UNL     1      -7.931   7.817  70.507  1.00  0.00     0.000 HD 
BRANCH   6   9
HETATM    9  C   UNL     1      -9.315   9.129  68.832  1.00  0.00    -0.146 C  
HETATM   10  C   UNL     1      -9.877   9.741  69.887  1.00  0.00    -0.279 C  
BRANCH  10  11
HETATM   11  C   UNL     1     -11.340  10.120  69.972  1.00  0.00    -0.351 C  
HETATM   12  C   UNL     1     -12.026   9.318  71.099  1.00  0.00    -0.322 C  
HETATM   13  O   UNL     1     -12.353   7.996  70.691  1.00  0.00    -0.500 OA 
HETATM   14  C   UNL     1     -13.278  10.096  71.443  1.00  0.00    -0.474 C  
HETATM   15  H   UNL     1     -12.776   7.503  71.385  1.00  0.00     0.000 HD 
HETATM   16  C   UNL     1     -12.812  11.502  71.234  1.00  0.00    -0.360 C  
HETATM   17  O   UNL     1     -13.369  12.461  71.756  1.00  0.00    -0.414 OA 
HETATM   18  C   UNL     1     -11.605  11.607  70.314  1.00  0.00    -0.254 C  
BRANCH  18  19
HETATM   19  C   UNL     1     -11.901  12.429  69.045  1.00  0.00    -0.349 C  
BRANCH  19  20
HETATM   20  C   UNL     1     -11.859  11.613  67.746  1.00  0.00    -0.247 C  
BRANCH  20  21
HETATM   21  C   UNL     1     -10.746  12.084  66.806  1.00  0.00    -0.280 C  
BRANCH  21  22
HETATM   22  C   UNL     1     -10.328  10.965  65.847  1.00  0.00    -0.310 C  
BRANCH  22  23
HETATM   23  C   UNL     1     -10.115  11.496  64.429  1.00  0.00    -0.328 C  
BRANCH  23  24
HETATM   24  C   UNL     1     -10.708  12.896  64.255  1.00  0.00    -0.430 C  
HETATM   25  C   UNL     1     -12.064  12.846  63.586  1.00  0.00    -0.535 C  
HETATM   26  O   UNL     1     -12.638  11.834  63.223  1.00  0.00    -0.561 OA 
HETATM   27  O   UNL     1     -12.595  14.078  63.421  1.00  0.00    -0.845 OA 
ENDBRANCH  23  24
ENDBRANCH  22  23
ENDBRANCH  21  22
ENDBRANCH  20  21
ENDBRANCH  19  20
ENDBRANCH  18  19
ENDBRANCH  10  11
ENDBRANCH   6   9
ENDBRANCH   5   6
ENDBRANCH   4   5
ENDBRANCH   3   4
ENDBRANCH   2   3
TORSDOF 12
ENDMDL
MODEL       92
REMARK 921   NORMALIZED FREE ENERGY PREDICTED BY IDOCK:   -4.89 KCAL/MOL
REMARK 922        TOTAL FREE ENERGY PREDICTED BY IDOCK:  -10.27 KCAL/MOL
REMARK 923 INTER-LIGAND FREE ENERGY PREDICTED BY IDOCK:   -8.28 KCAL/MOL
REMARK 924 INTRA-LIGAND FREE ENERGY PREDICTED BY IDOCK:   -1.99 KCAL/MOL
REMARK 927      BINDING AFFINITY PREDICTED BY RF-SCORE:    0.00 PKD
ROOT
HETATM    1  C   UNL     1      -8.798  10.038  69.703  1.00  0.00    -0.217 C  
HETATM    2  C   UNL     1     -10.034   9.333  70.231  1.00  0.00    -0.262 C  
ENDROOT
BRANCH   2   3
HETATM    3  C   UNL     1      -9.842   7.817  70.303  1.00  0.00    -0.184 C  
BRANCH   3   4
HETATM    4  C   UNL     1      -9.152   7.315  69.037  1.00  0.00    -0.133 C  
BRANCH   4   5
HETATM    5  C   UNL     1     -10.128   7.110  67.876  1.00  0.00    -0.211 C  
BRANCH   5   6
HETATM    6  C   UNL     1      -9.602   7.662  66.540  1.00  0.00    -0.186 C  
HETATM    7  O   UNL     1      -8.181   7.693  66.624  1.00  0.00    -0.118 OA 
HETATM    8  H   UNL     1      -7.856   8.035  65.799  1.00  0.00     0.000 HD 
BRANCH   6   9
HETATM    9  C   UNL     1     -10.152   9.033  66.211  1.00  0.00    -0.311 C  
HETATM   10  C   UNL     1      -9.685   9.899  65.297  1.00  0.00    -0.383 C  
BRANCH  10  11
HETATM   11  C   UNL     1     -10.188  11.317  65.131  1.00  0.00    -0.344 C  
HETATM   12  C   UNL     1     -10.489  11.598  63.643  1.00  0.00    -0.429 C  
HETATM   13  O   UNL     1      -9.309  11.889  62.905  1.00  0.00    -0.597 OA 
HETATM   14  C   UNL     1     -11.429  12.784  63.638  1.00  0.00    -0.544 C  
HETATM   15  H   UNL     1      -9.495  12.063  61.990  1.00  0.00     0.000 HD 
HETATM   16  C   UNL     1     -12.222  12.530  64.882  1.00  0.00    -0.470 C  
HETATM   17  O   UNL     1     -13.331  13.020  65.063  1.00  0.00    -0.671 OA 
HETATM   18  C   UNL     1     -11.508  11.627  65.877  1.00  0.00    -0.189 C  
BRANCH  18  19
HETATM   19  C   UNL     1     -11.242  12.327  67.223  1.00  0.00    -0.358 C  
BRANCH  19  20
HETATM   20  C   UNL     1      -9.830  12.916  67.353  1.00  0.00    -0.207 C  
BRANCH  20  21
HETATM   21  C   UNL     1      -9.841  14.447  67.334  1.00  0.00    -0.224 C  
BRANCH  21  22
HETATM   22  C   UNL     1      -9.434  14.981  65.958  1.00  0.00    -0.337 C  
BRANCH  22  23
HETATM   23  C   UNL     1      -9.135  16.480  66.008  1.00  0.00    -0.290 C  
BRANCH  23  24
HETATM   24  C   UNL     1     -10.218  17.248  66.767  1.00  0.00    -0.318 C  
HETATM   25  C   UNL     1     -10.046  18.743  66.623  1.00  0.00    -0.378 C  
HETATM   26  O   UNL     1      -9.166  19.297  65.986  1.00  0.00    -0.430 OA 
HETATM   27  O   UNL     1     -10.996  19.432  67.295  1.00  0.00    -0.491 OA 
ENDBRANCH  23  24
ENDBRANCH  22  23
ENDBRANCH  21  22
ENDBRANCH  20  21
ENDBRANCH  19  20
ENDBRANCH  18  19
ENDBRANCH  10  11
ENDBRANCH   6   9
ENDBRANCH   5   6
ENDBRANCH   4   5
ENDBRANCH   3   4
ENDBRANCH   2   3
TORSDOF 12
ENDMDL
MODEL       93
REMARK 921   NORMALIZED FREE ENERGY PREDICTED BY IDOCK:   -4.89 KCAL/MOL
REMARK 922        TOTAL FREE ENERGY PREDICTED BY IDOCK:  -10.27 KCAL/MOL
REMARK 923 INTER-LIGAND FREE ENERGY PREDICTED BY IDOCK:   -8.64 KCAL/MOL
REMARK 924 INTRA-LIGAND FREE ENERGY PREDICTED BY IDOCK:   -1.63 KCAL/MOL
REMARK 927      BINDING AFFINITY PREDICTED BY RF-SCORE:    0.00 PKD
ROOT
HETATM    1  C   UNL     1      -9.618  11.315  62.640  1.00  0.00    -0.239 C  
HETATM    2  C   UNL     1     -10.774  11.799  63.497  1.00  0.00    -0.501 C  
ENDROOT
BRANCH   2   3
HETATM    3  C   UNL     1     -10.327  12.157  64.915  1.00  0.00    -0.321 C  
BRANCH   3   4
HETATM    4  C   UNL     1     -10.666  11.019  65.875  1.00  0.00    -0.226 C  
BRANCH   4   5
HETATM    5  C   UNL     1      -9.430  10.449  66.574  1.00  0.00    -0.204 C  
BRANCH   5   6
HETATM    6  C   UNL     1      -9.671  10.118  68.056  1.00  0.00    -0.142 C  
HETATM    7  O   UNL     1      -9.719   8.699  68.171  1.00  0.00    -0.151 OA 
HETATM    8  H   UNL     1      -9.868   8.495  69.087  1.00  0.00     0.000 HD 
BRANCH   6   9
HETATM    9  C   UNL     1     -10.936  10.745  68.602  1.00  0.00    -0.285 C  
HETATM   10  C   UNL     1     -11.040  11.591  69.640  1.00  0.00    -0.211 C  
BRANCH  10  11
HETATM   11  C   UNL     1     -12.354  12.057  70.230  1.00  0.00    -0.275 C  
HETATM   12  C   UNL     1     -12.792  11.100  71.359  1.00  0.00    -0.439 C  
HETATM   13  O   UNL     1     -13.395   9.916  70.853  1.00  0.00    -0.542 OA 
HETATM   14  C   UNL     1     -13.778  11.886  72.196  1.00  0.00    -0.029 C  
HETATM   15  H   UNL     1     -13.665   9.328  71.549  1.00  0.00     0.000 HD 
HETATM   16  C   UNL     1     -13.207  13.266  72.096  1.00  0.00    -0.464 C  
HETATM   17  O   UNL     1     -13.458  14.140  72.918  1.00  0.00    -0.628 OA 
HETATM   18  C   UNL     1     -12.310  13.460  70.883  1.00  0.00    -0.436 C  
BRANCH  18  19
HETATM   19  C   UNL     1     -12.842  14.542  69.923  1.00  0.00     0.015 C  
BRANCH  19  20
HETATM   20  C   UNL     1     -11.757  15.479  69.374  1.00  0.00    -0.382 C  
BRANCH  20  21
HETATM   21  C   UNL     1     -11.379  15.136  67.931  1.00  0.00    -0.346 C  
BRANCH  21  22
HETATM   22  C   UNL     1      -9.884  14.822  67.815  1.00  0.00    -0.214 C  
BRANCH  22  23
HETATM   23  C   UNL     1      -9.275  15.458  66.566  1.00  0.00    -0.323 C  
BRANCH  23  24
HETATM   24  C   UNL     1     -10.229  15.388  65.373  1.00  0.00    -0.408 C  
HETATM   25  C   UNL     1     -10.796  16.748  65.033  1.00  0.00    -0.117 C  
HETATM   26  O   UNL     1     -10.542  17.788  65.616  1.00  0.00    -0.577 OA 
HETATM   27  O   UNL     1     -11.647  16.696  63.983  1.00  0.00    -1.197 OA 
ENDBRANCH  23  24
ENDBRANCH  22  23
ENDBRANCH  21  22
ENDBRANCH  20  21
ENDBRANCH  19  20
ENDBRANCH  18  19
ENDBRANCH  10  11
ENDBRANCH   6   9
ENDBRANCH   5   6
ENDBRANCH   4   5
ENDBRANCH   3   4
ENDBRANCH   2   3
TORSDOF 12
ENDMDL
MODEL       94
REMARK 921   NORMALIZED FREE ENERGY PREDICTED BY IDOCK:   -4.88 KCAL/MOL
REMARK 922        TOTAL FREE ENERGY PREDICTED BY IDOCK:  -10.25 KCAL/MOL
REMARK 923 INTER-LIGAND FREE ENERGY PREDICTED BY IDOCK:   -8.17 KCAL/MOL
REMARK 924 INTRA-LIGAND FREE ENERGY PREDICTED BY IDOCK:   -2.08 KCAL/MOL
REMARK 927      BINDING AFFINITY PREDICTED BY RF-SCORE:    0.00 PKD
ROOT
HETATM    1  C   UNL     1     -11.822  13.137  64.255  1.00  0.00    -0.462 C  
HETATM    2  C   UNL     1     -11.422  11.768  63.735  1.00  0.00    -0.510 C  
ENDROOT
BRANCH   2   3
HETATM    3  C   UNL     1      -9.967  11.430  64.068  1.00  0.00    -0.341 C  
BRANCH   3   4
HETATM    4  C   UNL     1      -9.897  10.107  64.828  1.00  0.00    -0.382 C  
BRANCH   4   5
HETATM    5  C   UNL     1     -10.403  10.228  66.267  1.00  0.00    -0.256 C  
BRANCH   5   6
HETATM    6  C   UNL     1      -9.298  10.614  67.265  1.00  0.00    -0.150 C  
HETATM    7  O   UNL     1      -8.258   9.650  67.140  1.00  0.00    -0.119 OA 
HETATM    8  H   UNL     1      -7.575   9.889  67.757  1.00  0.00     0.000 HD 
BRANCH   6   9
HETATM    9  C   UNL     1      -9.794  10.690  68.693  1.00  0.00    -0.183 C  
HETATM   10  C   UNL     1     -10.913  10.143  69.194  1.00  0.00    -0.270 C  
BRANCH  10  11
HETATM   11  C   UNL     1     -11.429  10.391  70.595  1.00  0.00    -0.438 C  
HETATM   12  C   UNL     1     -12.444  11.554  70.584  1.00  0.00    -0.314 C  
HETATM   13  O   UNL     1     -11.803  12.822  70.555  1.00  0.00    -0.523 OA 
HETATM   14  C   UNL     1     -13.255  11.395  71.852  1.00  0.00    -0.485 C  
HETATM   15  H   UNL     1     -12.428  13.538  70.549  1.00  0.00     0.000 HD 
HETATM   16  C   UNL     1     -13.306   9.904  71.978  1.00  0.00    -0.432 C  
HETATM   17  O   UNL     1     -14.168   9.331  72.635  1.00  0.00    -0.498 OA 
HETATM   18  C   UNL     1     -12.187   9.198  71.227  1.00  0.00    -0.395 C  
BRANCH  18  19
HETATM   19  C   UNL     1     -11.272   8.384  72.162  1.00  0.00    -0.431 C  
BRANCH  19  20
HETATM   20  C   UNL     1     -11.174   6.895  71.800  1.00  0.00    -0.284 C  
BRANCH  20  21
HETATM   21  C   UNL     1     -10.344   6.665  70.534  1.00  0.00    -0.231 C  
BRANCH  21  22
HETATM   22  C   UNL     1     -11.197   6.039  69.426  1.00  0.00    -0.397 C  
BRANCH  22  23
HETATM   23  C   UNL     1     -10.966   6.735  68.085  1.00  0.00    -0.277 C  
BRANCH  23  24
HETATM   24  C   UNL     1     -10.630   5.733  66.979  1.00  0.00    -0.373 C  
HETATM   25  C   UNL     1      -9.247   5.970  66.414  1.00  0.00    -0.151 C  
HETATM   26  O   UNL     1      -8.474   6.840  66.775  1.00  0.00    -0.113 OA 
HETATM   27  O   UNL     1      -8.942   5.093  65.431  1.00  0.00    -0.157 OA 
ENDBRANCH  23  24
ENDBRANCH  22  23
ENDBRANCH  21  22
ENDBRANCH  20  21
ENDBRANCH  19  20
ENDBRANCH  18  19
ENDBRANCH  10  11
ENDBRANCH   6   9
ENDBRANCH   5   6
ENDBRANCH   4   5
ENDBRANCH   3   4
ENDBRANCH   2   3
TORSDOF 12
ENDMDL
MODEL       95
REMARK 921   NORMALIZED FREE ENERGY PREDICTED BY IDOCK:   -4.87 KCAL/MOL
REMARK 922        TOTAL FREE ENERGY PREDICTED BY IDOCK:  -10.23 KCAL/MOL
REMARK 923 INTER-LIGAND FREE ENERGY PREDICTED BY IDOCK:   -8.16 KCAL/MOL
REMARK 924 INTRA-LIGAND FREE ENERGY PREDICTED BY IDOCK:   -2.06 KCAL/MOL
REMARK 927      BINDING AFFINITY PREDICTED BY RF-SCORE:    0.00 PKD
ROOT
HETATM    1  C   UNL     1      -8.401   4.760  71.200  1.00  0.00    -0.107 C  
HETATM    2  C   UNL     1      -7.542   5.191  70.025  1.00  0.00    -0.064 C  
ENDROOT
BRANCH   2   3
HETATM    3  C   UNL     1      -7.612   4.193  68.867  1.00  0.00    -0.055 C  
BRANCH   3   4
HETATM    4  C   UNL     1      -9.070   3.907  68.510  1.00  0.00    -0.191 C  
BRANCH   4   5
HETATM    5  C   UNL     1      -9.477   4.516  67.166  1.00  0.00    -0.182 C  
BRANCH   5   6
HETATM    6  C   UNL     1     -10.559   5.602  67.299  1.00  0.00    -0.254 C  
HETATM    7  O   UNL     1     -10.411   6.484  66.191  1.00  0.00    -0.425 OA 
HETATM    8  H   UNL     1     -11.079   7.155  66.273  1.00  0.00     0.000 HD 
BRANCH   6   9
HETATM    9  C   UNL     1     -10.476   6.360  68.606  1.00  0.00    -0.260 C  
HETATM   10  C   UNL     1     -11.453   6.522  69.513  1.00  0.00    -0.384 C  
BRANCH  10  11
HETATM   11  C   UNL     1     -11.349   7.425  70.724  1.00  0.00    -0.303 C  
HETATM   12  C   UNL     1     -11.486   6.591  72.016  1.00  0.00    -0.300 C  
HETATM   13  O   UNL     1     -12.842   6.285  72.313  1.00  0.00    -0.525 OA 
HETATM   14  C   UNL     1     -10.877   7.439  73.112  1.00  0.00    -0.435 C  
HETATM   15  H   UNL     1     -12.926   5.772  73.108  1.00  0.00     0.000 HD 
HETATM   16  C   UNL     1      -9.774   8.124  72.367  1.00  0.00    -0.269 C  
HETATM   17  O   UNL     1      -8.799   8.603  72.936  1.00  0.00    -0.367 OA 
HETATM   18  C   UNL     1      -9.998   8.168  70.863  1.00  0.00    -0.214 C  
BRANCH  18  19
HETATM   19  C   UNL     1     -10.092   9.608  70.323  1.00  0.00    -0.331 C  
BRANCH  19  20
HETATM   20  C   UNL     1     -11.484  10.238  70.460  1.00  0.00    -0.427 C  
BRANCH  20  21
HETATM   21  C   UNL     1     -11.737  11.311  69.398  1.00  0.00    -0.409 C  
BRANCH  21  22
HETATM   22  C   UNL     1     -11.314  10.819  68.010  1.00  0.00    -0.378 C  
BRANCH  22  23
HETATM   23  C   UNL     1     -10.742  11.957  67.164  1.00  0.00    -0.280 C  
BRANCH  23  24
HETATM   24  C   UNL     1     -11.802  13.013  66.846  1.00  0.00    -0.442 C  
HETATM   25  C   UNL     1     -12.348  12.850  65.446  1.00  0.00    -0.485 C  
HETATM   26  O   UNL     1     -12.008  11.993  64.648  1.00  0.00    -0.323 OA 
HETATM   27  O   UNL     1     -13.282  13.782  65.152  1.00  0.00    -0.757 OA 
ENDBRANCH  23  24
ENDBRANCH  22  23
ENDBRANCH  21  22
ENDBRANCH  20  21
ENDBRANCH  19  20
ENDBRANCH  18  19
ENDBRANCH  10  11
ENDBRANCH   6   9
ENDBRANCH   5   6
ENDBRANCH   4   5
ENDBRANCH   3   4
ENDBRANCH   2   3
TORSDOF 12
ENDMDL
MODEL       96
REMARK 921   NORMALIZED FREE ENERGY PREDICTED BY IDOCK:   -4.86 KCAL/MOL
REMARK 922        TOTAL FREE ENERGY PREDICTED BY IDOCK:  -10.21 KCAL/MOL
REMARK 923 INTER-LIGAND FREE ENERGY PREDICTED BY IDOCK:   -8.28 KCAL/MOL
REMARK 924 INTRA-LIGAND FREE ENERGY PREDICTED BY IDOCK:   -1.94 KCAL/MOL
REMARK 927      BINDING AFFINITY PREDICTED BY RF-SCORE:    0.00 PKD
ROOT
HETATM    1  C   UNL     1      -6.301   7.524  70.348  1.00  0.00    -0.038 C  
HETATM    2  C   UNL     1      -7.588   7.390  69.555  1.00  0.00    -0.099 C  
ENDROOT
BRANCH   2   3
HETATM    3  C   UNL     1      -7.351   7.521  68.049  1.00  0.00    -0.096 C  
BRANCH   3   4
HETATM    4  C   UNL     1      -8.449   6.790  67.279  1.00  0.00    -0.120 C  
BRANCH   4   5
HETATM    5  C   UNL     1      -9.298   7.734  66.426  1.00  0.00    -0.237 C  
BRANCH   5   6
HETATM    6  C   UNL     1      -9.842   8.937  67.215  1.00  0.00    -0.199 C  
HETATM    7  O   UNL     1     -10.838   8.444  68.105  1.00  0.00    -0.443 OA 
HETATM    8  H   UNL     1     -11.175   9.188  68.592  1.00  0.00     0.000 HD 
BRANCH   6   9
HETATM    9  C   UNL     1     -10.406  10.022  66.322  1.00  0.00    -0.235 C  
HETATM   10  C   UNL     1      -9.746  11.070  65.802  1.00  0.00    -0.268 C  
BRANCH  10  11
HETATM   11  C   UNL     1     -10.408  12.202  65.047  1.00  0.00    -0.320 C  
HETATM   12  C   UNL     1     -11.314  11.634  63.934  1.00  0.00    -0.371 C  
HETATM   13  O   UNL     1     -10.571  11.251  62.784  1.00  0.00    -0.703 OA 
HETATM   14  C   UNL     1     -12.285  12.745  63.596  1.00  0.00    -0.597 C  
HETATM   15  H   UNL     1     -11.129  10.902  62.099  1.00  0.00     0.000 HD 
HETATM   16  C   UNL     1     -12.474  13.381  64.938  1.00  0.00    -0.396 C  
HETATM   17  O   UNL     1     -13.455  14.066  65.205  1.00  0.00    -0.622 OA 
HETATM   18  C   UNL     1     -11.334  13.099  65.905  1.00  0.00    -0.338 C  
BRANCH  18  19
HETATM   19  C   UNL     1     -10.612  14.383  66.355  1.00  0.00    -0.297 C  
BRANCH  19  20
HETATM   20  C   UNL     1     -11.012  14.868  67.755  1.00  0.00    -0.294 C  
BRANCH  20  21
HETATM   21  C   UNL     1     -12.132  14.017  68.360  1.00  0.00    -0.318 C  
BRANCH  21  22
HETATM   22  C   UNL     1     -11.667  13.335  69.651  1.00  0.00    -0.369 C  
BRANCH  22  23
HETATM   23  C   UNL     1     -11.618  11.816  69.493  1.00  0.00    -0.398 C  
BRANCH  23  24
HETATM   24  C   UNL     1     -12.353  11.105  70.630  1.00  0.00    -0.482 C  
HETATM   25  C   UNL     1     -11.538   9.961  71.191  1.00  0.00    -0.389 C  
HETATM   26  O   UNL     1     -10.431   9.625  70.807  1.00  0.00    -0.290 OA 
HETATM   27  O   UNL     1     -12.181   9.322  72.194  1.00  0.00    -0.359 OA 
ENDBRANCH  23  24
ENDBRANCH  22  23
ENDBRANCH  21  22
ENDBRANCH  20  21
ENDBRANCH  19  20
ENDBRANCH  18  19
ENDBRANCH  10  11
ENDBRANCH   6   9
ENDBRANCH   5   6
ENDBRANCH   4   5
ENDBRANCH   3   4
ENDBRANCH   2   3
TORSDOF 12
ENDMDL
MODEL       97
REMARK 921   NORMALIZED FREE ENERGY PREDICTED BY IDOCK:   -4.85 KCAL/MOL
REMARK 922        TOTAL FREE ENERGY PREDICTED BY IDOCK:  -10.21 KCAL/MOL
REMARK 923 INTER-LIGAND FREE ENERGY PREDICTED BY IDOCK:   -7.83 KCAL/MOL
REMARK 924 INTRA-LIGAND FREE ENERGY PREDICTED BY IDOCK:   -2.37 KCAL/MOL
REMARK 927      BINDING AFFINITY PREDICTED BY RF-SCORE:    0.00 PKD
ROOT
HETATM    1  C   UNL     1     -11.498  12.477  68.158  1.00  0.00    -0.368 C  
HETATM    2  C   UNL     1     -11.853  13.405  67.011  1.00  0.00    -0.443 C  
ENDROOT
BRANCH   2   3
HETATM    3  C   UNL     1     -10.613  14.061  66.399  1.00  0.00    -0.280 C  
BRANCH   3   4
HETATM    4  C   UNL     1     -10.808  14.248  64.895  1.00  0.00    -0.429 C  
BRANCH   4   5
HETATM    5  C   UNL     1     -12.040  13.512  64.365  1.00  0.00    -0.468 C  
BRANCH   5   6
HETATM    6  C   UNL     1     -11.706  12.480  63.274  1.00  0.00    -0.398 C  
HETATM    7  O   UNL     1     -12.889  11.728  63.026  1.00  0.00    -0.844 OA 
HETATM    8  H   UNL     1     -12.682  11.090  62.352  1.00  0.00     0.000 HD 
BRANCH   6   9
HETATM    9  C   UNL     1     -10.558  11.570  63.656  1.00  0.00    -0.491 C  
HETATM   10  C   UNL     1     -10.533  10.670  64.652  1.00  0.00    -0.275 C  
BRANCH  10  11
HETATM   11  C   UNL     1      -9.298   9.905  65.077  1.00  0.00    -0.323 C  
HETATM   12  C   UNL     1      -8.385   9.659  63.858  1.00  0.00    -0.172 C  
HETATM   13  O   UNL     1      -8.833   8.567  63.066  1.00  0.00    -0.428 OA 
HETATM   14  C   UNL     1      -7.012   9.375  64.430  1.00  0.00    -0.101 C  
HETATM   15  H   UNL     1      -8.271   8.416  62.315  1.00  0.00     0.000 HD 
HETATM   16  C   UNL     1      -7.010  10.267  65.632  1.00  0.00    -0.133 C  
HETATM   17  O   UNL     1      -5.973  10.641  66.168  1.00  0.00    -0.094 OA 
HETATM   18  C   UNL     1      -8.406  10.638  66.110  1.00  0.00    -0.158 C  
BRANCH  18  19
HETATM   19  C   UNL     1      -8.688  10.148  67.543  1.00  0.00    -0.125 C  
BRANCH  19  20
HETATM   20  C   UNL     1      -8.730   8.621  67.685  1.00  0.00    -0.136 C  
BRANCH  20  21
HETATM   21  C   UNL     1      -9.671   8.173  68.806  1.00  0.00    -0.155 C  
BRANCH  21  22
HETATM   22  C   UNL     1      -8.944   8.144  70.154  1.00  0.00    -0.146 C  
BRANCH  22  23
HETATM   23  C   UNL     1      -9.791   8.778  71.259  1.00  0.00    -0.336 C  
BRANCH  23  24
HETATM   24  C   UNL     1     -10.753   9.828  70.701  1.00  0.00    -0.394 C  
HETATM   25  C   UNL     1     -12.095   9.779  71.397  1.00  0.00    -0.400 C  
HETATM   26  O   UNL     1     -12.400   9.012  72.294  1.00  0.00    -0.364 OA 
HETATM   27  O   UNL     1     -12.955  10.699  70.907  1.00  0.00    -0.370 OA 
ENDBRANCH  23  24
ENDBRANCH  22  23
ENDBRANCH  21  22
ENDBRANCH  20  21
ENDBRANCH  19  20
ENDBRANCH  18  19
ENDBRANCH  10  11
ENDBRANCH   6   9
ENDBRANCH   5   6
ENDBRANCH   4   5
ENDBRANCH   3   4
ENDBRANCH   2   3
TORSDOF 12
ENDMDL
MODEL       98
REMARK 921   NORMALIZED FREE ENERGY PREDICTED BY IDOCK:   -4.85 KCAL/MOL
REMARK 922        TOTAL FREE ENERGY PREDICTED BY IDOCK:  -10.20 KCAL/MOL
REMARK 923 INTER-LIGAND FREE ENERGY PREDICTED BY IDOCK:   -8.75 KCAL/MOL
REMARK 924 INTRA-LIGAND FREE ENERGY PREDICTED BY IDOCK:   -1.45 KCAL/MOL
REMARK 927      BINDING AFFINITY PREDICTED BY RF-SCORE:    0.00 PKD
ROOT
HETATM    1  C   UNL     1     -11.279   5.709  72.103  1.00  0.00    -0.288 C  
HETATM    2  C   UNL     1     -10.738   6.716  73.102  1.00  0.00    -0.306 C  
ENDROOT
BRANCH   2   3
HETATM    3  C   UNL     1     -10.169   7.958  72.413  1.00  0.00    -0.327 C  
BRANCH   3   4
HETATM    4  C   UNL     1     -11.305   8.870  71.954  1.00  0.00    -0.446 C  
BRANCH   4   5
HETATM    5  C   UNL     1     -10.893   9.790  70.803  1.00  0.00    -0.403 C  
BRANCH   5   6
HETATM    6  C   UNL     1     -11.994  10.785  70.400  1.00  0.00    -0.357 C  
HETATM    7  O   UNL     1     -12.777  10.163  69.386  1.00  0.00    -0.386 OA 
HETATM    8  H   UNL     1     -13.457  10.778  69.137  1.00  0.00     0.000 HD 
BRANCH   6   9
HETATM    9  C   UNL     1     -11.444  12.111  69.920  1.00  0.00    -0.210 C  
HETATM   10  C   UNL     1     -12.144  13.209  69.592  1.00  0.00    -0.317 C  
BRANCH  10  11
HETATM   11  C   UNL     1     -11.539  14.449  68.968  1.00  0.00    -0.330 C  
HETATM   12  C   UNL     1     -11.701  15.651  69.923  1.00  0.00    -0.362 C  
HETATM   13  O   UNL     1     -13.006  16.211  69.861  1.00  0.00    -0.517 OA 
HETATM   14  C   UNL     1     -10.664  16.662  69.480  1.00  0.00    -0.306 C  
HETATM   15  H   UNL     1     -13.105  16.951  70.448  1.00  0.00     0.000 HD 
HETATM   16  C   UNL     1      -9.553  15.762  69.038  1.00  0.00    -0.243 C  
HETATM   17  O   UNL     1      -8.391  16.144  68.964  1.00  0.00    -0.227 OA 
HETATM   18  C   UNL     1     -10.019  14.357  68.687  1.00  0.00    -0.241 C  
BRANCH  18  19
HETATM   19  C   UNL     1      -9.742  13.994  67.215  1.00  0.00    -0.237 C  
BRANCH  19  20
HETATM   20  C   UNL     1      -8.864  12.748  67.033  1.00  0.00    -0.213 C  
BRANCH  20  21
HETATM   21  C   UNL     1      -9.659  11.560  66.484  1.00  0.00    -0.225 C  
BRANCH  21  22
HETATM   22  C   UNL     1     -11.121  11.947  66.234  1.00  0.00    -0.364 C  
BRANCH  22  23
HETATM   23  C   UNL     1     -11.433  12.014  64.739  1.00  0.00    -0.357 C  
BRANCH  23  24
HETATM   24  C   UNL     1     -11.207  13.419  64.177  1.00  0.00    -0.379 C  
HETATM   25  C   UNL     1     -12.343  14.351  64.535  1.00  0.00    -0.418 C  
HETATM   26  O   UNL     1     -13.327  14.050  65.189  1.00  0.00    -0.703 OA 
HETATM   27  O   UNL     1     -12.156  15.594  64.038  1.00  0.00    -0.587 OA 
ENDBRANCH  23  24
ENDBRANCH  22  23
ENDBRANCH  21  22
ENDBRANCH  20  21
ENDBRANCH  19  20
ENDBRANCH  18  19
ENDBRANCH  10  11
ENDBRANCH   6   9
ENDBRANCH   5   6
ENDBRANCH   4   5
ENDBRANCH   3   4
ENDBRANCH   2   3
TORSDOF 12
ENDMDL
MODEL       99
REMARK 921   NORMALIZED FREE ENERGY PREDICTED BY IDOCK:   -4.85 KCAL/MOL
REMARK 922        TOTAL FREE ENERGY PREDICTED BY IDOCK:  -10.20 KCAL/MOL
REMARK 923 INTER-LIGAND FREE ENERGY PREDICTED BY IDOCK:   -8.68 KCAL/MOL
REMARK 924 INTRA-LIGAND FREE ENERGY PREDICTED BY IDOCK:   -1.52 KCAL/MOL
REMARK 927      BINDING AFFINITY PREDICTED BY RF-SCORE:    0.00 PKD
ROOT
HETATM    1  C   UNL     1     -13.144  15.588  73.510  1.00  0.00    -0.616 C  
HETATM    2  C   UNL     1     -14.247  15.258  72.520  1.00  0.00    -0.477 C  
ENDROOT
BRANCH   2   3
HETATM    3  C   UNL     1     -13.968  13.959  71.762  1.00  0.00    -0.422 C  
BRANCH   3   4
HETATM    4  C   UNL     1     -12.461  13.736  71.642  1.00  0.00    -0.309 C  
BRANCH   4   5
HETATM    5  C   UNL     1     -11.910  14.158  70.278  1.00  0.00    -0.373 C  
BRANCH   5   6
HETATM    6  C   UNL     1     -11.777  15.683  70.125  1.00  0.00    -0.360 C  
HETATM    7  O   UNL     1     -12.944  16.145  69.453  1.00  0.00    -0.240 OA 
HETATM    8  H   UNL     1     -12.862  17.087  69.359  1.00  0.00     0.000 HD 
BRANCH   6   9
HETATM    9  C   UNL     1     -10.527  16.094  69.378  1.00  0.00    -0.283 C  
HETATM   10  C   UNL     1     -10.334  17.222  68.676  1.00  0.00    -0.357 C  
BRANCH  10  11
HETATM   11  C   UNL     1      -9.114  17.496  67.823  1.00  0.00    -0.249 C  
HETATM   12  C   UNL     1      -9.335  18.771  66.982  1.00  0.00    -0.297 C  
HETATM   13  O   UNL     1     -10.130  18.520  65.831  1.00  0.00    -0.532 OA 
HETATM   14  C   UNL     1      -7.952  19.239  66.584  1.00  0.00    -0.288 C  
HETATM   15  H   UNL     1     -10.266  19.305  65.313  1.00  0.00     0.000 HD 
HETATM   16  C   UNL     1      -7.158  18.854  67.793  1.00  0.00    -0.227 C  
HETATM   17  O   UNL     1      -6.083  19.378  68.065  1.00  0.00    -0.205 OA 
HETATM   18  C   UNL     1      -7.812  17.758  68.620  1.00  0.00    -0.278 C  
BRANCH  18  19
HETATM   19  C   UNL     1      -6.944  16.488  68.708  1.00  0.00    -0.180 C  
BRANCH  19  20
HETATM   20  C   UNL     1      -6.960  15.629  67.437  1.00  0.00    -0.234 C  
BRANCH  20  21
HETATM   21  C   UNL     1      -7.696  14.303  67.647  1.00  0.00    -0.190 C  
BRANCH  21  22
HETATM   22  C   UNL     1      -8.793  14.112  66.595  1.00  0.00    -0.141 C  
BRANCH  22  23
HETATM   23  C   UNL     1     -10.148  13.836  67.246  1.00  0.00    -0.239 C  
BRANCH  23  24
HETATM   24  C   UNL     1     -11.297  14.444  66.439  1.00  0.00    -0.351 C  
HETATM   25  C   UNL     1     -12.198  13.376  65.861  1.00  0.00    -0.450 C  
HETATM   26  O   UNL     1     -12.054  12.174  66.004  1.00  0.00    -0.612 OA 
HETATM   27  O   UNL     1     -13.214  13.903  65.141  1.00  0.00    -0.768 OA 
ENDBRANCH  23  24
ENDBRANCH  22  23
ENDBRANCH  21  22
ENDBRANCH  20  21
ENDBRANCH  19  20
ENDBRANCH  18  19
ENDBRANCH  10  11
ENDBRANCH   6   9
ENDBRANCH   5   6
ENDBRANCH   4   5
ENDBRANCH   3   4
ENDBRANCH   2   3
TORSDOF 12
ENDMDL
MODEL      100
REMARK 921   NORMALIZED FREE ENERGY PREDICTED BY IDOCK:   -4.85 KCAL/MOL
REMARK 922        TOTAL FREE ENERGY PREDICTED BY IDOCK:  -10.19 KCAL/MOL
REMARK 923 INTER-LIGAND FREE ENERGY PREDICTED BY IDOCK:   -8.25 KCAL/MOL
REMARK 924 INTRA-LIGAND FREE ENERGY PREDICTED BY IDOCK:   -1.94 KCAL/MOL
REMARK 927      BINDING AFFINITY PREDICTED BY RF-SCORE:    0.00 PKD
ROOT
HETATM    1  C   UNL     1     -10.542   5.516  69.494  1.00  0.00    -0.366 C  
HETATM    2  C   UNL     1     -11.042   6.614  68.571  1.00  0.00    -0.284 C  
ENDROOT
BRANCH   2   3
HETATM    3  C   UNL     1     -10.354   6.572  67.205  1.00  0.00    -0.283 C  
BRANCH   3   4
HETATM    4  C   UNL     1      -9.435   7.781  67.043  1.00  0.00    -0.210 C  
BRANCH   4   5
HETATM    5  C   UNL     1      -9.500   8.734  68.239  1.00  0.00    -0.150 C  
BRANCH   5   6
HETATM    6  C   UNL     1      -8.923  10.127  67.935  1.00  0.00    -0.128 C  
HETATM    7  O   UNL     1      -8.811  10.819  69.174  1.00  0.00    -0.265 OA 
HETATM    8  H   UNL     1      -8.455  11.680  68.986  1.00  0.00     0.000 HD 
BRANCH   6   9
HETATM    9  C   UNL     1      -9.765  10.912  66.953  1.00  0.00    -0.210 C  
HETATM   10  C   UNL     1      -9.363  11.461  65.795  1.00  0.00    -0.247 C  
BRANCH  10  11
HETATM   11  C   UNL     1     -10.221  12.368  64.939  1.00  0.00    -0.301 C  
HETATM   12  C   UNL     1     -11.252  11.529  64.154  1.00  0.00    -0.314 C  
HETATM   13  O   UNL     1     -10.680  10.921  63.003  1.00  0.00    -0.762 OA 
HETATM   14  C   UNL     1     -12.345  12.499  63.758  1.00  0.00    -0.595 C  
HETATM   15  H   UNL     1     -11.315  10.405  62.520  1.00  0.00     0.000 HD 
HETATM   16  C   UNL     1     -12.359  13.417  64.940  1.00  0.00    -0.412 C  
HETATM   17  O   UNL     1     -13.331  14.109  65.220  1.00  0.00    -0.715 OA 
HETATM   18  C   UNL     1     -11.059  13.403  65.730  1.00  0.00    -0.295 C  
BRANCH  18  19
HETATM   19  C   UNL     1     -10.370  14.780  65.755  1.00  0.00    -0.358 C  
BRANCH  19  20
HETATM   20  C   UNL     1      -9.286  14.918  66.834  1.00  0.00    -0.258 C  
BRANCH  20  21
HETATM   21  C   UNL     1      -9.736  14.338  68.178  1.00  0.00    -0.226 C  
BRANCH  21  22
HETATM   22  C   UNL     1     -10.535  15.369  68.981  1.00  0.00    -0.249 C  
BRANCH  22  23
HETATM   23  C   UNL     1     -11.985  14.925  69.171  1.00  0.00    -0.313 C  
BRANCH  23  24
HETATM   24  C   UNL     1     -12.096  13.408  69.329  1.00  0.00    -0.312 C  
HETATM   25  C   UNL     1     -12.485  13.022  70.739  1.00  0.00    -0.302 C  
HETATM   26  O   UNL     1     -12.693  13.800  71.654  1.00  0.00    -0.340 OA 
HETATM   27  O   UNL     1     -12.580  11.682  70.892  1.00  0.00    -0.358 OA 
ENDBRANCH  23  24
ENDBRANCH  22  23
ENDBRANCH  21  22
ENDBRANCH  20  21
ENDBRANCH  19  20
ENDBRANCH  18  19
ENDBRANCH  10  11
ENDBRANCH   6   9
ENDBRANCH   5   6
ENDBRANCH   4   5
ENDBRANCH   3   4
ENDBRANCH   2   3
TORSDOF 12
ENDMDL
MODEL      101
REMARK 921   NORMALIZED FREE ENERGY PREDICTED BY IDOCK:   -4.85 KCAL/MOL
REMARK 922        TOTAL FREE ENERGY PREDICTED BY IDOCK:  -10.19 KCAL/MOL
REMARK 923 INTER-LIGAND FREE ENERGY PREDICTED BY IDOCK:   -8.62 KCAL/MOL
REMARK 924 INTRA-LIGAND FREE ENERGY PREDICTED BY IDOCK:   -1.57 KCAL/MOL
REMARK 927      BINDING AFFINITY PREDICTED BY RF-SCORE:    0.00 PKD
ROOT
HETATM    1  C   UNL     1     -10.412   5.608  69.220  1.00  0.00    -0.356 C  
HETATM    2  C   UNL     1     -11.523   6.504  69.737  1.00  0.00    -0.443 C  
ENDROOT
BRANCH   2   3
HETATM    3  C   UNL     1     -11.560   6.549  71.266  1.00  0.00    -0.381 C  
BRANCH   3   4
HETATM    4  C   UNL     1     -12.364   7.760  71.735  1.00  0.00    -0.346 C  
BRANCH   4   5
HETATM    5  C   UNL     1     -11.553   9.058  71.690  1.00  0.00    -0.426 C  
BRANCH   5   6
HETATM    6  C   UNL     1     -12.314  10.222  71.034  1.00  0.00    -0.381 C  
HETATM    7  O   UNL     1     -13.602   9.736  70.670  1.00  0.00    -0.600 OA 
HETATM    8  H   UNL     1     -14.071  10.456  70.264  1.00  0.00     0.000 HD 
BRANCH   6   9
HETATM    9  C   UNL     1     -11.594  10.793  69.831  1.00  0.00    -0.410 C  
HETATM   10  C   UNL     1     -11.140  10.119  68.761  1.00  0.00    -0.250 C  
BRANCH  10  11
HETATM   11  C   UNL     1     -10.289  10.730  67.668  1.00  0.00    -0.236 C  
HETATM   12  C   UNL     1      -9.423   9.639  67.004  1.00  0.00    -0.154 C  
HETATM   13  O   UNL     1      -8.272   9.327  67.778  1.00  0.00    -0.114 OA 
HETATM   14  C   UNL     1      -9.024  10.203  65.657  1.00  0.00    -0.199 C  
HETATM   15  H   UNL     1      -7.738   8.655  67.369  1.00  0.00     0.000 HD 
HETATM   16  C   UNL     1     -10.245  10.992  65.301  1.00  0.00    -0.284 C  
HETATM   17  O   UNL     1     -10.513  11.298  64.145  1.00  0.00    -0.317 OA 
HETATM   18  C   UNL     1     -11.089  11.373  66.509  1.00  0.00    -0.312 C  
BRANCH  18  19
HETATM   19  C   UNL     1     -11.207  12.899  66.687  1.00  0.00    -0.342 C  
BRANCH  19  20
HETATM   20  C   UNL     1     -12.405  13.523  65.958  1.00  0.00    -0.486 C  
BRANCH  20  21
HETATM   21  C   UNL     1     -11.969  14.558  64.918  1.00  0.00    -0.425 C  
BRANCH  21  22
HETATM   22  C   UNL     1     -10.502  14.951  65.117  1.00  0.00    -0.442 C  
BRANCH  22  23
HETATM   23  C   UNL     1     -10.369  16.413  65.545  1.00  0.00    -0.336 C  
BRANCH  23  24
HETATM   24  C   UNL     1     -10.389  16.560  67.068  1.00  0.00    -0.301 C  
HETATM   25  C   UNL     1     -10.253  18.006  67.489  1.00  0.00    -0.369 C  
HETATM   26  O   UNL     1     -10.141  18.956  66.734  1.00  0.00    -0.328 OA 
HETATM   27  O   UNL     1     -10.263  18.147  68.834  1.00  0.00    -0.379 OA 
ENDBRANCH  23  24
ENDBRANCH  22  23
ENDBRANCH  21  22
ENDBRANCH  20  21
ENDBRANCH  19  20
ENDBRANCH  18  19
ENDBRANCH  10  11
ENDBRANCH   6   9
ENDBRANCH   5   6
ENDBRANCH   4   5
ENDBRANCH   3   4
ENDBRANCH   2   3
TORSDOF 12
ENDMDL
MODEL      102
REMARK 921   NORMALIZED FREE ENERGY PREDICTED BY IDOCK:   -4.84 KCAL/MOL
REMARK 922        TOTAL FREE ENERGY PREDICTED BY IDOCK:  -10.18 KCAL/MOL
REMARK 923 INTER-LIGAND FREE ENERGY PREDICTED BY IDOCK:   -8.27 KCAL/MOL
REMARK 924 INTRA-LIGAND FREE ENERGY PREDICTED BY IDOCK:   -1.91 KCAL/MOL
REMARK 927      BINDING AFFINITY PREDICTED BY RF-SCORE:    0.00 PKD
ROOT
HETATM    1  C   UNL     1     -10.650   8.365  67.212  1.00  0.00    -0.328 C  
HETATM    2  C   UNL     1     -10.243   9.775  66.825  1.00  0.00    -0.300 C  
ENDROOT
BRANCH   2   3
HETATM    3  C   UNL     1      -9.861   9.876  65.347  1.00  0.00    -0.384 C  
BRANCH   3   4
HETATM    4  C   UNL     1      -9.969  11.325  64.876  1.00  0.00    -0.323 C  
BRANCH   4   5
HETATM    5  C   UNL     1     -11.093  12.090  65.578  1.00  0.00    -0.361 C  
BRANCH   5   6
HETATM    6  C   UNL     1     -10.616  13.395  66.238  1.00  0.00    -0.291 C  
HETATM    7  O   UNL     1      -9.298  13.652  65.763  1.00  0.00    -0.494 OA 
HETATM    8  H   UNL     1      -9.004  14.459  66.171  1.00  0.00     0.000 HD 
BRANCH   6   9
HETATM    9  C   UNL     1     -10.643  13.335  67.749  1.00  0.00    -0.249 C  
HETATM   10  C   UNL     1     -11.715  13.148  68.536  1.00  0.00    -0.387 C  
BRANCH  10  11
HETATM   11  C   UNL     1     -11.693  13.256  70.046  1.00  0.00    -0.295 C  
HETATM   12  C   UNL     1     -11.583  14.737  70.466  1.00  0.00    -0.279 C  
HETATM   13  O   UNL     1     -10.250  15.222  70.374  1.00  0.00    -0.483 OA 
HETATM   14  C   UNL     1     -12.073  14.790  71.897  1.00  0.00    -0.409 C  
HETATM   15  H   UNL     1     -10.183  16.133  70.633  1.00  0.00     0.000 HD 
HETATM   16  C   UNL     1     -13.138  13.738  71.877  1.00  0.00    -0.388 C  
HETATM   17  O   UNL     1     -14.043  13.707  72.702  1.00  0.00    -0.746 OA 
HETATM   18  C   UNL     1     -12.966  12.729  70.751  1.00  0.00     0.007 C  
BRANCH  18  19
HETATM   19  C   UNL     1     -12.765  11.293  71.273  1.00  0.00    -0.510 C  
BRANCH  19  20
HETATM   20  C   UNL     1     -11.607  10.541  70.603  1.00  0.00    -0.445 C  
BRANCH  20  21
HETATM   21  C   UNL     1     -11.760   9.022  70.724  1.00  0.00    -0.286 C  
BRANCH  21  22
HETATM   22  C   UNL     1     -11.144   8.512  72.030  1.00  0.00    -0.412 C  
BRANCH  22  23
HETATM   23  C   UNL     1      -9.627   8.699  72.043  1.00  0.00    -0.385 C  
BRANCH  23  24
HETATM   24  C   UNL     1      -8.940   7.819  70.997  1.00  0.00    -0.147 C  
HETATM   25  C   UNL     1      -8.206   8.649  69.967  1.00  0.00    -0.122 C  
HETATM   26  O   UNL     1      -8.148   9.866  69.948  1.00  0.00    -0.164 OA 
HETATM   27  O   UNL     1      -7.600   7.881  69.034  1.00  0.00    -0.095 OA 
ENDBRANCH  23  24
ENDBRANCH  22  23
ENDBRANCH  21  22
ENDBRANCH  20  21
ENDBRANCH  19  20
ENDBRANCH  18  19
ENDBRANCH  10  11
ENDBRANCH   6   9
ENDBRANCH   5   6
ENDBRANCH   4   5
ENDBRANCH   3   4
ENDBRANCH   2   3
TORSDOF 12
ENDMDL
MODEL      103
REMARK 921   NORMALIZED FREE ENERGY PREDICTED BY IDOCK:   -4.83 KCAL/MOL
REMARK 922        TOTAL FREE ENERGY PREDICTED BY IDOCK:  -10.17 KCAL/MOL
REMARK 923 INTER-LIGAND FREE ENERGY PREDICTED BY IDOCK:   -8.21 KCAL/MOL
REMARK 924 INTRA-LIGAND FREE ENERGY PREDICTED BY IDOCK:   -1.96 KCAL/MOL
REMARK 927      BINDING AFFINITY PREDICTED BY RF-SCORE:    0.00 PKD
ROOT
HETATM    1  C   UNL     1      -9.274  15.645  66.114  1.00  0.00    -0.378 C  
HETATM    2  C   UNL     1      -8.394  14.952  67.139  1.00  0.00    -0.247 C  
ENDROOT
BRANCH   2   3
HETATM    3  C   UNL     1      -8.432  13.429  66.992  1.00  0.00    -0.137 C  
BRANCH   3   4
HETATM    4  C   UNL     1      -7.983  12.766  68.293  1.00  0.00    -0.151 C  
BRANCH   4   5
HETATM    5  C   UNL     1      -6.881  11.728  68.075  1.00  0.00    -0.074 C  
BRANCH   5   6
HETATM    6  C   UNL     1      -7.200  10.364  68.710  1.00  0.00    -0.085 C  
HETATM    7  O   UNL     1      -6.843   9.362  67.763  1.00  0.00    -0.077 OA 
HETATM    8  H   UNL     1      -7.040   8.519  68.156  1.00  0.00     0.000 HD 
BRANCH   6   9
HETATM    9  C   UNL     1      -8.652  10.228  69.116  1.00  0.00    -0.167 C  
HETATM   10  C   UNL     1      -9.152   9.461  70.098  1.00  0.00    -0.262 C  
BRANCH  10  11
HETATM   11  C   UNL     1     -10.631   9.253  70.346  1.00  0.00    -0.298 C  
HETATM   12  C   UNL     1     -10.837   8.425  71.633  1.00  0.00    -0.268 C  
HETATM   13  O   UNL     1     -10.641   7.035  71.411  1.00  0.00    -0.217 OA 
HETATM   14  C   UNL     1     -12.261   8.701  72.067  1.00  0.00    -0.439 C  
HETATM   15  H   UNL     1     -10.768   6.526  72.203  1.00  0.00     0.000 HD 
HETATM   16  C   UNL     1     -12.418  10.131  71.653  1.00  0.00    -0.409 C  
HETATM   17  O   UNL     1     -13.265  10.866  72.147  1.00  0.00    -0.474 OA 
HETATM   18  C   UNL     1     -11.439  10.555  70.568  1.00  0.00    -0.433 C  
BRANCH  18  19
HETATM   19  C   UNL     1     -12.149  11.001  69.275  1.00  0.00    -0.363 C  
BRANCH  19  20
HETATM   20  C   UNL     1     -11.850  12.449  68.865  1.00  0.00    -0.350 C  
BRANCH  20  21
HETATM   21  C   UNL     1     -11.547  13.338  70.075  1.00  0.00    -0.212 C  
BRANCH  21  22
HETATM   22  C   UNL     1     -11.695  14.820  69.717  1.00  0.00    -0.354 C  
BRANCH  22  23
HETATM   23  C   UNL     1     -12.670  15.527  70.658  1.00  0.00    -0.487 C  
BRANCH  23  24
HETATM   24  C   UNL     1     -12.022  15.851  72.005  1.00  0.00    -0.602 C  
HETATM   25  C   UNL     1     -12.615  15.022  73.122  1.00  0.00    -0.469 C  
HETATM   26  O   UNL     1     -13.498  14.191  72.996  1.00  0.00    -0.661 OA 
HETATM   27  O   UNL     1     -12.053  15.305  74.319  1.00  0.00    -0.603 OA 
ENDBRANCH  23  24
ENDBRANCH  22  23
ENDBRANCH  21  22
ENDBRANCH  20  21
ENDBRANCH  19  20
ENDBRANCH  18  19
ENDBRANCH  10  11
ENDBRANCH   6   9
ENDBRANCH   5   6
ENDBRANCH   4   5
ENDBRANCH   3   4
ENDBRANCH   2   3
TORSDOF 12
ENDMDL
MODEL      104
REMARK 921   NORMALIZED FREE ENERGY PREDICTED BY IDOCK:   -4.82 KCAL/MOL
REMARK 922        TOTAL FREE ENERGY PREDICTED BY IDOCK:  -10.15 KCAL/MOL
REMARK 923 INTER-LIGAND FREE ENERGY PREDICTED BY IDOCK:   -7.60 KCAL/MOL
REMARK 924 INTRA-LIGAND FREE ENERGY PREDICTED BY IDOCK:   -2.55 KCAL/MOL
REMARK 927      BINDING AFFINITY PREDICTED BY RF-SCORE:    0.00 PKD
ROOT
HETATM    1  C   UNL     1      -5.750  14.302  68.638  1.00  0.00    -0.088 C  
HETATM    2  C   UNL     1      -6.506  13.636  69.774  1.00  0.00    -0.060 C  
ENDROOT
BRANCH   2   3
HETATM    3  C   UNL     1      -6.034  12.200  70.014  1.00  0.00    -0.156 C  
BRANCH   3   4
HETATM    4  C   UNL     1      -7.106  11.212  69.556  1.00  0.00    -0.088 C  
BRANCH   4   5
HETATM    5  C   UNL     1      -7.010  10.890  68.063  1.00  0.00    -0.072 C  
BRANCH   5   6
HETATM    6  C   UNL     1      -8.226  11.383  67.260  1.00  0.00    -0.150 C  
HETATM    7  O   UNL     1      -7.762  12.389  66.365  1.00  0.00    -0.316 OA 
HETATM    8  H   UNL     1      -8.513  12.694  65.868  1.00  0.00     0.000 HD 
BRANCH   6   9
HETATM    9  C   UNL     1      -9.337  11.914  68.138  1.00  0.00    -0.191 C  
HETATM   10  C   UNL     1     -10.652  11.662  68.026  1.00  0.00    -0.232 C  
BRANCH  10  11
HETATM   11  C   UNL     1     -11.724  12.353  68.842  1.00  0.00    -0.372 C  
HETATM   12  C   UNL     1     -11.993  11.558  70.137  1.00  0.00    -0.369 C  
HETATM   13  O   UNL     1     -12.835  10.435  69.910  1.00  0.00    -0.543 OA 
HETATM   14  C   UNL     1     -12.652  12.538  71.084  1.00  0.00    -0.349 C  
HETATM   15  H   UNL     1     -13.000   9.946  70.708  1.00  0.00     0.000 HD 
HETATM   16  C   UNL     1     -11.961  13.811  70.709  1.00  0.00    -0.240 C  
HETATM   17  O   UNL     1     -11.905  14.773  71.467  1.00  0.00    -0.338 OA 
HETATM   18  C   UNL     1     -11.360  13.782  69.312  1.00  0.00    -0.325 C  
BRANCH  18  19
HETATM   19  C   UNL     1     -11.971  14.850  68.385  1.00  0.00    -0.255 C  
BRANCH  19  20
HETATM   20  C   UNL     1     -10.986  15.949  67.962  1.00  0.00    -0.336 C  
BRANCH  20  21
HETATM   21  C   UNL     1      -9.863  15.405  67.075  1.00  0.00    -0.236 C  
BRANCH  21  22
HETATM   22  C   UNL     1     -10.279  15.406  65.601  1.00  0.00    -0.403 C  
BRANCH  22  23
HETATM   23  C   UNL     1     -10.410  13.983  65.057  1.00  0.00    -0.432 C  
BRANCH  23  24
HETATM   24  C   UNL     1     -11.870  13.611  64.793  1.00  0.00    -0.414 C  
HETATM   25  C   UNL     1     -11.984  12.469  63.808  1.00  0.00    -0.517 C  
HETATM   26  O   UNL     1     -11.048  11.896  63.276  1.00  0.00    -0.371 OA 
HETATM   27  O   UNL     1     -13.271  12.136  63.562  1.00  0.00    -0.744 OA 
ENDBRANCH  23  24
ENDBRANCH  22  23
ENDBRANCH  21  22
ENDBRANCH  20  21
ENDBRANCH  19  20
ENDBRANCH  18  19
ENDBRANCH  10  11
ENDBRANCH   6   9
ENDBRANCH   5   6
ENDBRANCH   4   5
ENDBRANCH   3   4
ENDBRANCH   2   3
TORSDOF 12
ENDMDL
MODEL      105
REMARK 921   NORMALIZED FREE ENERGY PREDICTED BY IDOCK:   -4.82 KCAL/MOL
REMARK 922        TOTAL FREE ENERGY PREDICTED BY IDOCK:  -10.15 KCAL/MOL
REMARK 923 INTER-LIGAND FREE ENERGY PREDICTED BY IDOCK:   -8.63 KCAL/MOL
REMARK 924 INTRA-LIGAND FREE ENERGY PREDICTED BY IDOCK:   -1.52 KCAL/MOL
REMARK 927      BINDING AFFINITY PREDICTED BY RF-SCORE:    0.00 PKD
ROOT
HETATM    1  C   UNL     1     -10.620   3.480  73.119  1.00  0.00    -0.269 C  
HETATM    2  C   UNL     1     -10.210   4.794  72.479  1.00  0.00    -0.245 C  
ENDROOT
BRANCH   2   3
HETATM    3  C   UNL     1      -9.162   4.596  71.382  1.00  0.00    -0.192 C  
BRANCH   3   4
HETATM    4  C   UNL     1      -8.009   5.579  71.575  1.00  0.00    -0.116 C  
BRANCH   4   5
HETATM    5  C   UNL     1      -8.172   6.439  72.831  1.00  0.00    -0.113 C  
BRANCH   5   6
HETATM    6  C   UNL     1      -8.282   7.942  72.524  1.00  0.00    -0.139 C  
HETATM    7  O   UNL     1      -7.671   8.640  73.605  1.00  0.00    -0.394 OA 
HETATM    8  H   UNL     1      -7.738   9.569  73.415  1.00  0.00     0.000 HD 
BRANCH   6   9
HETATM    9  C   UNL     1      -9.710   8.401  72.326  1.00  0.00    -0.386 C  
HETATM   10  C   UNL     1     -10.469   8.241  71.230  1.00  0.00    -0.262 C  
BRANCH  10  11
HETATM   11  C   UNL     1     -11.837   8.864  71.043  1.00  0.00    -0.324 C  
HETATM   12  C   UNL     1     -12.784   8.403  72.171  1.00  0.00    -0.356 C  
HETATM   13  O   UNL     1     -13.303   7.101  71.935  1.00  0.00    -0.491 OA 
HETATM   14  C   UNL     1     -13.900   9.425  72.205  1.00  0.00    -0.433 C  
HETATM   15  H   UNL     1     -13.886   6.818  72.629  1.00  0.00     0.000 HD 
HETATM   16  C   UNL     1     -13.159  10.674  71.845  1.00  0.00    -0.458 C  
HETATM   17  O   UNL     1     -13.583  11.790  72.123  1.00  0.00    -0.358 OA 
HETATM   18  C   UNL     1     -11.857  10.411  71.103  1.00  0.00    -0.432 C  
BRANCH  18  19
HETATM   19  C   UNL     1     -11.848  11.027  69.691  1.00  0.00    -0.414 C  
BRANCH  19  20
HETATM   20  C   UNL     1     -10.445  11.215  69.099  1.00  0.00    -0.211 C  
BRANCH  20  21
HETATM   21  C   UNL     1     -10.413  12.312  68.031  1.00  0.00    -0.231 C  
BRANCH  21  22
HETATM   22  C   UNL     1     -11.638  13.225  68.146  1.00  0.00    -0.373 C  
BRANCH  22  23
HETATM   23  C   UNL     1     -11.868  14.014  66.857  1.00  0.00    -0.458 C  
BRANCH  23  24
HETATM   24  C   UNL     1     -11.114  13.401  65.676  1.00  0.00    -0.298 C  
HETATM   25  C   UNL     1     -12.056  12.723  64.706  1.00  0.00    -0.432 C  
HETATM   26  O   UNL     1     -13.268  12.659  64.823  1.00  0.00    -0.846 OA 
HETATM   27  O   UNL     1     -11.399  12.172  63.661  1.00  0.00    -0.397 OA 
ENDBRANCH  23  24
ENDBRANCH  22  23
ENDBRANCH  21  22
ENDBRANCH  20  21
ENDBRANCH  19  20
ENDBRANCH  18  19
ENDBRANCH  10  11
ENDBRANCH   6   9
ENDBRANCH   5   6
ENDBRANCH   4   5
ENDBRANCH   3   4
ENDBRANCH   2   3
TORSDOF 12
ENDMDL
MODEL      106
REMARK 921   NORMALIZED FREE ENERGY PREDICTED BY IDOCK:   -4.82 KCAL/MOL
REMARK 922        TOTAL FREE ENERGY PREDICTED BY IDOCK:  -10.15 KCAL/MOL
REMARK 923 INTER-LIGAND FREE ENERGY PREDICTED BY IDOCK:   -8.54 KCAL/MOL
REMARK 924 INTRA-LIGAND FREE ENERGY PREDICTED BY IDOCK:   -1.61 KCAL/MOL
REMARK 927      BINDING AFFINITY PREDICTED BY RF-SCORE:    0.00 PKD
ROOT
HETATM    1  C   UNL     1     -14.212   8.469  71.875  1.00  0.00    -0.536 C  
HETATM    2  C   UNL     1     -12.899   9.217  71.737  1.00  0.00    -0.461 C  
ENDROOT
BRANCH   2   3
HETATM    3  C   UNL     1     -13.092  10.733  71.802  1.00  0.00    -0.573 C  
BRANCH   3   4
HETATM    4  C   UNL     1     -12.206  11.420  70.764  1.00  0.00    -0.475 C  
BRANCH   4   5
HETATM    5  C   UNL     1     -12.289  12.946  70.837  1.00  0.00    -0.365 C  
BRANCH   5   6
HETATM    6  C   UNL     1     -11.647  13.645  69.626  1.00  0.00    -0.278 C  
HETATM    7  O   UNL     1     -12.277  14.914  69.486  1.00  0.00    -0.436 OA 
HETATM    8  H   UNL     1     -11.881  15.346  68.738  1.00  0.00     0.000 HD 
BRANCH   6   9
HETATM    9  C   UNL     1     -11.766  12.840  68.350  1.00  0.00    -0.380 C  
HETATM   10  C   UNL     1     -11.073  13.014  67.213  1.00  0.00    -0.303 C  
BRANCH  10  11
HETATM   11  C   UNL     1     -11.354  12.274  65.922  1.00  0.00    -0.406 C  
HETATM   12  C   UNL     1     -11.898  13.254  64.861  1.00  0.00    -0.362 C  
HETATM   13  O   UNL     1     -13.279  13.532  65.048  1.00  0.00    -0.721 OA 
HETATM   14  C   UNL     1     -11.664  12.577  63.528  1.00  0.00    -0.595 C  
HETATM   15  H   UNL     1     -13.613  14.135  64.394  1.00  0.00     0.000 HD 
HETATM   16  C   UNL     1     -10.378  11.857  63.791  1.00  0.00    -0.415 C  
HETATM   17  O   UNL     1      -9.633  11.497  62.887  1.00  0.00    -0.380 OA 
HETATM   18  C   UNL     1     -10.114  11.617  65.269  1.00  0.00    -0.305 C  
BRANCH  18  19
HETATM   19  C   UNL     1     -10.025  10.118  65.616  1.00  0.00    -0.348 C  
BRANCH  19  20
HETATM   20  C   UNL     1      -9.113   9.806  66.810  1.00  0.00    -0.169 C  
BRANCH  20  21
HETATM   21  C   UNL     1      -9.518   8.511  67.520  1.00  0.00    -0.182 C  
BRANCH  21  22
HETATM   22  C   UNL     1     -10.490   8.797  68.670  1.00  0.00    -0.213 C  
BRANCH  22  23
HETATM   23  C   UNL     1      -9.744   9.057  69.979  1.00  0.00    -0.203 C  
BRANCH  23  24
HETATM   24  C   UNL     1      -8.716  10.180  69.830  1.00  0.00    -0.091 C  
HETATM   25  C   UNL     1      -7.339   9.735  70.271  1.00  0.00    -0.158 C  
HETATM   26  O   UNL     1      -7.054   8.628  70.695  1.00  0.00    -0.046 OA 
HETATM   27  O   UNL     1      -6.423  10.722  70.150  1.00  0.00    -0.139 OA 
ENDBRANCH  23  24
ENDBRANCH  22  23
ENDBRANCH  21  22
ENDBRANCH  20  21
ENDBRANCH  19  20
ENDBRANCH  18  19
ENDBRANCH  10  11
ENDBRANCH   6   9
ENDBRANCH   5   6
ENDBRANCH   4   5
ENDBRANCH   3   4
ENDBRANCH   2   3
TORSDOF 12
ENDMDL
MODEL      107
REMARK 921   NORMALIZED FREE ENERGY PREDICTED BY IDOCK:   -4.81 KCAL/MOL
REMARK 922        TOTAL FREE ENERGY PREDICTED BY IDOCK:  -10.13 KCAL/MOL
REMARK 923 INTER-LIGAND FREE ENERGY PREDICTED BY IDOCK:   -7.72 KCAL/MOL
REMARK 924 INTRA-LIGAND FREE ENERGY PREDICTED BY IDOCK:   -2.41 KCAL/MOL
REMARK 927      BINDING AFFINITY PREDICTED BY RF-SCORE:    0.00 PKD
ROOT
HETATM    1  C   UNL     1     -11.371  12.275  64.391  1.00  0.00    -0.396 C  
HETATM    2  C   UNL     1     -12.418  12.592  65.443  1.00  0.00    -0.421 C  
ENDROOT
BRANCH   2   3
HETATM    3  C   UNL     1     -11.864  12.458  66.863  1.00  0.00    -0.377 C  
BRANCH   3   4
HETATM    4  C   UNL     1     -12.249  13.681  67.694  1.00  0.00    -0.224 C  
BRANCH   4   5
HETATM    5  C   UNL     1     -11.966  13.492  69.186  1.00  0.00    -0.378 C  
BRANCH   5   6
HETATM    6  C   UNL     1     -11.684  14.815  69.919  1.00  0.00    -0.306 C  
HETATM    7  O   UNL     1     -12.802  15.077  70.761  1.00  0.00    -0.354 OA 
HETATM    8  H   UNL     1     -12.628  15.895  71.215  1.00  0.00     0.000 HD 
BRANCH   6   9
HETATM    9  C   UNL     1     -11.436  15.971  68.976  1.00  0.00    -0.360 C  
HETATM   10  C   UNL     1     -10.507  16.933  69.096  1.00  0.00    -0.335 C  
BRANCH  10  11
HETATM   11  C   UNL     1     -10.418  18.149  68.199  1.00  0.00    -0.365 C  
HETATM   12  C   UNL     1      -9.632  19.271  68.909  1.00  0.00    -0.406 C  
HETATM   13  O   UNL     1     -10.435  19.975  69.846  1.00  0.00    -0.611 OA 
HETATM   14  C   UNL     1      -9.162  20.196  67.806  1.00  0.00    -0.429 C  
HETATM   15  H   UNL     1      -9.951  20.666  70.283  1.00  0.00     0.000 HD 
HETATM   16  C   UNL     1      -8.911  19.221  66.699  1.00  0.00    -0.334 C  
HETATM   17  O   UNL     1      -8.169  19.477  65.757  1.00  0.00    -0.427 OA 
HETATM   18  C   UNL     1      -9.671  17.914  66.863  1.00  0.00    -0.309 C  
BRANCH  18  19
HETATM   19  C   UNL     1     -10.656  17.655  65.707  1.00  0.00    -0.177 C  
BRANCH  19  20
HETATM   20  C   UNL     1     -10.742  16.185  65.275  1.00  0.00    -0.386 C  
BRANCH  20  21
HETATM   21  C   UNL     1      -9.387  15.478  65.371  1.00  0.00     0.124 C  
BRANCH  21  22
HETATM   22  C   UNL     1      -9.386  14.448  66.505  1.00  0.00    -0.300 C  
BRANCH  22  23
HETATM   23  C   UNL     1      -8.072  14.481  67.286  1.00  0.00    -0.219 C  
BRANCH  23  24
HETATM   24  C   UNL     1      -7.291  15.770  67.025  1.00  0.00    -0.226 C  
HETATM   25  C   UNL     1      -6.847  16.422  68.315  1.00  0.00    -0.133 C  
HETATM   26  O   UNL     1      -7.066  15.997  69.436  1.00  0.00    -0.209 OA 
HETATM   27  O   UNL     1      -6.160  17.566  68.096  1.00  0.00    -0.159 OA 
ENDBRANCH  23  24
ENDBRANCH  22  23
ENDBRANCH  21  22
ENDBRANCH  20  21
ENDBRANCH  19  20
ENDBRANCH  18  19
ENDBRANCH  10  11
ENDBRANCH   6   9
ENDBRANCH   5   6
ENDBRANCH   4   5
ENDBRANCH   3   4
ENDBRANCH   2   3
TORSDOF 12
ENDMDL
MODEL      108
REMARK 921   NORMALIZED FREE ENERGY PREDICTED BY IDOCK:   -4.81 KCAL/MOL
REMARK 922        TOTAL FREE ENERGY PREDICTED BY IDOCK:  -10.13 KCAL/MOL
REMARK 923 INTER-LIGAND FREE ENERGY PREDICTED BY IDOCK:   -8.03 KCAL/MOL
REMARK 924 INTRA-LIGAND FREE ENERGY PREDICTED BY IDOCK:   -2.10 KCAL/MOL
REMARK 927      BINDING AFFINITY PREDICTED BY RF-SCORE:    0.00 PKD
ROOT
HETATM    1  C   UNL     1     -12.591  15.543  73.895  1.00  0.00    -0.767 C  
HETATM    2  C   UNL     1     -13.526  15.510  72.700  1.00  0.00    -0.642 C  
ENDROOT
BRANCH   2   3
HETATM    3  C   UNL     1     -13.924  14.081  72.322  1.00  0.00    -0.651 C  
BRANCH   3   4
HETATM    4  C   UNL     1     -12.875  13.474  71.391  1.00  0.00    -0.440 C  
BRANCH   4   5
HETATM    5  C   UNL     1     -12.834  11.946  71.468  1.00  0.00    -0.421 C  
BRANCH   5   6
HETATM    6  C   UNL     1     -12.137  11.299  70.260  1.00  0.00    -0.373 C  
HETATM    7  O   UNL     1     -11.016  10.574  70.756  1.00  0.00    -0.393 OA 
HETATM    8  H   UNL     1     -10.585  10.174  70.009  1.00  0.00     0.000 HD 
BRANCH   6   9
HETATM    9  C   UNL     1     -11.707  12.308  69.217  1.00  0.00    -0.388 C  
HETATM   10  C   UNL     1     -11.743  12.162  67.882  1.00  0.00    -0.403 C  
BRANCH  10  11
HETATM   11  C   UNL     1     -11.150  13.151  66.901  1.00  0.00    -0.308 C  
HETATM   12  C   UNL     1     -12.256  14.081  66.358  1.00  0.00    -0.460 C  
HETATM   13  O   UNL     1     -13.018  13.461  65.331  1.00  0.00    -0.625 OA 
HETATM   14  C   UNL     1     -11.533  15.300  65.826  1.00  0.00    -0.101 C  
HETATM   15  H   UNL     1     -13.698  14.034  64.997  1.00  0.00     0.000 HD 
HETATM   16  C   UNL     1     -10.396  15.407  66.793  1.00  0.00    -0.279 C  
HETATM   17  O   UNL     1      -9.785  16.454  66.971  1.00  0.00    -0.238 OA 
HETATM   18  C   UNL     1     -10.083  14.098  67.502  1.00  0.00    -0.236 C  
BRANCH  18  19
HETATM   19  C   UNL     1      -8.657  13.595  67.209  1.00  0.00    -0.220 C  
BRANCH  19  20
HETATM   20  C   UNL     1      -7.984  12.893  68.396  1.00  0.00    -0.137 C  
BRANCH  20  21
HETATM   21  C   UNL     1      -6.624  12.300  68.018  1.00  0.00    -0.076 C  
BRANCH  21  22
HETATM   22  C   UNL     1      -6.777  11.214  66.949  1.00  0.00    -0.128 C  
BRANCH  22  23
HETATM   23  C   UNL     1      -7.321   9.916  67.545  1.00  0.00    -0.090 C  
BRANCH  23  24
HETATM   24  C   UNL     1      -8.623   9.485  66.867  1.00  0.00    -0.132 C  
HETATM   25  C   UNL     1      -9.665   9.066  67.879  1.00  0.00    -0.155 C  
HETATM   26  O   UNL     1      -9.518   9.063  69.089  1.00  0.00    -0.151 OA 
HETATM   27  O   UNL     1     -10.818   8.676  67.289  1.00  0.00    -0.217 OA 
ENDBRANCH  23  24
ENDBRANCH  22  23
ENDBRANCH  21  22
ENDBRANCH  20  21
ENDBRANCH  19  20
ENDBRANCH  18  19
ENDBRANCH  10  11
ENDBRANCH   6   9
ENDBRANCH   5   6
ENDBRANCH   4   5
ENDBRANCH   3   4
ENDBRANCH   2   3
TORSDOF 12
ENDMDL
MODEL      109
REMARK 921   NORMALIZED FREE ENERGY PREDICTED BY IDOCK:   -4.80 KCAL/MOL
REMARK 922        TOTAL FREE ENERGY PREDICTED BY IDOCK:  -10.12 KCAL/MOL
REMARK 923 INTER-LIGAND FREE ENERGY PREDICTED BY IDOCK:   -8.98 KCAL/MOL
REMARK 924 INTRA-LIGAND FREE ENERGY PREDICTED BY IDOCK:   -1.14 KCAL/MOL
REMARK 927      BINDING AFFINITY PREDICTED BY RF-SCORE:    0.00 PKD
ROOT
HETATM    1  C   UNL     1     -11.746   7.154  71.037  1.00  0.00    -0.358 C  
HETATM    2  C   UNL     1     -12.658   8.233  71.594  1.00  0.00    -0.355 C  
ENDROOT
BRANCH   2   3
HETATM    3  C   UNL     1     -11.987   9.608  71.593  1.00  0.00    -0.470 C  
BRANCH   3   4
HETATM    4  C   UNL     1     -12.833  10.604  70.801  1.00  0.00    -0.439 C  
BRANCH   4   5
HETATM    5  C   UNL     1     -11.984  11.645  70.069  1.00  0.00    -0.429 C  
BRANCH   5   6
HETATM    6  C   UNL     1     -11.094  11.037  68.971  1.00  0.00    -0.244 C  
HETATM    7  O   UNL     1      -9.751  11.083  69.441  1.00  0.00    -0.417 OA 
HETATM    8  H   UNL     1      -9.201  10.707  68.763  1.00  0.00     0.000 HD 
BRANCH   6   9
HETATM    9  C   UNL     1     -11.225  11.751  67.643  1.00  0.00    -0.345 C  
HETATM   10  C   UNL     1     -10.401  11.659  66.587  1.00  0.00    -0.257 C  
BRANCH  10  11
HETATM   11  C   UNL     1     -10.506  12.522  65.348  1.00  0.00    -0.308 C  
HETATM   12  C   UNL     1     -11.348  11.801  64.274  1.00  0.00    -0.325 C  
HETATM   13  O   UNL     1     -10.595  10.820  63.573  1.00  0.00    -0.536 OA 
HETATM   14  C   UNL     1     -11.817  12.889  63.331  1.00  0.00    -0.576 C  
HETATM   15  H   UNL     1     -11.114  10.377  62.912  1.00  0.00     0.000 HD 
HETATM   16  C   UNL     1     -12.005  14.032  64.278  1.00  0.00    -0.435 C  
HETATM   17  O   UNL     1     -12.728  14.986  64.018  1.00  0.00    -0.772 OA 
HETATM   18  C   UNL     1     -11.207  13.885  65.565  1.00  0.00    -0.307 C  
BRANCH  18  19
HETATM   19  C   UNL     1     -10.182  15.019  65.756  1.00  0.00    -0.361 C  
BRANCH  19  20
HETATM   20  C   UNL     1     -10.288  15.738  67.108  1.00  0.00    -0.291 C  
BRANCH  20  21
HETATM   21  C   UNL     1      -9.785  17.182  67.032  1.00  0.00    -0.265 C  
BRANCH  21  22
HETATM   22  C   UNL     1      -8.530  17.280  66.159  1.00  0.00    -0.216 C  
BRANCH  22  23
HETATM   23  C   UNL     1      -7.256  17.188  67.000  1.00  0.00    -0.219 C  
BRANCH  23  24
HETATM   24  C   UNL     1      -7.454  17.788  68.393  1.00  0.00    -0.263 C  
HETATM   25  C   UNL     1      -6.995  19.227  68.449  1.00  0.00    -0.280 C  
HETATM   26  O   UNL     1      -6.525  19.858  67.518  1.00  0.00    -0.200 OA 
HETATM   27  O   UNL     1      -7.160  19.766  69.679  1.00  0.00    -0.315 OA 
ENDBRANCH  23  24
ENDBRANCH  22  23
ENDBRANCH  21  22
ENDBRANCH  20  21
ENDBRANCH  19  20
ENDBRANCH  18  19
ENDBRANCH  10  11
ENDBRANCH   6   9
ENDBRANCH   5   6
ENDBRANCH   4   5
ENDBRANCH   3   4
ENDBRANCH   2   3
TORSDOF 12
ENDMDL
MODEL      110
REMARK 921   NORMALIZED FREE ENERGY PREDICTED BY IDOCK:   -4.80 KCAL/MOL
REMARK 922        TOTAL FREE ENERGY PREDICTED BY IDOCK:  -10.12 KCAL/MOL
REMARK 923 INTER-LIGAND FREE ENERGY PREDICTED BY IDOCK:   -8.49 KCAL/MOL
REMARK 924 INTRA-LIGAND FREE ENERGY PREDICTED BY IDOCK:   -1.63 KCAL/MOL
REMARK 927      BINDING AFFINITY PREDICTED BY RF-SCORE:    0.00 PKD
ROOT
HETATM    1  C   UNL     1     -14.159   8.531  71.865  1.00  0.00    -0.519 C  
HETATM    2  C   UNL     1     -12.870   9.312  71.681  1.00  0.00    -0.447 C  
ENDROOT
BRANCH   2   3
HETATM    3  C   UNL     1     -13.102  10.823  71.737  1.00  0.00    -0.573 C  
BRANCH   3   4
HETATM    4  C   UNL     1     -12.257  11.523  70.674  1.00  0.00    -0.473 C  
BRANCH   4   5
HETATM    5  C   UNL     1     -12.467  13.038  70.659  1.00  0.00    -0.347 C  
BRANCH   5   6
HETATM    6  C   UNL     1     -11.826  13.726  69.441  1.00  0.00    -0.341 C  
HETATM    7  O   UNL     1     -12.566  14.916  69.189  1.00  0.00    -0.572 OA 
HETATM    8  H   UNL     1     -12.171  15.340  68.436  1.00  0.00     0.000 HD 
BRANCH   6   9
HETATM    9  C   UNL     1     -11.795  12.840  68.214  1.00  0.00    -0.357 C  
HETATM   10  C   UNL     1     -11.083  13.033  67.091  1.00  0.00    -0.304 C  
BRANCH  10  11
HETATM   11  C   UNL     1     -11.220  12.191  65.841  1.00  0.00    -0.384 C  
HETATM   12  C   UNL     1     -11.862  13.025  64.712  1.00  0.00    -0.363 C  
HETATM   13  O   UNL     1     -13.274  13.116  64.851  1.00  0.00    -0.705 OA 
HETATM   14  C   UNL     1     -11.496  12.315  63.426  1.00  0.00    -0.512 C  
HETATM   15  H   UNL     1     -13.668  13.629  64.155  1.00  0.00     0.000 HD 
HETATM   16  C   UNL     1     -10.132  11.798  63.760  1.00  0.00    -0.391 C  
HETATM   17  O   UNL     1      -9.316  11.497  62.896  1.00  0.00    -0.363 OA 
HETATM   18  C   UNL     1      -9.881  11.679  65.256  1.00  0.00    -0.279 C  
BRANCH  18  19
HETATM   19  C   UNL     1      -9.596  10.229  65.693  1.00  0.00    -0.289 C  
BRANCH  19  20
HETATM   20  C   UNL     1      -8.578  10.109  66.835  1.00  0.00    -0.127 C  
BRANCH  20  21
HETATM   21  C   UNL     1      -8.710   8.782  67.586  1.00  0.00    -0.135 C  
BRANCH  21  22
HETATM   22  C   UNL     1      -9.535   8.955  68.865  1.00  0.00    -0.152 C  
BRANCH  22  23
HETATM   23  C   UNL     1     -10.614   7.879  68.984  1.00  0.00    -0.177 C  
BRANCH  23  24
HETATM   24  C   UNL     1     -10.041   6.478  68.762  1.00  0.00    -0.178 C  
HETATM   25  C   UNL     1     -10.641   5.819  67.540  1.00  0.00    -0.253 C  
HETATM   26  O   UNL     1     -11.475   6.316  66.804  1.00  0.00    -0.103 OA 
HETATM   27  O   UNL     1     -10.146   4.577  67.338  1.00  0.00    -0.151 OA 
ENDBRANCH  23  24
ENDBRANCH  22  23
ENDBRANCH  21  22
ENDBRANCH  20  21
ENDBRANCH  19  20
ENDBRANCH  18  19
ENDBRANCH  10  11
ENDBRANCH   6   9
ENDBRANCH   5   6
ENDBRANCH   4   5
ENDBRANCH   3   4
ENDBRANCH   2   3
TORSDOF 12
ENDMDL
MODEL      111
REMARK 921   NORMALIZED FREE ENERGY PREDICTED BY IDOCK:   -4.80 KCAL/MOL
REMARK 922        TOTAL FREE ENERGY PREDICTED BY IDOCK:  -10.11 KCAL/MOL
REMARK 923 INTER-LIGAND FREE ENERGY PREDICTED BY IDOCK:   -7.37 KCAL/MOL
REMARK 924 INTRA-LIGAND FREE ENERGY PREDICTED BY IDOCK:   -2.74 KCAL/MOL
REMARK 927      BINDING AFFINITY PREDICTED BY RF-SCORE:    0.00 PKD
ROOT
HETATM    1  C   UNL     1     -11.767  12.964  68.343  1.00  0.00    -0.382 C  
HETATM    2  C   UNL     1     -12.062  13.352  66.905  1.00  0.00    -0.406 C  
ENDROOT
BRANCH   2   3
HETATM    3  C   UNL     1     -11.208  14.536  66.444  1.00  0.00    -0.341 C  
BRANCH   3   4
HETATM    4  C   UNL     1     -11.090  14.535  64.921  1.00  0.00    -0.401 C  
BRANCH   4   5
HETATM    5  C   UNL     1     -12.160  13.672  64.248  1.00  0.00    -0.480 C  
BRANCH   5   6
HETATM    6  C   UNL     1     -11.572  12.582  63.336  1.00  0.00    -0.473 C  
HETATM    7  O   UNL     1     -12.612  11.647  63.071  1.00  0.00    -0.950 OA 
HETATM    8  H   UNL     1     -12.249  10.973  62.507  1.00  0.00     0.000 HD 
BRANCH   6   9
HETATM    9  C   UNL     1     -10.369  11.893  63.942  1.00  0.00    -0.426 C  
HETATM   10  C   UNL     1     -10.367  10.803  64.727  1.00  0.00    -0.380 C  
BRANCH  10  11
HETATM   11  C   UNL     1      -9.139  10.260  65.427  1.00  0.00    -0.221 C  
HETATM   12  C   UNL     1      -8.131   9.729  64.386  1.00  0.00    -0.150 C  
HETATM   13  O   UNL     1      -8.482   8.434  63.915  1.00  0.00    -0.360 OA 
HETATM   14  C   UNL     1      -6.795   9.695  65.097  1.00  0.00    -0.098 C  
HETATM   15  H   UNL     1      -7.861   8.107  63.274  1.00  0.00     0.000 HD 
HETATM   16  C   UNL     1      -6.913  10.890  65.989  1.00  0.00    -0.066 C  
HETATM   17  O   UNL     1      -5.932  11.458  66.456  1.00  0.00    -0.140 OA 
HETATM   18  C   UNL     1      -8.352  11.304  66.256  1.00  0.00    -0.142 C  
BRANCH  18  19
HETATM   19  C   UNL     1      -8.721  11.226  67.750  1.00  0.00    -0.134 C  
BRANCH  19  20
HETATM   20  C   UNL     1      -8.740   9.800  68.317  1.00  0.00    -0.119 C  
BRANCH  20  21
HETATM   21  C   UNL     1     -10.154   9.351  68.696  1.00  0.00    -0.208 C  
BRANCH  21  22
HETATM   22  C   UNL     1     -10.318   7.840  68.507  1.00  0.00    -0.226 C  
BRANCH  22  23
HETATM   23  C   UNL     1     -10.660   7.493  67.058  1.00  0.00    -0.409 C  
BRANCH  23  24
HETATM   24  C   UNL     1     -10.832   5.985  66.863  1.00  0.00    -0.396 C  
HETATM   25  C   UNL     1      -9.698   5.396  66.054  1.00  0.00    -0.112 C  
HETATM   26  O   UNL     1      -8.752   6.017  65.603  1.00  0.00    -0.153 OA 
HETATM   27  O   UNL     1      -9.844   4.064  65.871  1.00  0.00    -0.195 OA 
ENDBRANCH  23  24
ENDBRANCH  22  23
ENDBRANCH  21  22
ENDBRANCH  20  21
ENDBRANCH  19  20
ENDBRANCH  18  19
ENDBRANCH  10  11
ENDBRANCH   6   9
ENDBRANCH   5   6
ENDBRANCH   4   5
ENDBRANCH   3   4
ENDBRANCH   2   3
TORSDOF 12
ENDMDL
MODEL      112
REMARK 921   NORMALIZED FREE ENERGY PREDICTED BY IDOCK:   -4.80 KCAL/MOL
REMARK 922        TOTAL FREE ENERGY PREDICTED BY IDOCK:  -10.11 KCAL/MOL
REMARK 923 INTER-LIGAND FREE ENERGY PREDICTED BY IDOCK:   -7.69 KCAL/MOL
REMARK 924 INTRA-LIGAND FREE ENERGY PREDICTED BY IDOCK:   -2.42 KCAL/MOL
REMARK 927      BINDING AFFINITY PREDICTED BY RF-SCORE:    0.00 PKD
ROOT
HETATM    1  C   UNL     1     -11.963  14.060  68.328  1.00  0.00    -0.384 C  
HETATM    2  C   UNL     1     -12.214  14.023  66.831  1.00  0.00    -0.415 C  
ENDROOT
BRANCH   2   3
HETATM    3  C   UNL     1     -11.280  14.965  66.069  1.00  0.00    -0.327 C  
BRANCH   3   4
HETATM    4  C   UNL     1     -11.213  14.561  64.598  1.00  0.00    -0.359 C  
BRANCH   4   5
HETATM    5  C   UNL     1     -12.098  13.353  64.279  1.00  0.00    -0.479 C  
BRANCH   5   6
HETATM    6  C   UNL     1     -11.346  12.231  63.542  1.00  0.00    -0.470 C  
HETATM    7  O   UNL     1     -12.324  11.405  62.918  1.00  0.00    -0.954 OA 
HETATM    8  H   UNL     1     -11.860  10.712  62.463  1.00  0.00     0.000 HD 
BRANCH   6   9
HETATM    9  C   UNL     1     -10.458  11.417  64.457  1.00  0.00    -0.381 C  
HETATM   10  C   UNL     1     -10.669  11.134  65.753  1.00  0.00    -0.252 C  
BRANCH  10  11
HETATM   11  C   UNL     1      -9.661  10.448  66.650  1.00  0.00    -0.219 C  
HETATM   12  C   UNL     1     -10.029   8.958  66.813  1.00  0.00    -0.267 C  
HETATM   13  O   UNL     1     -11.066   8.765  67.766  1.00  0.00    -0.485 OA 
HETATM   14  C   UNL     1      -8.756   8.273  67.261  1.00  0.00    -0.126 C  
HETATM   15  H   UNL     1     -11.292   7.847  67.866  1.00  0.00     0.000 HD 
HETATM   16  C   UNL     1      -7.725   9.067  66.522  1.00  0.00    -0.096 C  
HETATM   17  O   UNL     1      -6.604   8.629  66.291  1.00  0.00    -0.060 OA 
HETATM   18  C   UNL     1      -8.209  10.450  66.112  1.00  0.00    -0.144 C  
BRANCH  18  19
HETATM   19  C   UNL     1      -7.376  11.578  66.749  1.00  0.00    -0.111 C  
BRANCH  19  20
HETATM   20  C   UNL     1      -8.154  12.441  67.752  1.00  0.00    -0.162 C  
BRANCH  20  21
HETATM   21  C   UNL     1      -8.097  13.929  67.397  1.00  0.00    -0.190 C  
BRANCH  21  22
HETATM   22  C   UNL     1      -8.488  14.795  68.599  1.00  0.00    -0.167 C  
BRANCH  22  23
HETATM   23  C   UNL     1      -8.144  16.266  68.361  1.00  0.00    -0.183 C  
BRANCH  23  24
HETATM   24  C   UNL     1      -9.397  17.143  68.343  1.00  0.00    -0.273 C  
HETATM   25  C   UNL     1      -9.566  17.845  67.014  1.00  0.00    -0.286 C  
HETATM   26  O   UNL     1      -8.816  17.742  66.058  1.00  0.00    -0.494 OA 
HETATM   27  O   UNL     1     -10.668  18.628  66.989  1.00  0.00    -0.408 OA 
ENDBRANCH  23  24
ENDBRANCH  22  23
ENDBRANCH  21  22
ENDBRANCH  20  21
ENDBRANCH  19  20
ENDBRANCH  18  19
ENDBRANCH  10  11
ENDBRANCH   6   9
ENDBRANCH   5   6
ENDBRANCH   4   5
ENDBRANCH   3   4
ENDBRANCH   2   3
TORSDOF 12
ENDMDL
MODEL      113
REMARK 921   NORMALIZED FREE ENERGY PREDICTED BY IDOCK:   -4.79 KCAL/MOL
REMARK 922        TOTAL FREE ENERGY PREDICTED BY IDOCK:  -10.11 KCAL/MOL
REMARK 923 INTER-LIGAND FREE ENERGY PREDICTED BY IDOCK:   -8.02 KCAL/MOL
REMARK 924 INTRA-LIGAND FREE ENERGY PREDICTED BY IDOCK:   -2.09 KCAL/MOL
REMARK 927      BINDING AFFINITY PREDICTED BY RF-SCORE:    0.00 PKD
ROOT
HETATM    1  C   UNL     1     -13.454  15.890  73.143  1.00  0.00    -0.650 C  
HETATM    2  C   UNL     1     -14.160  15.335  71.919  1.00  0.00    -0.656 C  
ENDROOT
BRANCH   2   3
HETATM    3  C   UNL     1     -14.342  13.818  72.000  1.00  0.00    -0.392 C  
BRANCH   3   4
HETATM    4  C   UNL     1     -13.042  13.113  71.616  1.00  0.00    -0.444 C  
BRANCH   4   5
HETATM    5  C   UNL     1     -13.037  11.634  72.011  1.00  0.00    -0.433 C  
BRANCH   5   6
HETATM    6  C   UNL     1     -12.670  10.699  70.846  1.00  0.00    -0.404 C  
HETATM    7  O   UNL     1     -11.970   9.589  71.399  1.00  0.00    -0.331 OA 
HETATM    8  H   UNL     1     -11.743   9.011  70.679  1.00  0.00     0.000 HD 
BRANCH   6   9
HETATM    9  C   UNL     1     -11.841  11.382  69.780  1.00  0.00    -0.435 C  
HETATM   10  C   UNL     1     -11.996  11.292  68.449  1.00  0.00    -0.255 C  
BRANCH  10  11
HETATM   11  C   UNL     1     -11.033  11.876  67.438  1.00  0.00    -0.315 C  
HETATM   12  C   UNL     1     -11.659  13.120  66.772  1.00  0.00    -0.366 C  
HETATM   13  O   UNL     1     -12.581  12.770  65.748  1.00  0.00    -0.562 OA 
HETATM   14  C   UNL     1     -10.496  13.901  66.200  1.00  0.00    -0.297 C  
HETATM   15  H   UNL     1     -12.966  13.535  65.338  1.00  0.00     0.000 HD 
HETATM   16  C   UNL     1      -9.435  13.629  67.219  1.00  0.00    -0.230 C  
HETATM   17  O   UNL     1      -8.460  14.358  67.361  1.00  0.00    -0.178 OA 
HETATM   18  C   UNL     1      -9.690  12.368  68.033  1.00  0.00    -0.210 C  
BRANCH  18  19
HETATM   19  C   UNL     1      -8.579  11.316  67.854  1.00  0.00    -0.134 C  
BRANCH  19  20
HETATM   20  C   UNL     1      -8.717  10.470  66.582  1.00  0.00    -0.138 C  
BRANCH  20  21
HETATM   21  C   UNL     1      -8.545   8.975  66.864  1.00  0.00    -0.128 C  
BRANCH  21  22
HETATM   22  C   UNL     1      -9.842   8.210  66.581  1.00  0.00    -0.331 C  
BRANCH  22  23
HETATM   23  C   UNL     1     -10.122   7.166  67.662  1.00  0.00    -0.229 C  
BRANCH  23  24
HETATM   24  C   UNL     1      -9.499   7.559  69.003  1.00  0.00    -0.145 C  
HETATM   25  C   UNL     1     -10.411   7.221  70.160  1.00  0.00    -0.218 C  
HETATM   26  O   UNL     1     -11.509   6.700  70.069  1.00  0.00    -0.358 OA 
HETATM   27  O   UNL     1      -9.873   7.570  71.351  1.00  0.00    -0.177 OA 
ENDBRANCH  23  24
ENDBRANCH  22  23
ENDBRANCH  21  22
ENDBRANCH  20  21
ENDBRANCH  19  20
ENDBRANCH  18  19
ENDBRANCH  10  11
ENDBRANCH   6   9
ENDBRANCH   5   6
ENDBRANCH   4   5
ENDBRANCH   3   4
ENDBRANCH   2   3
TORSDOF 12
ENDMDL
MODEL      114
REMARK 921   NORMALIZED FREE ENERGY PREDICTED BY IDOCK:   -4.78 KCAL/MOL
REMARK 922        TOTAL FREE ENERGY PREDICTED BY IDOCK:  -10.09 KCAL/MOL
REMARK 923 INTER-LIGAND FREE ENERGY PREDICTED BY IDOCK:   -7.82 KCAL/MOL
REMARK 924 INTRA-LIGAND FREE ENERGY PREDICTED BY IDOCK:   -2.27 KCAL/MOL
REMARK 927      BINDING AFFINITY PREDICTED BY RF-SCORE:    0.00 PKD
ROOT
HETATM    1  C   UNL     1     -11.276  11.647  63.401  1.00  0.00    -0.401 C  
HETATM    2  C   UNL     1      -9.798  11.546  63.069  1.00  0.00    -0.367 C  
ENDROOT
BRANCH   2   3
HETATM    3  C   UNL     1      -9.276  10.114  63.206  1.00  0.00    -0.320 C  
BRANCH   3   4
HETATM    4  C   UNL     1      -7.942  10.111  63.950  1.00  0.00    -0.153 C  
BRANCH   4   5
HETATM    5  C   UNL     1      -8.025   9.402  65.304  1.00  0.00    -0.110 C  
BRANCH   5   6
HETATM    6  C   UNL     1      -7.909  10.365  66.498  1.00  0.00    -0.124 C  
HETATM    7  O   UNL     1      -8.290   9.640  67.664  1.00  0.00    -0.120 OA 
HETATM    8  H   UNL     1      -8.218  10.235  68.402  1.00  0.00     0.000 HD 
BRANCH   6   9
HETATM    9  C   UNL     1      -8.756  11.608  66.337  1.00  0.00    -0.170 C  
HETATM   10  C   UNL     1      -9.119  12.474  67.297  1.00  0.00    -0.189 C  
BRANCH  10  11
HETATM   11  C   UNL     1     -10.098  13.611  67.093  1.00  0.00    -0.245 C  
HETATM   12  C   UNL     1      -9.832  14.298  65.737  1.00  0.00    -0.287 C  
HETATM   13  O   UNL     1      -8.737  15.203  65.803  1.00  0.00    -0.279 OA 
HETATM   14  C   UNL     1     -11.111  15.032  65.397  1.00  0.00    -0.377 C  
HETATM   15  H   UNL     1      -8.573  15.626  64.968  1.00  0.00     0.000 HD 
HETATM   16  C   UNL     1     -12.137  14.102  65.965  1.00  0.00    -0.432 C  
HETATM   17  O   UNL     1     -13.304  14.106  65.589  1.00  0.00    -0.602 OA 
HETATM   18  C   UNL     1     -11.586  13.183  67.045  1.00  0.00    -0.408 C  
BRANCH  18  19
HETATM   19  C   UNL     1     -12.274  13.394  68.407  1.00  0.00    -0.127 C  
BRANCH  19  20
HETATM   20  C   UNL     1     -11.485  14.283  69.377  1.00  0.00    -0.337 C  
BRANCH  20  21
HETATM   21  C   UNL     1     -11.643  15.771  69.052  1.00  0.00    -0.406 C  
BRANCH  21  22
HETATM   22  C   UNL     1     -10.462  16.580  69.595  1.00  0.00    -0.267 C  
BRANCH  22  23
HETATM   23  C   UNL     1      -9.645  17.204  68.464  1.00  0.00    -0.288 C  
BRANCH  23  24
HETATM   24  C   UNL     1     -10.402  18.347  67.784  1.00  0.00    -0.428 C  
HETATM   25  C   UNL     1      -9.952  18.539  66.353  1.00  0.00    -0.379 C  
HETATM   26  O   UNL     1      -9.098  17.881  65.785  1.00  0.00    -0.495 OA 
HETATM   27  O   UNL     1     -10.611  19.551  65.745  1.00  0.00    -0.508 OA 
ENDBRANCH  23  24
ENDBRANCH  22  23
ENDBRANCH  21  22
ENDBRANCH  20  21
ENDBRANCH  19  20
ENDBRANCH  18  19
ENDBRANCH  10  11
ENDBRANCH   6   9
ENDBRANCH   5   6
ENDBRANCH   4   5
ENDBRANCH   3   4
ENDBRANCH   2   3
TORSDOF 12
ENDMDL
MODEL      115
REMARK 921   NORMALIZED FREE ENERGY PREDICTED BY IDOCK:   -4.78 KCAL/MOL
REMARK 922        TOTAL FREE ENERGY PREDICTED BY IDOCK:  -10.09 KCAL/MOL
REMARK 923 INTER-LIGAND FREE ENERGY PREDICTED BY IDOCK:   -7.95 KCAL/MOL
REMARK 924 INTRA-LIGAND FREE ENERGY PREDICTED BY IDOCK:   -2.14 KCAL/MOL
REMARK 927      BINDING AFFINITY PREDICTED BY RF-SCORE:    0.00 PKD
ROOT
HETATM    1  C   UNL     1      -6.612   7.551  70.453  1.00  0.00    -0.042 C  
HETATM    2  C   UNL     1      -7.680   6.886  69.603  1.00  0.00    -0.110 C  
ENDROOT
BRANCH   2   3
HETATM    3  C   UNL     1      -7.664   7.394  68.160  1.00  0.00    -0.120 C  
BRANCH   3   4
HETATM    4  C   UNL     1      -8.145   6.297  67.212  1.00  0.00    -0.109 C  
BRANCH   4   5
HETATM    5  C   UNL     1      -9.360   6.725  66.386  1.00  0.00    -0.175 C  
BRANCH   5   6
HETATM    6  C   UNL     1     -10.328   7.636  67.161  1.00  0.00    -0.315 C  
HETATM    7  O   UNL     1     -11.571   6.948  67.256  1.00  0.00    -0.668 OA 
HETATM    8  H   UNL     1     -12.169   7.510  67.735  1.00  0.00     0.000 HD 
BRANCH   6   9
HETATM    9  C   UNL     1     -10.510   8.990  66.511  1.00  0.00    -0.192 C  
HETATM   10  C   UNL     1      -9.809  10.109  66.757  1.00  0.00    -0.247 C  
BRANCH  10  11
HETATM   11  C   UNL     1     -10.149  11.469  66.185  1.00  0.00    -0.266 C  
HETATM   12  C   UNL     1     -10.344  11.365  64.658  1.00  0.00    -0.307 C  
HETATM   13  O   UNL     1      -9.106  11.339  63.961  1.00  0.00    -0.382 OA 
HETATM   14  C   UNL     1     -11.151  12.585  64.269  1.00  0.00    -0.403 C  
HETATM   15  H   UNL     1      -9.226  11.275  63.021  1.00  0.00     0.000 HD 
HETATM   16  C   UNL     1     -12.027  12.748  65.472  1.00  0.00    -0.449 C  
HETATM   17  O   UNL     1     -13.084  13.367  65.433  1.00  0.00    -0.618 OA 
HETATM   18  C   UNL     1     -11.464  12.087  66.721  1.00  0.00    -0.410 C  
BRANCH  18  19
HETATM   19  C   UNL     1     -11.190  13.098  67.851  1.00  0.00    -0.300 C  
BRANCH  19  20
HETATM   20  C   UNL     1     -11.795  12.702  69.205  1.00  0.00    -0.349 C  
BRANCH  20  21
HETATM   21  C   UNL     1     -12.128  11.209  69.271  1.00  0.00    -0.377 C  
BRANCH  21  22
HETATM   22  C   UNL     1     -11.758  10.624  70.637  1.00  0.00    -0.454 C  
BRANCH  22  23
HETATM   23  C   UNL     1     -11.240   9.191  70.509  1.00  0.00    -0.309 C  
BRANCH  23  24
HETATM   24  C   UNL     1     -11.660   8.330  71.701  1.00  0.00    -0.337 C  
HETATM   25  C   UNL     1     -11.989   6.916  71.278  1.00  0.00    -0.356 C  
HETATM   26  O   UNL     1     -11.934   6.487  70.138  1.00  0.00    -0.383 OA 
HETATM   27  O   UNL     1     -12.367   6.147  72.323  1.00  0.00    -0.271 OA 
ENDBRANCH  23  24
ENDBRANCH  22  23
ENDBRANCH  21  22
ENDBRANCH  20  21
ENDBRANCH  19  20
ENDBRANCH  18  19
ENDBRANCH  10  11
ENDBRANCH   6   9
ENDBRANCH   5   6
ENDBRANCH   4   5
ENDBRANCH   3   4
ENDBRANCH   2   3
TORSDOF 12
ENDMDL
MODEL      116
REMARK 921   NORMALIZED FREE ENERGY PREDICTED BY IDOCK:   -4.78 KCAL/MOL
REMARK 922        TOTAL FREE ENERGY PREDICTED BY IDOCK:  -10.08 KCAL/MOL
REMARK 923 INTER-LIGAND FREE ENERGY PREDICTED BY IDOCK:   -8.74 KCAL/MOL
REMARK 924 INTRA-LIGAND FREE ENERGY PREDICTED BY IDOCK:   -1.35 KCAL/MOL
REMARK 927      BINDING AFFINITY PREDICTED BY RF-SCORE:    0.00 PKD
ROOT
HETATM    1  C   UNL     1      -9.090   3.243  67.138  1.00  0.00    -0.200 C  
HETATM    2  C   UNL     1      -9.103   4.149  65.921  1.00  0.00    -0.136 C  
ENDROOT
BRANCH   2   3
HETATM    3  C   UNL     1      -9.289   5.619  66.302  1.00  0.00    -0.169 C  
BRANCH   3   4
HETATM    4  C   UNL     1     -10.672   5.831  66.914  1.00  0.00    -0.381 C  
BRANCH   4   5
HETATM    5  C   UNL     1     -10.809   7.191  67.603  1.00  0.00    -0.279 C  
BRANCH   5   6
HETATM    6  C   UNL     1      -9.666   8.161  67.257  1.00  0.00    -0.178 C  
HETATM    7  O   UNL     1      -8.965   8.437  68.465  1.00  0.00    -0.136 OA 
HETATM    8  H   UNL     1      -8.259   9.037  68.251  1.00  0.00     0.000 HD 
BRANCH   6   9
HETATM    9  C   UNL     1     -10.155   9.440  66.613  1.00  0.00    -0.332 C  
HETATM   10  C   UNL     1      -9.686  10.017  65.494  1.00  0.00    -0.355 C  
BRANCH  10  11
HETATM   11  C   UNL     1     -10.116  11.379  64.993  1.00  0.00    -0.323 C  
HETATM   12  C   UNL     1     -10.761  11.247  63.597  1.00  0.00    -0.367 C  
HETATM   13  O   UNL     1      -9.787  11.134  62.567  1.00  0.00    -0.581 OA 
HETATM   14  C   UNL     1     -11.589  12.501  63.414  1.00  0.00    -0.547 C  
HETATM   15  H   UNL     1     -10.184  11.054  61.708  1.00  0.00     0.000 HD 
HETATM   16  C   UNL     1     -12.060  12.743  64.814  1.00  0.00    -0.432 C  
HETATM   17  O   UNL     1     -13.051  13.420  65.063  1.00  0.00    -0.734 OA 
HETATM   18  C   UNL     1     -11.183  12.083  65.867  1.00  0.00    -0.385 C  
BRANCH  18  19
HETATM   19  C   UNL     1     -10.540  13.104  66.824  1.00  0.00    -0.267 C  
BRANCH  19  20
HETATM   20  C   UNL     1     -11.361  13.378  68.091  1.00  0.00    -0.321 C  
BRANCH  20  21
HETATM   21  C   UNL     1     -11.910  14.807  68.123  1.00  0.00    -0.318 C  
BRANCH  21  22
HETATM   22  C   UNL     1     -11.125  15.674  69.112  1.00  0.00    -0.284 C  
BRANCH  22  23
HETATM   23  C   UNL     1     -10.025  16.468  68.406  1.00  0.00    -0.250 C  
BRANCH  23  24
HETATM   24  C   UNL     1     -10.604  17.564  67.511  1.00  0.00    -0.333 C  
HETATM   25  C   UNL     1     -10.288  17.317  66.053  1.00  0.00    -0.305 C  
HETATM   26  O   UNL     1      -9.655  16.371  65.616  1.00  0.00    -0.495 OA 
HETATM   27  O   UNL     1     -10.791  18.284  65.252  1.00  0.00    -0.629 OA 
ENDBRANCH  23  24
ENDBRANCH  22  23
ENDBRANCH  21  22
ENDBRANCH  20  21
ENDBRANCH  19  20
ENDBRANCH  18  19
ENDBRANCH  10  11
ENDBRANCH   6   9
ENDBRANCH   5   6
ENDBRANCH   4   5
ENDBRANCH   3   4
ENDBRANCH   2   3
TORSDOF 12
ENDMDL
MODEL      117
REMARK 921   NORMALIZED FREE ENERGY PREDICTED BY IDOCK:   -4.74 KCAL/MOL
REMARK 922        TOTAL FREE ENERGY PREDICTED BY IDOCK:  -10.02 KCAL/MOL
REMARK 923 INTER-LIGAND FREE ENERGY PREDICTED BY IDOCK:   -8.05 KCAL/MOL
REMARK 924 INTRA-LIGAND FREE ENERGY PREDICTED BY IDOCK:   -1.97 KCAL/MOL
REMARK 927      BINDING AFFINITY PREDICTED BY RF-SCORE:    0.00 PKD
ROOT
HETATM    1  C   UNL     1      -9.266   8.832  71.654  1.00  0.00    -0.333 C  
HETATM    2  C   UNL     1     -10.767   8.683  71.830  1.00  0.00    -0.414 C  
ENDROOT
BRANCH   2   3
HETATM    3  C   UNL     1     -11.121   7.560  72.808  1.00  0.00    -0.416 C  
BRANCH   3   4
HETATM    4  C   UNL     1     -11.623   6.337  72.043  1.00  0.00    -0.372 C  
BRANCH   4   5
HETATM    5  C   UNL     1     -12.081   6.679  70.623  1.00  0.00    -0.342 C  
BRANCH   5   6
HETATM    6  C   UNL     1     -11.239   5.991  69.535  1.00  0.00    -0.346 C  
HETATM    7  O   UNL     1     -10.167   5.320  70.189  1.00  0.00    -0.237 OA 
HETATM    8  H   UNL     1      -9.647   4.895  69.517  1.00  0.00     0.000 HD 
BRANCH   6   9
HETATM    9  C   UNL     1     -10.716   6.958  68.495  1.00  0.00    -0.252 C  
HETATM   10  C   UNL     1      -9.440   7.330  68.302  1.00  0.00    -0.141 C  
BRANCH  10  11
HETATM   11  C   UNL     1      -9.007   8.422  67.347  1.00  0.00    -0.143 C  
HETATM   12  C   UNL     1      -8.645   7.810  65.977  1.00  0.00    -0.151 C  
HETATM   13  O   UNL     1      -7.344   7.239  65.973  1.00  0.00    -0.072 OA 
HETATM   14  C   UNL     1      -8.729   8.954  64.988  1.00  0.00    -0.200 C  
HETATM   15  H   UNL     1      -7.121   6.863  65.130  1.00  0.00     0.000 HD 
HETATM   16  C   UNL     1      -9.858   9.750  65.563  1.00  0.00    -0.308 C  
HETATM   17  O   UNL     1     -10.510  10.541  64.891  1.00  0.00    -0.301 OA 
HETATM   18  C   UNL     1     -10.092   9.484  67.043  1.00  0.00    -0.297 C  
BRANCH  18  19
HETATM   19  C   UNL     1      -9.900  10.745  67.906  1.00  0.00    -0.185 C  
BRANCH  19  20
HETATM   20  C   UNL     1     -11.052  11.016  68.883  1.00  0.00    -0.295 C  
BRANCH  20  21
HETATM   21  C   UNL     1     -11.867  12.250  68.483  1.00  0.00    -0.359 C  
BRANCH  21  22
HETATM   22  C   UNL     1     -11.127  13.077  67.428  1.00  0.00    -0.302 C  
BRANCH  22  23
HETATM   23  C   UNL     1     -11.960  14.276  66.974  1.00  0.00    -0.463 C  
BRANCH  23  24
HETATM   24  C   UNL     1     -12.781  13.954  65.724  1.00  0.00    -0.503 C  
HETATM   25  C   UNL     1     -11.934  14.007  64.473  1.00  0.00    -0.448 C  
HETATM   26  O   UNL     1     -10.744  14.268  64.433  1.00  0.00    -0.327 OA 
HETATM   27  O   UNL     1     -12.652  13.729  63.361  1.00  0.00    -0.842 OA 
ENDBRANCH  23  24
ENDBRANCH  22  23
ENDBRANCH  21  22
ENDBRANCH  20  21
ENDBRANCH  19  20
ENDBRANCH  18  19
ENDBRANCH  10  11
ENDBRANCH   6   9
ENDBRANCH   5   6
ENDBRANCH   4   5
ENDBRANCH   3   4
ENDBRANCH   2   3
TORSDOF 12
ENDMDL
MODEL      118
REMARK 921   NORMALIZED FREE ENERGY PREDICTED BY IDOCK:   -4.74 KCAL/MOL
REMARK 922        TOTAL FREE ENERGY PREDICTED BY IDOCK:  -10.01 KCAL/MOL
REMARK 923 INTER-LIGAND FREE ENERGY PREDICTED BY IDOCK:   -8.32 KCAL/MOL
REMARK 924 INTRA-LIGAND FREE ENERGY PREDICTED BY IDOCK:   -1.69 KCAL/MOL
REMARK 927      BINDING AFFINITY PREDICTED BY RF-SCORE:    0.00 PKD
ROOT
HETATM    1  C   UNL     1      -7.901  16.109  68.651  1.00  0.00    -0.188 C  
HETATM    2  C   UNL     1      -8.857  15.734  67.533  1.00  0.00    -0.196 C  
ENDROOT
BRANCH   2   3
HETATM    3  C   UNL     1      -9.493  14.361  67.759  1.00  0.00    -0.211 C  
BRANCH   3   4
HETATM    4  C   UNL     1     -10.767  14.504  68.590  1.00  0.00    -0.257 C  
BRANCH   4   5
HETATM    5  C   UNL     1     -11.905  13.616  68.079  1.00  0.00    -0.397 C  
BRANCH   5   6
HETATM    6  C   UNL     1     -11.417  12.464  67.185  1.00  0.00    -0.357 C  
HETATM    7  O   UNL     1     -12.280  12.412  66.053  1.00  0.00    -0.636 OA 
HETATM    8  H   UNL     1     -11.979  11.700  65.500  1.00  0.00     0.000 HD 
BRANCH   6   9
HETATM    9  C   UNL     1     -11.389  11.132  67.902  1.00  0.00    -0.378 C  
HETATM   10  C   UNL     1     -10.358  10.592  68.573  1.00  0.00    -0.202 C  
BRANCH  10  11
HETATM   11  C   UNL     1     -10.348   9.186  69.133  1.00  0.00    -0.223 C  
HETATM   12  C   UNL     1      -9.003   8.501  68.813  1.00  0.00    -0.139 C  
HETATM   13  O   UNL     1      -8.956   8.011  67.480  1.00  0.00    -0.136 OA 
HETATM   14  C   UNL     1      -8.882   7.364  69.805  1.00  0.00    -0.141 C  
HETATM   15  H   UNL     1      -8.127   7.589  67.284  1.00  0.00     0.000 HD 
HETATM   16  C   UNL     1      -9.545   7.958  71.008  1.00  0.00    -0.159 C  
HETATM   17  O   UNL     1      -9.338   7.542  72.142  1.00  0.00    -0.136 OA 
HETATM   18  C   UNL     1     -10.491   9.101  70.672  1.00  0.00    -0.305 C  
BRANCH  18  19
HETATM   19  C   UNL     1     -11.945   8.804  71.085  1.00  0.00    -0.331 C  
BRANCH  19  20
HETATM   20  C   UNL     1     -12.586   9.899  71.949  1.00  0.00    -0.471 C  
BRANCH  20  21
HETATM   21  C   UNL     1     -12.663  11.240  71.214  1.00  0.00    -0.510 C  
BRANCH  21  22
HETATM   22  C   UNL     1     -13.266  12.324  72.113  1.00  0.00    -0.466 C  
BRANCH  22  23
HETATM   23  C   UNL     1     -13.145  13.708  71.475  1.00  0.00    -0.431 C  
BRANCH  23  24
HETATM   24  C   UNL     1     -13.846  14.779  72.312  1.00  0.00    -0.590 C  
HETATM   25  C   UNL     1     -12.855  15.616  73.089  1.00  0.00    -0.509 C  
HETATM   26  O   UNL     1     -11.644  15.480  73.070  1.00  0.00    -0.439 OA 
HETATM   27  O   UNL     1     -13.465  16.563  73.837  1.00  0.00    -0.513 OA 
ENDBRANCH  23  24
ENDBRANCH  22  23
ENDBRANCH  21  22
ENDBRANCH  20  21
ENDBRANCH  19  20
ENDBRANCH  18  19
ENDBRANCH  10  11
ENDBRANCH   6   9
ENDBRANCH   5   6
ENDBRANCH   4   5
ENDBRANCH   3   4
ENDBRANCH   2   3
TORSDOF 12
ENDMDL
MODEL      119
REMARK 921   NORMALIZED FREE ENERGY PREDICTED BY IDOCK:   -4.74 KCAL/MOL
REMARK 922        TOTAL FREE ENERGY PREDICTED BY IDOCK:  -10.01 KCAL/MOL
REMARK 923 INTER-LIGAND FREE ENERGY PREDICTED BY IDOCK:   -7.98 KCAL/MOL
REMARK 924 INTRA-LIGAND FREE ENERGY PREDICTED BY IDOCK:   -2.03 KCAL/MOL
REMARK 927      BINDING AFFINITY PREDICTED BY RF-SCORE:    0.00 PKD
ROOT
HETATM    1  C   UNL     1      -9.090   6.268  68.175  1.00  0.00    -0.112 C  
HETATM    2  C   UNL     1      -9.774   5.582  69.344  1.00  0.00    -0.216 C  
ENDROOT
BRANCH   2   3
HETATM    3  C   UNL     1     -11.171   6.151  69.605  1.00  0.00    -0.488 C  
BRANCH   3   4
HETATM    4  C   UNL     1     -11.518   6.029  71.088  1.00  0.00    -0.246 C  
BRANCH   4   5
HETATM    5  C   UNL     1     -10.452   6.649  71.994  1.00  0.00    -0.227 C  
BRANCH   5   6
HETATM    6  C   UNL     1     -10.868   8.013  72.571  1.00  0.00    -0.349 C  
HETATM    7  O   UNL     1     -12.182   7.867  73.099  1.00  0.00    -0.601 OA 
HETATM    8  H   UNL     1     -12.439   8.710  73.455  1.00  0.00     0.000 HD 
BRANCH   6   9
HETATM    9  C   UNL     1     -10.820   9.125  71.545  1.00  0.00    -0.436 C  
HETATM   10  C   UNL     1      -9.967   9.244  70.515  1.00  0.00    -0.307 C  
BRANCH  10  11
HETATM   11  C   UNL     1      -9.874  10.463  69.622  1.00  0.00    -0.179 C  
HETATM   12  C   UNL     1      -8.489  10.515  68.944  1.00  0.00    -0.152 C  
HETATM   13  O   UNL     1      -7.488  11.029  69.813  1.00  0.00    -0.349 OA 
HETATM   14  C   UNL     1      -8.662  11.413  67.738  1.00  0.00    -0.136 C  
HETATM   15  H   UNL     1      -6.635  11.062  69.395  1.00  0.00     0.000 HD 
HETATM   16  C   UNL     1     -10.064  11.083  67.331  1.00  0.00    -0.186 C  
HETATM   17  O   UNL     1     -10.481  11.286  66.196  1.00  0.00    -0.241 OA 
HETATM   18  C   UNL     1     -10.896  10.492  68.459  1.00  0.00    -0.275 C  
BRANCH  18  19
HETATM   19  C   UNL     1     -12.119  11.362  68.807  1.00  0.00    -0.256 C  
BRANCH  19  20
HETATM   20  C   UNL     1     -11.949  12.198  70.083  1.00  0.00    -0.394 C  
BRANCH  20  21
HETATM   21  C   UNL     1     -11.706  13.678  69.771  1.00  0.00    -0.364 C  
BRANCH  21  22
HETATM   22  C   UNL     1     -12.016  13.987  68.303  1.00  0.00    -0.384 C  
BRANCH  22  23
HETATM   23  C   UNL     1     -10.904  14.817  67.661  1.00  0.00    -0.285 C  
BRANCH  23  24
HETATM   24  C   UNL     1     -11.118  14.979  66.155  1.00  0.00    -0.329 C  
HETATM   25  C   UNL     1     -10.769  16.376  65.691  1.00  0.00    -0.270 C  
HETATM   26  O   UNL     1     -10.364  17.279  66.403  1.00  0.00    -0.331 OA 
HETATM   27  O   UNL     1     -10.961  16.532  64.362  1.00  0.00    -0.872 OA 
ENDBRANCH  23  24
ENDBRANCH  22  23
ENDBRANCH  21  22
ENDBRANCH  20  21
ENDBRANCH  19  20
ENDBRANCH  18  19
ENDBRANCH  10  11
ENDBRANCH   6   9
ENDBRANCH   5   6
ENDBRANCH   4   5
ENDBRANCH   3   4
ENDBRANCH   2   3
TORSDOF 12
ENDMDL
MODEL      120
REMARK 921   NORMALIZED FREE ENERGY PREDICTED BY IDOCK:   -4.73 KCAL/MOL
REMARK 922        TOTAL FREE ENERGY PREDICTED BY IDOCK:  -10.01 KCAL/MOL
REMARK 923 INTER-LIGAND FREE ENERGY PREDICTED BY IDOCK:   -7.78 KCAL/MOL
REMARK 924 INTRA-LIGAND FREE ENERGY PREDICTED BY IDOCK:   -2.23 KCAL/MOL
REMARK 927      BINDING AFFINITY PREDICTED BY RF-SCORE:    0.00 PKD
ROOT
HETATM    1  C   UNL     1     -10.921   6.079  69.548  1.00  0.00    -0.467 C  
HETATM    2  C   UNL     1     -11.534   6.525  70.864  1.00  0.00    -0.408 C  
ENDROOT
BRANCH   2   3
HETATM    3  C   UNL     1     -10.524   7.260  71.747  1.00  0.00    -0.218 C  
BRANCH   3   4
HETATM    4  C   UNL     1     -10.901   8.736  71.857  1.00  0.00    -0.431 C  
BRANCH   4   5
HETATM    5  C   UNL     1     -12.392   8.944  72.134  1.00  0.00    -0.449 C  
BRANCH   5   6
HETATM    6  C   UNL     1     -13.043   9.972  71.194  1.00  0.00    -0.386 C  
HETATM    7  O   UNL     1     -14.176   9.345  70.600  1.00  0.00    -0.431 OA 
HETATM    8  H   UNL     1     -14.578   9.980  70.019  1.00  0.00     0.000 HD 
BRANCH   6   9
HETATM    9  C   UNL     1     -12.094  10.486  70.133  1.00  0.00    -0.380 C  
HETATM   10  C   UNL     1     -11.868  11.766  69.797  1.00  0.00    -0.420 C  
BRANCH  10  11
HETATM   11  C   UNL     1     -11.022  12.201  68.619  1.00  0.00    -0.284 C  
HETATM   12  C   UNL     1      -9.946  11.135  68.322  1.00  0.00    -0.187 C  
HETATM   13  O   UNL     1      -8.836  11.236  69.204  1.00  0.00    -0.374 OA 
HETATM   14  C   UNL     1      -9.515  11.382  66.892  1.00  0.00    -0.193 C  
HETATM   15  H   UNL     1      -8.173  10.580  69.021  1.00  0.00     0.000 HD 
HETATM   16  C   UNL     1     -10.803  11.833  66.276  1.00  0.00    -0.281 C  
HETATM   17  O   UNL     1     -11.008  11.773  65.069  1.00  0.00    -0.300 OA 
HETATM   18  C   UNL     1     -11.800  12.372  67.292  1.00  0.00    -0.357 C  
BRANCH  18  19
HETATM   19  C   UNL     1     -12.160  13.848  67.038  1.00  0.00    -0.451 C  
BRANCH  19  20
HETATM   20  C   UNL     1     -11.376  14.841  67.906  1.00  0.00    -0.331 C  
BRANCH  20  21
HETATM   21  C   UNL     1     -10.337  15.619  67.094  1.00  0.00    -0.285 C  
BRANCH  21  22
HETATM   22  C   UNL     1      -9.291  16.259  68.012  1.00  0.00    -0.214 C  
BRANCH  22  23
HETATM   23  C   UNL     1      -8.329  15.214  68.577  1.00  0.00    -0.158 C  
BRANCH  23  24
HETATM   24  C   UNL     1      -7.520  14.534  67.471  1.00  0.00    -0.216 C  
HETATM   25  C   UNL     1      -6.631  13.442  68.023  1.00  0.00    -0.133 C  
HETATM   26  O   UNL     1      -6.549  13.120  69.196  1.00  0.00    -0.102 OA 
HETATM   27  O   UNL     1      -5.907  12.838  67.054  1.00  0.00    -0.324 OA 
ENDBRANCH  23  24
ENDBRANCH  22  23
ENDBRANCH  21  22
ENDBRANCH  20  21
ENDBRANCH  19  20
ENDBRANCH  18  19
ENDBRANCH  10  11
ENDBRANCH   6   9
ENDBRANCH   5   6
ENDBRANCH   4   5
ENDBRANCH   3   4
ENDBRANCH   2   3
TORSDOF 12
ENDMDL
MODEL      121
REMARK 921   NORMALIZED FREE ENERGY PREDICTED BY IDOCK:   -4.73 KCAL/MOL
REMARK 922        TOTAL FREE ENERGY PREDICTED BY IDOCK:   -9.99 KCAL/MOL
REMARK 923 INTER-LIGAND FREE ENERGY PREDICTED BY IDOCK:   -8.54 KCAL/MOL
REMARK 924 INTRA-LIGAND FREE ENERGY PREDICTED BY IDOCK:   -1.46 KCAL/MOL
REMARK 927      BINDING AFFINITY PREDICTED BY RF-SCORE:    0.00 PKD
ROOT
HETATM    1  C   UNL     1     -10.445   5.372  73.088  1.00  0.00    -0.251 C  
HETATM    2  C   UNL     1     -11.036   6.731  72.763  1.00  0.00    -0.292 C  
ENDROOT
BRANCH   2   3
HETATM    3  C   UNL     1      -9.973   7.832  72.754  1.00  0.00    -0.321 C  
BRANCH   3   4
HETATM    4  C   UNL     1     -10.386   8.951  71.800  1.00  0.00    -0.426 C  
BRANCH   4   5
HETATM    5  C   UNL     1     -11.818   8.788  71.286  1.00  0.00    -0.358 C  
BRANCH   5   6
HETATM    6  C   UNL     1     -12.588  10.118  71.209  1.00  0.00    -0.404 C  
HETATM    7  O   UNL     1     -13.780   9.875  70.469  1.00  0.00    -0.502 OA 
HETATM    8  H   UNL     1     -14.256  10.696  70.422  1.00  0.00     0.000 HD 
BRANCH   6   9
HETATM    9  C   UNL     1     -11.780  11.231  70.579  1.00  0.00    -0.345 C  
HETATM   10  C   UNL     1     -11.757  11.586  69.284  1.00  0.00    -0.397 C  
BRANCH  10  11
HETATM   11  C   UNL     1     -10.806  12.607  68.697  1.00  0.00    -0.281 C  
HETATM   12  C   UNL     1      -9.553  11.900  68.139  1.00  0.00    -0.195 C  
HETATM   13  O   UNL     1      -8.625  11.569  69.165  1.00  0.00    -0.373 OA 
HETATM   14  C   UNL     1      -8.940  12.876  67.159  1.00  0.00    -0.219 C  
HETATM   15  H   UNL     1      -7.854  11.134  68.821  1.00  0.00     0.000 HD 
HETATM   16  C   UNL     1     -10.164  13.529  66.597  1.00  0.00    -0.275 C  
HETATM   17  O   UNL     1     -10.162  14.101  65.513  1.00  0.00    -0.320 OA 
HETATM   18  C   UNL     1     -11.379  13.415  67.507  1.00  0.00    -0.327 C  
BRANCH  18  19
HETATM   19  C   UNL     1     -11.904  14.789  67.963  1.00  0.00    -0.324 C  
BRANCH  19  20
HETATM   20  C   UNL     1     -11.309  15.278  69.290  1.00  0.00    -0.308 C  
BRANCH  20  21
HETATM   21  C   UNL     1     -10.656  16.656  69.154  1.00  0.00    -0.340 C  
BRANCH  21  22
HETATM   22  C   UNL     1     -10.496  17.045  67.681  1.00  0.00    -0.343 C  
BRANCH  22  23
HETATM   23  C   UNL     1     -10.779  18.531  67.463  1.00  0.00    -0.419 C  
BRANCH  23  24
HETATM   24  C   UNL     1      -9.671  19.409  68.047  1.00  0.00    -0.447 C  
HETATM   25  C   UNL     1      -8.604  19.717  67.020  1.00  0.00    -0.312 C  
HETATM   26  O   UNL     1      -8.601  19.329  65.864  1.00  0.00    -0.445 OA 
HETATM   27  O   UNL     1      -7.617  20.488  67.528  1.00  0.00    -0.312 OA 
ENDBRANCH  23  24
ENDBRANCH  22  23
ENDBRANCH  21  22
ENDBRANCH  20  21
ENDBRANCH  19  20
ENDBRANCH  18  19
ENDBRANCH  10  11
ENDBRANCH   6   9
ENDBRANCH   5   6
ENDBRANCH   4   5
ENDBRANCH   3   4
ENDBRANCH   2   3
TORSDOF 12
ENDMDL
MODEL      122
REMARK 921   NORMALIZED FREE ENERGY PREDICTED BY IDOCK:   -4.71 KCAL/MOL
REMARK 922        TOTAL FREE ENERGY PREDICTED BY IDOCK:   -9.97 KCAL/MOL
REMARK 923 INTER-LIGAND FREE ENERGY PREDICTED BY IDOCK:   -8.29 KCAL/MOL
REMARK 924 INTRA-LIGAND FREE ENERGY PREDICTED BY IDOCK:   -1.67 KCAL/MOL
REMARK 927      BINDING AFFINITY PREDICTED BY RF-SCORE:    0.00 PKD
ROOT
HETATM    1  C   UNL     1     -10.426   5.593  70.250  1.00  0.00    -0.363 C  
HETATM    2  C   UNL     1     -10.123   6.062  71.662  1.00  0.00    -0.227 C  
ENDROOT
BRANCH   2   3
HETATM    3  C   UNL     1      -9.266   7.329  71.675  1.00  0.00    -0.155 C  
BRANCH   3   4
HETATM    4  C   UNL     1     -10.148   8.556  71.905  1.00  0.00    -0.367 C  
BRANCH   4   5
HETATM    5  C   UNL     1     -11.495   8.202  72.539  1.00  0.00    -0.470 C  
BRANCH   5   6
HETATM    6  C   UNL     1     -12.693   8.823  71.801  1.00  0.00    -0.359 C  
HETATM    7  O   UNL     1     -13.373   7.765  71.134  1.00  0.00    -0.539 OA 
HETATM    8  H   UNL     1     -14.114   8.149  70.677  1.00  0.00     0.000 HD 
BRANCH   6   9
HETATM    9  C   UNL     1     -12.286   9.903  70.822  1.00  0.00    -0.380 C  
HETATM   10  C   UNL     1     -12.506  11.223  70.932  1.00  0.00    -0.493 C  
BRANCH  10  11
HETATM   11  C   UNL     1     -12.211  12.230  69.841  1.00  0.00    -0.234 C  
HETATM   12  C   UNL     1     -11.948  13.618  70.462  1.00  0.00    -0.280 C  
HETATM   13  O   UNL     1     -13.154  14.287  70.805  1.00  0.00    -0.343 OA 
HETATM   14  C   UNL     1     -11.187  14.395  69.408  1.00  0.00    -0.317 C  
HETATM   15  H   UNL     1     -12.992  15.142  71.187  1.00  0.00     0.000 HD 
HETATM   16  C   UNL     1     -10.371  13.309  68.781  1.00  0.00    -0.140 C  
HETATM   17  O   UNL     1      -9.345  13.541  68.152  1.00  0.00    -0.203 OA 
HETATM   18  C   UNL     1     -10.951  11.919  68.996  1.00  0.00    -0.267 C  
BRANCH  18  19
HETATM   19  C   UNL     1     -11.321  11.223  67.672  1.00  0.00    -0.352 C  
BRANCH  19  20
HETATM   20  C   UNL     1     -11.983  12.148  66.643  1.00  0.00    -0.186 C  
BRANCH  20  21
HETATM   21  C   UNL     1     -11.354  12.008  65.254  1.00  0.00    -0.366 C  
BRANCH  21  22
HETATM   22  C   UNL     1     -11.392  13.339  64.498  1.00  0.00    -0.392 C  
BRANCH  22  23
HETATM   23  C   UNL     1     -10.350  14.319  65.040  1.00  0.00    -0.448 C  
BRANCH  23  24
HETATM   24  C   UNL     1     -11.006  15.530  65.705  1.00  0.00    -0.307 C  
HETATM   25  C   UNL     1      -9.982  16.572  66.096  1.00  0.00    -0.343 C  
HETATM   26  O   UNL     1      -8.780  16.487  65.915  1.00  0.00    -0.456 OA 
HETATM   27  O   UNL     1     -10.551  17.645  66.690  1.00  0.00    -0.305 OA 
ENDBRANCH  23  24
ENDBRANCH  22  23
ENDBRANCH  21  22
ENDBRANCH  20  21
ENDBRANCH  19  20
ENDBRANCH  18  19
ENDBRANCH  10  11
ENDBRANCH   6   9
ENDBRANCH   5   6
ENDBRANCH   4   5
ENDBRANCH   3   4
ENDBRANCH   2   3
TORSDOF 12
ENDMDL
MODEL      123
REMARK 921   NORMALIZED FREE ENERGY PREDICTED BY IDOCK:   -4.71 KCAL/MOL
REMARK 922        TOTAL FREE ENERGY PREDICTED BY IDOCK:   -9.96 KCAL/MOL
REMARK 923 INTER-LIGAND FREE ENERGY PREDICTED BY IDOCK:   -8.16 KCAL/MOL
REMARK 924 INTRA-LIGAND FREE ENERGY PREDICTED BY IDOCK:   -1.81 KCAL/MOL
REMARK 927      BINDING AFFINITY PREDICTED BY RF-SCORE:    0.00 PKD
ROOT
HETATM    1  C   UNL     1     -11.572  14.790  64.934  1.00  0.00    -0.401 C  
HETATM    2  C   UNL     1     -11.029  14.041  66.137  1.00  0.00    -0.295 C  
ENDROOT
BRANCH   2   3
HETATM    3  C   UNL     1     -11.599  12.625  66.237  1.00  0.00    -0.440 C  
BRANCH   3   4
HETATM    4  C   UNL     1     -11.778  12.233  67.703  1.00  0.00    -0.403 C  
BRANCH   4   5
HETATM    5  C   UNL     1     -11.879  13.448  68.628  1.00  0.00    -0.397 C  
BRANCH   5   6
HETATM    6  C   UNL     1     -12.317  13.085  70.057  1.00  0.00    -0.152 C  
HETATM    7  O   UNL     1     -11.567  13.901  70.950  1.00  0.00    -0.517 OA 
HETATM    8  H   UNL     1     -11.837  13.677  71.833  1.00  0.00     0.000 HD 
BRANCH   6   9
HETATM    9  C   UNL     1     -12.126  11.618  70.377  1.00  0.00    -0.462 C  
HETATM   10  C   UNL     1     -12.729  10.914  71.348  1.00  0.00    -0.539 C  
BRANCH  10  11
HETATM   11  C   UNL     1     -12.373   9.488  71.713  1.00  0.00    -0.474 C  
HETATM   12  C   UNL     1     -13.659   8.649  71.872  1.00  0.00    -0.410 C  
HETATM   13  O   UNL     1     -14.279   8.856  73.134  1.00  0.00    -1.144 OA 
HETATM   14  C   UNL     1     -13.222   7.207  71.722  1.00  0.00    -0.355 C  
HETATM   15  H   UNL     1     -15.070   8.339  73.232  1.00  0.00     0.000 HD 
HETATM   16  C   UNL     1     -12.125   7.341  70.713  1.00  0.00    -0.245 C  
HETATM   17  O   UNL     1     -11.753   6.399  70.022  1.00  0.00    -0.429 OA 
HETATM   18  C   UNL     1     -11.530   8.740  70.651  1.00  0.00    -0.263 C  
BRANCH  18  19
HETATM   19  C   UNL     1     -10.032   8.760  71.009  1.00  0.00    -0.297 C  
BRANCH  19  20
HETATM   20  C   UNL     1      -9.098   8.789  69.791  1.00  0.00    -0.151 C  
BRANCH  20  21
HETATM   21  C   UNL     1      -9.772   9.410  68.565  1.00  0.00    -0.160 C  
BRANCH  21  22
HETATM   22  C   UNL     1      -8.795  10.306  67.797  1.00  0.00    -0.125 C  
BRANCH  22  23
HETATM   23  C   UNL     1      -8.665   9.867  66.338  1.00  0.00    -0.144 C  
BRANCH  23  24
HETATM   24  C   UNL     1      -7.202   9.681  65.932  1.00  0.00    -0.099 C  
HETATM   25  C   UNL     1      -6.952  10.154  64.518  1.00  0.00    -0.117 C  
HETATM   26  O   UNL     1      -7.790  10.630  63.771  1.00  0.00    -0.038 OA 
HETATM   27  O   UNL     1      -5.663   9.988  64.146  1.00  0.00    -0.098 OA 
ENDBRANCH  23  24
ENDBRANCH  22  23
ENDBRANCH  21  22
ENDBRANCH  20  21
ENDBRANCH  19  20
ENDBRANCH  18  19
ENDBRANCH  10  11
ENDBRANCH   6   9
ENDBRANCH   5   6
ENDBRANCH   4   5
ENDBRANCH   3   4
ENDBRANCH   2   3
TORSDOF 12
ENDMDL
MODEL      124
REMARK 921   NORMALIZED FREE ENERGY PREDICTED BY IDOCK:   -4.71 KCAL/MOL
REMARK 922        TOTAL FREE ENERGY PREDICTED BY IDOCK:   -9.96 KCAL/MOL
REMARK 923 INTER-LIGAND FREE ENERGY PREDICTED BY IDOCK:   -7.23 KCAL/MOL
REMARK 924 INTRA-LIGAND FREE ENERGY PREDICTED BY IDOCK:   -2.73 KCAL/MOL
REMARK 927      BINDING AFFINITY PREDICTED BY RF-SCORE:    0.00 PKD
ROOT
HETATM    1  C   UNL     1      -9.824  10.564  64.621  1.00  0.00    -0.404 C  
HETATM    2  C   UNL     1      -9.747   9.555  65.753  1.00  0.00    -0.357 C  
ENDROOT
BRANCH   2   3
HETATM    3  C   UNL     1      -8.349   9.493  66.372  1.00  0.00    -0.120 C  
BRANCH   3   4
HETATM    4  C   UNL     1      -7.543  10.728  65.972  1.00  0.00    -0.130 C  
BRANCH   4   5
HETATM    5  C   UNL     1      -6.813  11.364  67.158  1.00  0.00    -0.124 C  
BRANCH   5   6
HETATM    6  C   UNL     1      -7.271  12.804  67.447  1.00  0.00    -0.132 C  
HETATM    7  O   UNL     1      -7.291  12.965  68.862  1.00  0.00    -0.205 OA 
HETATM    8  H   UNL     1      -7.574  13.855  69.041  1.00  0.00     0.000 HD 
BRANCH   6   9
HETATM    9  C   UNL     1      -8.623  13.124  66.849  1.00  0.00    -0.118 C  
HETATM   10  C   UNL     1      -9.316  14.268  66.973  1.00  0.00    -0.249 C  
BRANCH  10  11
HETATM   11  C   UNL     1     -10.734  14.463  66.479  1.00  0.00    -0.306 C  
HETATM   12  C   UNL     1     -10.718  14.953  65.015  1.00  0.00    -0.431 C  
HETATM   13  O   UNL     1     -10.454  16.346  64.921  1.00  0.00    -0.643 OA 
HETATM   14  C   UNL     1     -12.092  14.631  64.467  1.00  0.00    -0.490 C  
HETATM   15  H   UNL     1     -10.445  16.647  64.020  1.00  0.00     0.000 HD 
HETATM   16  C   UNL     1     -12.400  13.356  65.186  1.00  0.00    -0.456 C  
HETATM   17  O   UNL     1     -13.228  12.553  64.771  1.00  0.00    -0.839 OA 
HETATM   18  C   UNL     1     -11.597  13.178  66.467  1.00  0.00    -0.402 C  
BRANCH  18  19
HETATM   19  C   UNL     1     -12.494  13.092  67.717  1.00  0.00     0.358 C  
BRANCH  19  20
HETATM   20  C   UNL     1     -11.806  12.467  68.938  1.00  0.00    -0.346 C  
BRANCH  20  21
HETATM   21  C   UNL     1     -11.455  10.994  68.710  1.00  0.00    -0.372 C  
BRANCH  21  22
HETATM   22  C   UNL     1     -10.024  10.694  69.167  1.00  0.00    -0.228 C  
BRANCH  22  23
HETATM   23  C   UNL     1      -9.909   9.287  69.753  1.00  0.00    -0.202 C  
BRANCH  23  24
HETATM   24  C   UNL     1     -11.284   8.657  69.984  1.00  0.00    -0.098 C  
HETATM   25  C   UNL     1     -11.529   8.378  71.450  1.00  0.00    -0.277 C  
HETATM   26  O   UNL     1     -10.749   8.616  72.356  1.00  0.00    -0.339 OA 
HETATM   27  O   UNL     1     -12.739   7.816  71.665  1.00  0.00    -0.318 OA 
ENDBRANCH  23  24
ENDBRANCH  22  23
ENDBRANCH  21  22
ENDBRANCH  20  21
ENDBRANCH  19  20
ENDBRANCH  18  19
ENDBRANCH  10  11
ENDBRANCH   6   9
ENDBRANCH   5   6
ENDBRANCH   4   5
ENDBRANCH   3   4
ENDBRANCH   2   3
TORSDOF 12
ENDMDL
MODEL      125
REMARK 921   NORMALIZED FREE ENERGY PREDICTED BY IDOCK:   -4.70 KCAL/MOL
REMARK 922        TOTAL FREE ENERGY PREDICTED BY IDOCK:   -9.95 KCAL/MOL
REMARK 923 INTER-LIGAND FREE ENERGY PREDICTED BY IDOCK:   -7.69 KCAL/MOL
REMARK 924 INTRA-LIGAND FREE ENERGY PREDICTED BY IDOCK:   -2.26 KCAL/MOL
REMARK 927      BINDING AFFINITY PREDICTED BY RF-SCORE:    0.00 PKD
ROOT
HETATM    1  C   UNL     1     -11.734  13.891  65.694  1.00  0.00    -0.362 C  
HETATM    2  C   UNL     1     -11.787  12.394  65.943  1.00  0.00    -0.467 C  
ENDROOT
BRANCH   2   3
HETATM    3  C   UNL     1     -11.679  12.056  67.431  1.00  0.00    -0.352 C  
BRANCH   3   4
HETATM    4  C   UNL     1     -10.828  10.802  67.623  1.00  0.00    -0.332 C  
BRANCH   4   5
HETATM    5  C   UNL     1      -9.428  10.943  67.022  1.00  0.00    -0.184 C  
BRANCH   5   6
HETATM    6  C   UNL     1      -8.392  11.485  68.022  1.00  0.00    -0.146 C  
HETATM    7  O   UNL     1      -8.700  10.925  69.295  1.00  0.00    -0.348 OA 
HETATM    8  H   UNL     1      -8.061  11.260  69.913  1.00  0.00     0.000 HD 
BRANCH   6   9
HETATM    9  C   UNL     1      -8.372  12.996  68.089  1.00  0.00    -0.164 C  
HETATM   10  C   UNL     1      -7.668  13.834  67.309  1.00  0.00    -0.095 C  
BRANCH  10  11
HETATM   11  C   UNL     1      -7.573  15.328  67.533  1.00  0.00    -0.212 C  
HETATM   12  C   UNL     1      -6.167  15.830  67.144  1.00  0.00     0.094 C  
HETATM   13  O   UNL     1      -5.208  15.578  68.163  1.00  0.00    -0.104 OA 
HETATM   14  C   UNL     1      -6.319  17.318  66.909  1.00  0.00    -0.225 C  
HETATM   15  H   UNL     1      -4.342  15.888  67.923  1.00  0.00     0.000 HD 
HETATM   16  C   UNL     1      -7.698  17.380  66.331  1.00  0.00    -0.308 C  
HETATM   17  O   UNL     1      -8.080  18.325  65.650  1.00  0.00    -0.477 OA 
HETATM   18  C   UNL     1      -8.554  16.174  66.685  1.00  0.00    -0.311 C  
BRANCH  18  19
HETATM   19  C   UNL     1      -9.808  16.558  67.494  1.00  0.00    -0.248 C  
BRANCH  19  20
HETATM   20  C   UNL     1      -9.578  16.626  69.010  1.00  0.00    -0.246 C  
BRANCH  20  21
HETATM   21  C   UNL     1     -10.319  15.513  69.755  1.00  0.00    -0.316 C  
BRANCH  21  22
HETATM   22  C   UNL     1     -11.787  15.447  69.323  1.00  0.00    -0.365 C  
BRANCH  22  23
HETATM   23  C   UNL     1     -12.650  14.765  70.384  1.00  0.00    -0.399 C  
BRANCH  23  24
HETATM   24  C   UNL     1     -12.404  15.350  71.776  1.00  0.00    -0.453 C  
HETATM   25  C   UNL     1     -13.205  14.625  72.835  1.00  0.00    -0.512 C  
HETATM   26  O   UNL     1     -13.959  13.689  72.635  1.00  0.00    -0.733 OA 
HETATM   27  O   UNL     1     -12.999  15.139  74.068  1.00  0.00    -0.425 OA 
ENDBRANCH  23  24
ENDBRANCH  22  23
ENDBRANCH  21  22
ENDBRANCH  20  21
ENDBRANCH  19  20
ENDBRANCH  18  19
ENDBRANCH  10  11
ENDBRANCH   6   9
ENDBRANCH   5   6
ENDBRANCH   4   5
ENDBRANCH   3   4
ENDBRANCH   2   3
TORSDOF 12
ENDMDL
MODEL      126
REMARK 921   NORMALIZED FREE ENERGY PREDICTED BY IDOCK:   -4.70 KCAL/MOL
REMARK 922        TOTAL FREE ENERGY PREDICTED BY IDOCK:   -9.95 KCAL/MOL
REMARK 923 INTER-LIGAND FREE ENERGY PREDICTED BY IDOCK:   -8.67 KCAL/MOL
REMARK 924 INTRA-LIGAND FREE ENERGY PREDICTED BY IDOCK:   -1.28 KCAL/MOL
REMARK 927      BINDING AFFINITY PREDICTED BY RF-SCORE:    0.00 PKD
ROOT
HETATM    1  C   UNL     1      -7.361   4.508  69.684  1.00  0.00    -0.051 C  
HETATM    2  C   UNL     1      -6.390   4.577  68.519  1.00  0.00    -0.036 C  
ENDROOT
BRANCH   2   3
HETATM    3  C   UNL     1      -7.113   4.616  67.171  1.00  0.00    -0.068 C  
BRANCH   3   4
HETATM    4  C   UNL     1      -8.615   4.431  67.377  1.00  0.00    -0.105 C  
BRANCH   4   5
HETATM    5  C   UNL     1      -9.430   5.623  66.869  1.00  0.00    -0.142 C  
BRANCH   5   6
HETATM    6  C   UNL     1     -10.788   5.772  67.576  1.00  0.00    -0.174 C  
HETATM    7  O   UNL     1     -11.602   6.604  66.757  1.00  0.00    -0.718 OA 
HETATM    8  H   UNL     1     -12.441   6.696  67.194  1.00  0.00     0.000 HD 
BRANCH   6   9
HETATM    9  C   UNL     1     -10.666   6.342  68.973  1.00  0.00    -0.339 C  
HETATM   10  C   UNL     1     -11.636   6.445  69.896  1.00  0.00    -0.422 C  
BRANCH  10  11
HETATM   11  C   UNL     1     -11.483   7.170  71.215  1.00  0.00    -0.314 C  
HETATM   12  C   UNL     1     -11.055   6.176  72.316  1.00  0.00    -0.277 C  
HETATM   13  O   UNL     1     -12.154   5.424  72.814  1.00  0.00    -0.448 OA 
HETATM   14  C   UNL     1     -10.447   7.024  73.413  1.00  0.00    -0.383 C  
HETATM   15  H   UNL     1     -11.890   4.813  73.491  1.00  0.00     0.000 HD 
HETATM   16  C   UNL     1      -9.799   8.110  72.613  1.00  0.00    -0.294 C  
HETATM   17  O   UNL     1      -8.884   8.794  73.057  1.00  0.00    -0.340 OA 
HETATM   18  C   UNL     1     -10.399   8.276  71.224  1.00  0.00    -0.256 C  
BRANCH  18  19
HETATM   19  C   UNL     1     -11.018   9.670  71.012  1.00  0.00    -0.431 C  
BRANCH  19  20
HETATM   20  C   UNL     1     -12.552   9.680  71.007  1.00  0.00    -0.367 C  
BRANCH  20  21
HETATM   21  C   UNL     1     -13.124  10.698  71.997  1.00  0.00    -0.501 C  
BRANCH  21  22
HETATM   22  C   UNL     1     -12.835  12.131  71.538  1.00  0.00    -0.394 C  
BRANCH  22  23
HETATM   23  C   UNL     1     -13.760  13.135  72.226  1.00  0.00    -0.647 C  
BRANCH  23  24
HETATM   24  C   UNL     1     -12.973  14.264  72.893  1.00  0.00    -0.548 C  
HETATM   25  C   UNL     1     -12.998  15.527  72.062  1.00  0.00    -0.434 C  
HETATM   26  O   UNL     1     -13.566  15.659  70.991  1.00  0.00    -0.588 OA 
HETATM   27  O   UNL     1     -12.300  16.530  72.640  1.00  0.00    -0.392 OA 
ENDBRANCH  23  24
ENDBRANCH  22  23
ENDBRANCH  21  22
ENDBRANCH  20  21
ENDBRANCH  19  20
ENDBRANCH  18  19
ENDBRANCH  10  11
ENDBRANCH   6   9
ENDBRANCH   5   6
ENDBRANCH   4   5
ENDBRANCH   3   4
ENDBRANCH   2   3
TORSDOF 12
ENDMDL
MODEL      127
REMARK 921   NORMALIZED FREE ENERGY PREDICTED BY IDOCK:   -4.70 KCAL/MOL
REMARK 922        TOTAL FREE ENERGY PREDICTED BY IDOCK:   -9.94 KCAL/MOL
REMARK 923 INTER-LIGAND FREE ENERGY PREDICTED BY IDOCK:   -8.33 KCAL/MOL
REMARK 924 INTRA-LIGAND FREE ENERGY PREDICTED BY IDOCK:   -1.61 KCAL/MOL
REMARK 927      BINDING AFFINITY PREDICTED BY RF-SCORE:    0.00 PKD
ROOT
HETATM    1  C   UNL     1      -8.531   9.215  64.362  1.00  0.00    -0.198 C  
HETATM    2  C   UNL     1      -8.681  10.102  65.584  1.00  0.00    -0.173 C  
ENDROOT
BRANCH   2   3
HETATM    3  C   UNL     1      -8.102   9.450  66.841  1.00  0.00    -0.109 C  
BRANCH   3   4
HETATM    4  C   UNL     1      -8.746   8.084  67.067  1.00  0.00    -0.132 C  
BRANCH   4   5
HETATM    5  C   UNL     1      -8.013   7.254  68.123  1.00  0.00    -0.123 C  
BRANCH   5   6
HETATM    6  C   UNL     1      -8.927   6.790  69.270  1.00  0.00    -0.137 C  
HETATM    7  O   UNL     1      -9.207   5.410  69.055  1.00  0.00    -0.115 OA 
HETATM    8  H   UNL     1      -9.773   5.123  69.764  1.00  0.00     0.000 HD 
BRANCH   6   9
HETATM    9  C   UNL     1     -10.207   7.592  69.365  1.00  0.00    -0.204 C  
HETATM   10  C   UNL     1     -10.540   8.479  70.316  1.00  0.00    -0.238 C  
BRANCH  10  11
HETATM   11  C   UNL     1     -11.903   9.128  70.435  1.00  0.00    -0.057 C  
HETATM   12  C   UNL     1     -12.711   8.453  71.562  1.00  0.00    -0.308 C  
HETATM   13  O   UNL     1     -13.291   7.225  71.142  1.00  0.00    -0.552 OA 
HETATM   14  C   UNL     1     -13.786   9.448  71.942  1.00  0.00    -0.440 C  
HETATM   15  H   UNL     1     -13.789   6.809  71.836  1.00  0.00     0.000 HD 
HETATM   16  C   UNL     1     -13.063  10.744  71.745  1.00  0.00    -0.468 C  
HETATM   17  O   UNL     1     -13.418  11.782  72.291  1.00  0.00    -0.423 OA 
HETATM   18  C   UNL     1     -11.873  10.632  70.802  1.00  0.00    -0.459 C  
BRANCH  18  19
HETATM   19  C   UNL     1     -12.027  11.519  69.552  1.00  0.00    -0.402 C  
BRANCH  19  20
HETATM   20  C   UNL     1     -11.110  11.122  68.387  1.00  0.00    -0.303 C  
BRANCH  20  21
HETATM   21  C   UNL     1     -11.617  11.662  67.047  1.00  0.00    -0.268 C  
BRANCH  21  22
HETATM   22  C   UNL     1     -11.024  13.043  66.753  1.00  0.00    -0.299 C  
BRANCH  22  23
HETATM   23  C   UNL     1     -10.747  13.226  65.261  1.00  0.00    -0.322 C  
BRANCH  23  24
HETATM   24  C   UNL     1     -10.512  14.694  64.904  1.00  0.00    -0.415 C  
HETATM   25  C   UNL     1     -11.731  15.312  64.258  1.00  0.00    -0.215 C  
HETATM   26  O   UNL     1     -12.784  14.738  64.037  1.00  0.00    -0.786 OA 
HETATM   27  O   UNL     1     -11.532  16.610  63.933  1.00  0.00    -1.186 OA 
ENDBRANCH  23  24
ENDBRANCH  22  23
ENDBRANCH  21  22
ENDBRANCH  20  21
ENDBRANCH  19  20
ENDBRANCH  18  19
ENDBRANCH  10  11
ENDBRANCH   6   9
ENDBRANCH   5   6
ENDBRANCH   4   5
ENDBRANCH   3   4
ENDBRANCH   2   3
TORSDOF 12
ENDMDL
MODEL      128
REMARK 921   NORMALIZED FREE ENERGY PREDICTED BY IDOCK:   -4.69 KCAL/MOL
REMARK 922        TOTAL FREE ENERGY PREDICTED BY IDOCK:   -9.93 KCAL/MOL
REMARK 923 INTER-LIGAND FREE ENERGY PREDICTED BY IDOCK:   -7.58 KCAL/MOL
REMARK 924 INTRA-LIGAND FREE ENERGY PREDICTED BY IDOCK:   -2.35 KCAL/MOL
REMARK 927      BINDING AFFINITY PREDICTED BY RF-SCORE:    0.00 PKD
ROOT
HETATM    1  C   UNL     1     -10.985  11.546  63.664  1.00  0.00    -0.482 C  
HETATM    2  C   UNL     1      -9.537  11.136  63.869  1.00  0.00    -0.286 C  
ENDROOT
BRANCH   2   3
HETATM    3  C   UNL     1      -9.364   9.615  63.856  1.00  0.00    -0.096 C  
BRANCH   3   4
HETATM    4  C   UNL     1      -8.565   9.169  65.079  1.00  0.00    -0.204 C  
BRANCH   4   5
HETATM    5  C   UNL     1      -9.364   8.240  65.997  1.00  0.00    -0.217 C  
BRANCH   5   6
HETATM    6  C   UNL     1      -9.591   8.827  67.401  1.00  0.00    -0.161 C  
HETATM    7  O   UNL     1     -10.929   8.520  67.776  1.00  0.00    -0.495 OA 
HETATM    8  H   UNL     1     -11.070   8.883  68.644  1.00  0.00     0.000 HD 
BRANCH   6   9
HETATM    9  C   UNL     1      -9.341  10.318  67.464  1.00  0.00    -0.164 C  
HETATM   10  C   UNL     1     -10.100  11.243  68.074  1.00  0.00    -0.192 C  
BRANCH  10  11
HETATM   11  C   UNL     1      -9.875  12.736  67.963  1.00  0.00    -0.226 C  
HETATM   12  C   UNL     1      -8.385  13.026  67.687  1.00  0.00    -0.181 C  
HETATM   13  O   UNL     1      -7.599  12.957  68.869  1.00  0.00    -0.276 OA 
HETATM   14  C   UNL     1      -8.345  14.420  67.099  1.00  0.00    -0.214 C  
HETATM   15  H   UNL     1      -6.682  13.136  68.699  1.00  0.00     0.000 HD 
HETATM   16  C   UNL     1      -9.623  14.442  66.320  1.00  0.00    -0.298 C  
HETATM   17  O   UNL     1      -9.811  15.220  65.392  1.00  0.00    -0.332 OA 
HETATM   18  C   UNL     1     -10.642  13.422  66.806  1.00  0.00    -0.277 C  
BRANCH  18  19
HETATM   19  C   UNL     1     -11.942  14.080  67.306  1.00  0.00    -0.448 C  
BRANCH  19  20
HETATM   20  C   UNL     1     -11.886  14.542  68.769  1.00  0.00    -0.350 C  
BRANCH  20  21
HETATM   21  C   UNL     1     -11.773  16.064  68.888  1.00  0.00    -0.322 C  
BRANCH  21  22
HETATM   22  C   UNL     1     -10.344  16.482  69.247  1.00  0.00    -0.318 C  
BRANCH  22  23
HETATM   23  C   UNL     1     -10.020  17.878  68.716  1.00  0.00    -0.377 C  
BRANCH  23  24
HETATM   24  C   UNL     1     -10.605  18.102  67.320  1.00  0.00    -0.384 C  
HETATM   25  C   UNL     1     -10.447  19.538  66.874  1.00  0.00    -0.477 C  
HETATM   26  O   UNL     1      -9.923  20.428  67.522  1.00  0.00    -0.420 OA 
HETATM   27  O   UNL     1     -10.966  19.748  65.643  1.00  0.00    -0.382 OA 
ENDBRANCH  23  24
ENDBRANCH  22  23
ENDBRANCH  21  22
ENDBRANCH  20  21
ENDBRANCH  19  20
ENDBRANCH  18  19
ENDBRANCH  10  11
ENDBRANCH   6   9
ENDBRANCH   5   6
ENDBRANCH   4   5
ENDBRANCH   3   4
ENDBRANCH   2   3
TORSDOF 12
ENDMDL
MODEL      129
REMARK 921   NORMALIZED FREE ENERGY PREDICTED BY IDOCK:   -4.67 KCAL/MOL
REMARK 922        TOTAL FREE ENERGY PREDICTED BY IDOCK:   -9.90 KCAL/MOL
REMARK 923 INTER-LIGAND FREE ENERGY PREDICTED BY IDOCK:   -7.85 KCAL/MOL
REMARK 924 INTRA-LIGAND FREE ENERGY PREDICTED BY IDOCK:   -2.05 KCAL/MOL
REMARK 927      BINDING AFFINITY PREDICTED BY RF-SCORE:    0.00 PKD
ROOT
HETATM    1  C   UNL     1     -11.941  12.869  63.369  1.00  0.00    -0.612 C  
HETATM    2  C   UNL     1     -12.650  12.540  64.671  1.00  0.00    -0.507 C  
ENDROOT
BRANCH   2   3
HETATM    3  C   UNL     1     -11.686  12.515  65.859  1.00  0.00    -0.480 C  
BRANCH   3   4
HETATM    4  C   UNL     1     -11.727  13.854  66.595  1.00  0.00    -0.417 C  
BRANCH   4   5
HETATM    5  C   UNL     1     -12.002  13.694  68.092  1.00  0.00    -0.390 C  
BRANCH   5   6
HETATM    6  C   UNL     1     -11.501  14.884  68.928  1.00  0.00    -0.299 C  
HETATM    7  O   UNL     1     -12.641  15.655  69.292  1.00  0.00    -0.570 OA 
HETATM    8  H   UNL     1     -12.332  16.391  69.809  1.00  0.00     0.000 HD 
BRANCH   6   9
HETATM    9  C   UNL     1     -10.486  15.734  68.196  1.00  0.00    -0.263 C  
HETATM   10  C   UNL     1     -10.498  17.069  68.051  1.00  0.00    -0.353 C  
BRANCH  10  11
HETATM   11  C   UNL     1      -9.536  17.838  67.171  1.00  0.00    -0.265 C  
HETATM   12  C   UNL     1     -10.306  18.885  66.338  1.00  0.00    -0.443 C  
HETATM   13  O   UNL     1     -10.938  18.305  65.204  1.00  0.00    -0.628 OA 
HETATM   14  C   UNL     1      -9.271  19.903  65.910  1.00  0.00    -0.224 C  
HETATM   15  H   UNL     1     -11.412  18.950  64.692  1.00  0.00     0.000 HD 
HETATM   16  C   UNL     1      -8.363  19.910  67.100  1.00  0.00    -0.322 C  
HETATM   17  O   UNL     1      -7.617  20.850  67.349  1.00  0.00    -0.345 OA 
HETATM   18  C   UNL     1      -8.460  18.644  67.939  1.00  0.00    -0.297 C  
BRANCH  18  19
HETATM   19  C   UNL     1      -7.125  17.878  68.005  1.00  0.00    -0.215 C  
BRANCH  19  20
HETATM   20  C   UNL     1      -7.027  16.892  69.178  1.00  0.00    -0.234 C  
BRANCH  20  21
HETATM   21  C   UNL     1      -6.284  15.611  68.791  1.00  0.00    -0.103 C  
BRANCH  21  22
HETATM   22  C   UNL     1      -7.039  14.847  67.698  1.00  0.00    -0.208 C  
BRANCH  22  23
HETATM   23  C   UNL     1      -7.674  13.570  68.248  1.00  0.00    -0.137 C  
BRANCH  23  24
HETATM   24  C   UNL     1      -8.135  12.640  67.125  1.00  0.00    -0.141 C  
HETATM   25  C   UNL     1      -8.450  11.254  67.643  1.00  0.00    -0.124 C  
HETATM   26  O   UNL     1      -8.359  10.895  68.804  1.00  0.00    -0.139 OA 
HETATM   27  O   UNL     1      -8.853  10.422  66.657  1.00  0.00    -0.133 OA 
ENDBRANCH  23  24
ENDBRANCH  22  23
ENDBRANCH  21  22
ENDBRANCH  20  21
ENDBRANCH  19  20
ENDBRANCH  18  19
ENDBRANCH  10  11
ENDBRANCH   6   9
ENDBRANCH   5   6
ENDBRANCH   4   5
ENDBRANCH   3   4
ENDBRANCH   2   3
TORSDOF 12
ENDMDL
MODEL      130
REMARK 921   NORMALIZED FREE ENERGY PREDICTED BY IDOCK:   -4.67 KCAL/MOL
REMARK 922        TOTAL FREE ENERGY PREDICTED BY IDOCK:   -9.89 KCAL/MOL
REMARK 923 INTER-LIGAND FREE ENERGY PREDICTED BY IDOCK:   -7.74 KCAL/MOL
REMARK 924 INTRA-LIGAND FREE ENERGY PREDICTED BY IDOCK:   -2.15 KCAL/MOL
REMARK 927      BINDING AFFINITY PREDICTED BY RF-SCORE:    0.00 PKD
ROOT
HETATM    1  C   UNL     1     -12.216  13.404  63.645  1.00  0.00    -0.480 C  
HETATM    2  C   UNL     1     -11.665  12.043  64.034  1.00  0.00    -0.498 C  
ENDROOT
BRANCH   2   3
HETATM    3  C   UNL     1     -10.314  11.762  63.374  1.00  0.00    -0.481 C  
BRANCH   3   4
HETATM    4  C   UNL     1      -9.675  10.521  63.996  1.00  0.00    -0.383 C  
BRANCH   4   5
HETATM    5  C   UNL     1      -9.926  10.422  65.502  1.00  0.00    -0.348 C  
BRANCH   5   6
HETATM    6  C   UNL     1      -8.652  10.617  66.341  1.00  0.00    -0.149 C  
HETATM    7  O   UNL     1      -8.512   9.469  67.171  1.00  0.00    -0.129 OA 
HETATM    8  H   UNL     1      -7.724   9.590  67.690  1.00  0.00     0.000 HD 
BRANCH   6   9
HETATM    9  C   UNL     1      -8.681  11.882  67.171  1.00  0.00    -0.176 C  
HETATM   10  C   UNL     1      -9.377  13.003  66.920  1.00  0.00    -0.241 C  
BRANCH  10  11
HETATM   11  C   UNL     1      -9.236  14.288  67.708  1.00  0.00    -0.194 C  
HETATM   12  C   UNL     1      -8.459  15.332  66.878  1.00  0.00    -0.252 C  
HETATM   13  O   UNL     1      -7.056  15.110  66.918  1.00  0.00    -0.296 OA 
HETATM   14  C   UNL     1      -8.806  16.673  67.489  1.00  0.00    -0.202 C  
HETATM   15  H   UNL     1      -6.578  15.753  66.408  1.00  0.00     0.000 HD 
HETATM   16  C   UNL     1     -10.226  16.445  67.901  1.00  0.00    -0.268 C  
HETATM   17  O   UNL     1     -11.011  17.369  68.086  1.00  0.00    -0.334 OA 
HETATM   18  C   UNL     1     -10.576  14.974  68.071  1.00  0.00    -0.250 C  
BRANCH  18  19
HETATM   19  C   UNL     1     -11.009  14.634  69.510  1.00  0.00    -0.269 C  
BRANCH  19  20
HETATM   20  C   UNL     1     -12.249  13.733  69.594  1.00  0.00    -0.359 C  
BRANCH  20  21
HETATM   21  C   UNL     1     -11.947  12.402  70.288  1.00  0.00    -0.371 C  
BRANCH  21  22
HETATM   22  C   UNL     1     -11.914  11.252  69.277  1.00  0.00    -0.411 C  
BRANCH  22  23
HETATM   23  C   UNL     1     -10.942  10.154  69.713  1.00  0.00    -0.325 C  
BRANCH  23  24
HETATM   24  C   UNL     1     -11.075   9.841  71.204  1.00  0.00    -0.414 C  
HETATM   25  C   UNL     1     -11.160   8.352  71.455  1.00  0.00    -0.266 C  
HETATM   26  O   UNL     1     -11.127   7.486  70.598  1.00  0.00    -0.256 OA 
HETATM   27  O   UNL     1     -11.284   8.065  72.771  1.00  0.00    -0.384 OA 
ENDBRANCH  23  24
ENDBRANCH  22  23
ENDBRANCH  21  22
ENDBRANCH  20  21
ENDBRANCH  19  20
ENDBRANCH  18  19
ENDBRANCH  10  11
ENDBRANCH   6   9
ENDBRANCH   5   6
ENDBRANCH   4   5
ENDBRANCH   3   4
ENDBRANCH   2   3
TORSDOF 12
ENDMDL
MODEL      131
REMARK 921   NORMALIZED FREE ENERGY PREDICTED BY IDOCK:   -4.67 KCAL/MOL
REMARK 922        TOTAL FREE ENERGY PREDICTED BY IDOCK:   -9.89 KCAL/MOL
REMARK 923 INTER-LIGAND FREE ENERGY PREDICTED BY IDOCK:   -8.06 KCAL/MOL
REMARK 924 INTRA-LIGAND FREE ENERGY PREDICTED BY IDOCK:   -1.83 KCAL/MOL
REMARK 927      BINDING AFFINITY PREDICTED BY RF-SCORE:    0.00 PKD
ROOT
HETATM    1  C   UNL     1      -6.800  14.968  68.317  1.00  0.00    -0.120 C  
HETATM    2  C   UNL     1      -6.807  16.487  68.302  1.00  0.00    -0.143 C  
ENDROOT
BRANCH   2   3
HETATM    3  C   UNL     1      -6.768  17.047  66.879  1.00  0.00    -0.252 C  
BRANCH   3   4
HETATM    4  C   UNL     1      -8.109  16.813  66.187  1.00  0.00    -0.293 C  
BRANCH   4   5
HETATM    5  C   UNL     1      -9.043  18.021  66.288  1.00  0.00    -0.197 C  
BRANCH   5   6
HETATM    6  C   UNL     1     -10.402  17.684  66.925  1.00  0.00    -0.329 C  
HETATM    7  O   UNL     1     -10.824  18.833  67.653  1.00  0.00    -0.426 OA 
HETATM    8  H   UNL     1     -11.664  18.624  68.047  1.00  0.00     0.000 HD 
BRANCH   6   9
HETATM    9  C   UNL     1     -10.345  16.468  67.824  1.00  0.00    -0.291 C  
HETATM   10  C   UNL     1     -11.375  15.700  68.217  1.00  0.00    -0.357 C  
BRANCH  10  11
HETATM   11  C   UNL     1     -11.267  14.593  69.244  1.00  0.00    -0.306 C  
HETATM   12  C   UNL     1     -12.537  14.563  70.120  1.00  0.00    -0.288 C  
HETATM   13  O   UNL     1     -12.510  15.557  71.135  1.00  0.00    -0.366 OA 
HETATM   14  C   UNL     1     -12.575  13.178  70.730  1.00  0.00    -0.338 C  
HETATM   15  H   UNL     1     -13.292  15.538  71.675  1.00  0.00     0.000 HD 
HETATM   16  C   UNL     1     -11.996  12.357  69.620  1.00  0.00    -0.274 C  
HETATM   17  O   UNL     1     -12.189  11.150  69.529  1.00  0.00    -0.323 OA 
HETATM   18  C   UNL     1     -11.152  13.168  68.649  1.00  0.00    -0.304 C  
BRANCH  18  19
HETATM   19  C   UNL     1      -9.686  12.695  68.605  1.00  0.00    -0.050 C  
BRANCH  19  20
HETATM   20  C   UNL     1      -9.401  11.640  67.528  1.00  0.00    -0.168 C  
BRANCH  20  21
HETATM   21  C   UNL     1      -9.714  12.156  66.121  1.00  0.00    -0.254 C  
BRANCH  21  22
HETATM   22  C   UNL     1      -9.560  11.041  65.081  1.00  0.00    -0.281 C  
BRANCH  22  23
HETATM   23  C   UNL     1     -10.748  11.006  64.121  1.00  0.00    -0.344 C  
BRANCH  23  24
HETATM   24  C   UNL     1     -11.041  12.387  63.533  1.00  0.00    -0.521 C  
HETATM   25  C   UNL     1     -12.505  12.746  63.657  1.00  0.00    -0.389 C  
HETATM   26  O   UNL     1     -13.366  12.045  64.160  1.00  0.00    -0.725 OA 
HETATM   27  O   UNL     1     -12.776  13.964  63.135  1.00  0.00    -0.718 OA 
ENDBRANCH  23  24
ENDBRANCH  22  23
ENDBRANCH  21  22
ENDBRANCH  20  21
ENDBRANCH  19  20
ENDBRANCH  18  19
ENDBRANCH  10  11
ENDBRANCH   6   9
ENDBRANCH   5   6
ENDBRANCH   4   5
ENDBRANCH   3   4
ENDBRANCH   2   3
TORSDOF 12
ENDMDL
MODEL      132
REMARK 921   NORMALIZED FREE ENERGY PREDICTED BY IDOCK:   -4.66 KCAL/MOL
REMARK 922        TOTAL FREE ENERGY PREDICTED BY IDOCK:   -9.88 KCAL/MOL
REMARK 923 INTER-LIGAND FREE ENERGY PREDICTED BY IDOCK:   -8.11 KCAL/MOL
REMARK 924 INTRA-LIGAND FREE ENERGY PREDICTED BY IDOCK:   -1.78 KCAL/MOL
REMARK 927      BINDING AFFINITY PREDICTED BY RF-SCORE:    0.00 PKD
ROOT
HETATM    1  C   UNL     1     -12.639  16.024  73.592  1.00  0.00    -0.706 C  
HETATM    2  C   UNL     1     -13.711  15.459  72.678  1.00  0.00    -0.640 C  
ENDROOT
BRANCH   2   3
HETATM    3  C   UNL     1     -13.849  13.943  72.824  1.00  0.00    -0.320 C  
BRANCH   3   4
HETATM    4  C   UNL     1     -13.143  13.238  71.668  1.00  0.00    -0.453 C  
BRANCH   4   5
HETATM    5  C   UNL     1     -12.940  11.743  71.925  1.00  0.00    -0.435 C  
BRANCH   5   6
HETATM    6  C   UNL     1     -12.275  11.011  70.747  1.00  0.00    -0.380 C  
HETATM    7  O   UNL     1     -11.270  10.161  71.289  1.00  0.00    -0.290 OA 
HETATM    8  H   UNL     1     -10.859   9.709  70.560  1.00  0.00     0.000 HD 
BRANCH   6   9
HETATM    9  C   UNL     1     -11.687  11.957  69.722  1.00  0.00    -0.403 C  
HETATM   10  C   UNL     1     -11.941  11.986  68.404  1.00  0.00    -0.256 C  
BRANCH  10  11
HETATM   11  C   UNL     1     -11.198  12.856  67.412  1.00  0.00    -0.331 C  
HETATM   12  C   UNL     1     -12.200  13.701  66.598  1.00  0.00    -0.389 C  
HETATM   13  O   UNL     1     -12.801  12.954  65.549  1.00  0.00    -0.531 OA 
HETATM   14  C   UNL     1     -11.396  14.855  66.039  1.00  0.00    -0.306 C  
HETATM   15  H   UNL     1     -13.418  13.474  65.048  1.00  0.00     0.000 HD 
HETATM   16  C   UNL     1     -10.419  15.091  67.148  1.00  0.00    -0.277 C  
HETATM   17  O   UNL     1      -9.835  16.159  67.290  1.00  0.00    -0.235 OA 
HETATM   18  C   UNL     1     -10.228  13.880  68.050  1.00  0.00    -0.246 C  
BRANCH  18  19
HETATM   19  C   UNL     1      -8.777  13.361  68.041  1.00  0.00    -0.178 C  
BRANCH  19  20
HETATM   20  C   UNL     1      -8.408  12.559  66.786  1.00  0.00    -0.034 C  
BRANCH  20  21
HETATM   21  C   UNL     1      -7.565  11.325  67.120  1.00  0.00    -0.137 C  
BRANCH  21  22
HETATM   22  C   UNL     1      -8.456  10.112  67.406  1.00  0.00    -0.122 C  
BRANCH  22  23
HETATM   23  C   UNL     1      -9.515   9.929  66.318  1.00  0.00    -0.245 C  
BRANCH  23  24
HETATM   24  C   UNL     1      -8.917  10.074  64.917  1.00  0.00    -0.241 C  
HETATM   25  C   UNL     1      -9.791  10.926  64.025  1.00  0.00    -0.322 C  
HETATM   26  O   UNL     1     -10.843  11.447  64.352  1.00  0.00    -0.335 OA 
HETATM   27  O   UNL     1      -9.274  11.056  62.782  1.00  0.00    -0.297 OA 
ENDBRANCH  23  24
ENDBRANCH  22  23
ENDBRANCH  21  22
ENDBRANCH  20  21
ENDBRANCH  19  20
ENDBRANCH  18  19
ENDBRANCH  10  11
ENDBRANCH   6   9
ENDBRANCH   5   6
ENDBRANCH   4   5
ENDBRANCH   3   4
ENDBRANCH   2   3
TORSDOF 12
ENDMDL
MODEL      133
REMARK 921   NORMALIZED FREE ENERGY PREDICTED BY IDOCK:   -4.66 KCAL/MOL
REMARK 922        TOTAL FREE ENERGY PREDICTED BY IDOCK:   -9.87 KCAL/MOL
REMARK 923 INTER-LIGAND FREE ENERGY PREDICTED BY IDOCK:   -8.16 KCAL/MOL
REMARK 924 INTRA-LIGAND FREE ENERGY PREDICTED BY IDOCK:   -1.72 KCAL/MOL
REMARK 927      BINDING AFFINITY PREDICTED BY RF-SCORE:    0.00 PKD
ROOT
HETATM    1  C   UNL     1     -12.991  10.797  71.112  1.00  0.00    -0.467 C  
HETATM    2  C   UNL     1     -12.655   9.596  71.978  1.00  0.00    -0.443 C  
ENDROOT
BRANCH   2   3
HETATM    3  C   UNL     1     -11.685   8.639  71.282  1.00  0.00    -0.341 C  
BRANCH   3   4
HETATM    4  C   UNL     1     -10.246   8.984  71.660  1.00  0.00    -0.418 C  
BRANCH   4   5
HETATM    5  C   UNL     1      -9.376   9.299  70.441  1.00  0.00    -0.295 C  
BRANCH   5   6
HETATM    6  C   UNL     1     -10.147   9.222  69.113  1.00  0.00    -0.199 C  
HETATM    7  O   UNL     1      -9.592   8.147  68.363  1.00  0.00    -0.145 OA 
HETATM    8  H   UNL     1     -10.068   8.100  67.541  1.00  0.00     0.000 HD 
BRANCH   6   9
HETATM    9  C   UNL     1     -10.093  10.513  68.325  1.00  0.00    -0.180 C  
HETATM   10  C   UNL     1     -10.910  10.891  67.328  1.00  0.00    -0.342 C  
BRANCH  10  11
HETATM   11  C   UNL     1     -10.702  12.126  66.478  1.00  0.00    -0.290 C  
HETATM   12  C   UNL     1     -10.327  11.718  65.038  1.00  0.00    -0.281 C  
HETATM   13  O   UNL     1      -8.956  11.361  64.923  1.00  0.00    -0.390 OA 
HETATM   14  C   UNL     1     -10.639  12.925  64.180  1.00  0.00    -0.442 C  
HETATM   15  H   UNL     1      -8.725  11.110  64.036  1.00  0.00     0.000 HD 
HETATM   16  C   UNL     1     -11.843  13.473  64.880  1.00  0.00    -0.374 C  
HETATM   17  O   UNL     1     -12.644  14.214  64.321  1.00  0.00    -0.676 OA 
HETATM   18  C   UNL     1     -11.951  13.029  66.331  1.00  0.00    -0.466 C  
BRANCH  18  19
HETATM   19  C   UNL     1     -11.907  14.213  67.315  1.00  0.00    -0.452 C  
BRANCH  19  20
HETATM   20  C   UNL     1     -11.863  13.798  68.792  1.00  0.00    -0.398 C  
BRANCH  20  21
HETATM   21  C   UNL     1     -11.029  14.765  69.637  1.00  0.00    -0.285 C  
BRANCH  21  22
HETATM   22  C   UNL     1     -10.842  16.103  68.915  1.00  0.00    -0.305 C  
BRANCH  22  23
HETATM   23  C   UNL     1      -9.443  16.674  69.149  1.00  0.00    -0.188 C  
BRANCH  23  24
HETATM   24  C   UNL     1      -8.362  15.604  68.987  1.00  0.00    -0.235 C  
HETATM   25  C   UNL     1      -6.975  16.187  69.139  1.00  0.00    -0.201 C  
HETATM   26  O   UNL     1      -6.719  17.357  69.364  1.00  0.00    -0.247 OA 
HETATM   27  O   UNL     1      -6.011  15.250  68.992  1.00  0.00    -0.096 OA 
ENDBRANCH  23  24
ENDBRANCH  22  23
ENDBRANCH  21  22
ENDBRANCH  20  21
ENDBRANCH  19  20
ENDBRANCH  18  19
ENDBRANCH  10  11
ENDBRANCH   6   9
ENDBRANCH   5   6
ENDBRANCH   4   5
ENDBRANCH   3   4
ENDBRANCH   2   3
TORSDOF 12
ENDMDL
MODEL      134
REMARK 921   NORMALIZED FREE ENERGY PREDICTED BY IDOCK:   -4.65 KCAL/MOL
REMARK 922        TOTAL FREE ENERGY PREDICTED BY IDOCK:   -9.86 KCAL/MOL
REMARK 923 INTER-LIGAND FREE ENERGY PREDICTED BY IDOCK:   -8.52 KCAL/MOL
REMARK 924 INTRA-LIGAND FREE ENERGY PREDICTED BY IDOCK:   -1.34 KCAL/MOL
REMARK 927      BINDING AFFINITY PREDICTED BY RF-SCORE:    0.00 PKD
ROOT
HETATM    1  C   UNL     1     -11.182  13.977  66.319  1.00  0.00    -0.320 C  
HETATM    2  C   UNL     1     -12.247  14.113  65.244  1.00  0.00    -0.440 C  
ENDROOT
BRANCH   2   3
HETATM    3  C   UNL     1     -12.708  12.752  64.719  1.00  0.00    -0.469 C  
BRANCH   3   4
HETATM    4  C   UNL     1     -11.893  12.361  63.488  1.00  0.00    -0.605 C  
BRANCH   4   5
HETATM    5  C   UNL     1     -10.385  12.393  63.747  1.00  0.00    -0.454 C  
BRANCH   5   6
HETATM    6  C   UNL     1      -9.751  10.992  63.804  1.00  0.00    -0.309 C  
HETATM    7  O   UNL     1     -10.027  10.352  62.562  1.00  0.00    -0.714 OA 
HETATM    8  H   UNL     1      -9.636   9.486  62.598  1.00  0.00     0.000 HD 
BRANCH   6   9
HETATM    9  C   UNL     1     -10.259  10.162  64.963  1.00  0.00    -0.203 C  
HETATM   10  C   UNL     1     -10.193  10.466  66.269  1.00  0.00    -0.286 C  
BRANCH  10  11
HETATM   11  C   UNL     1     -10.579   9.518  67.385  1.00  0.00    -0.337 C  
HETATM   12  C   UNL     1      -9.675   8.267  67.349  1.00  0.00    -0.174 C  
HETATM   13  O   UNL     1     -10.092   7.334  66.361  1.00  0.00    -0.442 OA 
HETATM   14  C   UNL     1      -9.772   7.659  68.732  1.00  0.00    -0.153 C  
HETATM   15  H   UNL     1      -9.535   6.565  66.340  1.00  0.00     0.000 HD 
HETATM   16  C   UNL     1      -9.904   8.886  69.579  1.00  0.00    -0.180 C  
HETATM   17  O   UNL     1      -9.629   8.890  70.774  1.00  0.00    -0.192 OA 
HETATM   18  C   UNL     1     -10.416  10.096  68.812  1.00  0.00    -0.223 C  
BRANCH  18  19
HETATM   19  C   UNL     1     -11.756  10.619  69.362  1.00  0.00    -0.344 C  
BRANCH  19  20
HETATM   20  C   UNL     1     -11.903  12.146  69.304  1.00  0.00    -0.370 C  
BRANCH  20  21
HETATM   21  C   UNL     1     -12.274  12.740  70.666  1.00  0.00    -0.374 C  
BRANCH  21  22
HETATM   22  C   UNL     1     -12.521  14.248  70.557  1.00  0.00    -0.428 C  
BRANCH  22  23
HETATM   23  C   UNL     1     -11.267  14.987  70.092  1.00  0.00    -0.291 C  
BRANCH  23  24
HETATM   24  C   UNL     1     -11.613  16.187  69.209  1.00  0.00    -0.270 C  
HETATM   25  C   UNL     1     -10.378  16.785  68.574  1.00  0.00    -0.316 C  
HETATM   26  O   UNL     1      -9.237  16.383  68.726  1.00  0.00    -0.220 OA 
HETATM   27  O   UNL     1     -10.671  17.851  67.795  1.00  0.00    -0.400 OA 
ENDBRANCH  23  24
ENDBRANCH  22  23
ENDBRANCH  21  22
ENDBRANCH  20  21
ENDBRANCH  19  20
ENDBRANCH  18  19
ENDBRANCH  10  11
ENDBRANCH   6   9
ENDBRANCH   5   6
ENDBRANCH   4   5
ENDBRANCH   3   4
ENDBRANCH   2   3
TORSDOF 12
ENDMDL
MODEL      135
REMARK 921   NORMALIZED FREE ENERGY PREDICTED BY IDOCK:   -4.64 KCAL/MOL
REMARK 922        TOTAL FREE ENERGY PREDICTED BY IDOCK:   -9.84 KCAL/MOL
REMARK 923 INTER-LIGAND FREE ENERGY PREDICTED BY IDOCK:   -7.75 KCAL/MOL
REMARK 924 INTRA-LIGAND FREE ENERGY PREDICTED BY IDOCK:   -2.09 KCAL/MOL
REMARK 927      BINDING AFFINITY PREDICTED BY RF-SCORE:    0.00 PKD
ROOT
HETATM    1  C   UNL     1      -9.222   3.102  67.231  1.00  0.00    -0.219 C  
HETATM    2  C   UNL     1      -9.837   4.421  66.799  1.00  0.00    -0.241 C  
ENDROOT
BRANCH   2   3
HETATM    3  C   UNL     1     -10.082   5.356  67.985  1.00  0.00    -0.224 C  
BRANCH   3   4
HETATM    4  C   UNL     1     -11.031   6.482  67.578  1.00  0.00    -0.444 C  
BRANCH   4   5
HETATM    5  C   UNL     1     -10.301   7.663  66.934  1.00  0.00    -0.388 C  
BRANCH   5   6
HETATM    6  C   UNL     1     -10.299   8.925  67.814  1.00  0.00    -0.242 C  
HETATM    7  O   UNL     1     -11.135   8.660  68.936  1.00  0.00    -0.435 OA 
HETATM    8  H   UNL     1     -11.133   9.440  69.479  1.00  0.00     0.000 HD 
BRANCH   6   9
HETATM    9  C   UNL     1     -10.763  10.160  67.074  1.00  0.00    -0.264 C  
HETATM   10  C   UNL     1     -10.374  10.572  65.857  1.00  0.00    -0.275 C  
BRANCH  10  11
HETATM   11  C   UNL     1     -10.761  11.901  65.243  1.00  0.00    -0.331 C  
HETATM   12  C   UNL     1     -11.544  11.669  63.934  1.00  0.00    -0.309 C  
HETATM   13  O   UNL     1     -10.683  11.372  62.842  1.00  0.00    -0.699 OA 
HETATM   14  C   UNL     1     -12.303  12.954  63.682  1.00  0.00    -0.520 C  
HETATM   15  H   UNL     1     -11.166  11.229  62.036  1.00  0.00     0.000 HD 
HETATM   16  C   UNL     1     -12.619  13.381  65.081  1.00  0.00    -0.440 C  
HETATM   17  O   UNL     1     -13.536  14.153  65.339  1.00  0.00    -0.648 OA 
HETATM   18  C   UNL     1     -11.690  12.773  66.122  1.00  0.00    -0.458 C  
BRANCH  18  19
HETATM   19  C   UNL     1     -10.893  13.841  66.895  1.00  0.00    -0.286 C  
BRANCH  19  20
HETATM   20  C   UNL     1      -9.649  14.350  66.155  1.00  0.00    -0.309 C  
BRANCH  20  21
HETATM   21  C   UNL     1      -8.410  14.366  67.055  1.00  0.00    -0.172 C  
BRANCH  21  22
HETATM   22  C   UNL     1      -8.589  13.426  68.251  1.00  0.00    -0.169 C  
BRANCH  22  23
HETATM   23  C   UNL     1      -7.876  12.093  68.024  1.00  0.00    -0.145 C  
BRANCH  23  24
HETATM   24  C   UNL     1      -6.663  12.249  67.105  1.00  0.00    -0.105 C  
HETATM   25  C   UNL     1      -6.370  10.974  66.348  1.00  0.00    -0.133 C  
HETATM   26  O   UNL     1      -7.004   9.936  66.436  1.00  0.00    -0.089 OA 
HETATM   27  O   UNL     1      -5.295  11.099  65.537  1.00  0.00    -0.207 OA 
ENDBRANCH  23  24
ENDBRANCH  22  23
ENDBRANCH  21  22
ENDBRANCH  20  21
ENDBRANCH  19  20
ENDBRANCH  18  19
ENDBRANCH  10  11
ENDBRANCH   6   9
ENDBRANCH   5   6
ENDBRANCH   4   5
ENDBRANCH   3   4
ENDBRANCH   2   3
TORSDOF 12
ENDMDL
MODEL      136
REMARK 921   NORMALIZED FREE ENERGY PREDICTED BY IDOCK:   -4.63 KCAL/MOL
REMARK 922        TOTAL FREE ENERGY PREDICTED BY IDOCK:   -9.83 KCAL/MOL
REMARK 923 INTER-LIGAND FREE ENERGY PREDICTED BY IDOCK:   -7.90 KCAL/MOL
REMARK 924 INTRA-LIGAND FREE ENERGY PREDICTED BY IDOCK:   -1.93 KCAL/MOL
REMARK 927      BINDING AFFINITY PREDICTED BY RF-SCORE:    0.00 PKD
ROOT
HETATM    1  C   UNL     1     -12.273  13.890  64.005  1.00  0.00    -0.413 C  
HETATM    2  C   UNL     1     -12.143  12.390  64.205  1.00  0.00    -0.539 C  
ENDROOT
BRANCH   2   3
HETATM    3  C   UNL     1     -10.839  11.844  63.619  1.00  0.00    -0.510 C  
BRANCH   3   4
HETATM    4  C   UNL     1     -10.231  10.811  64.566  1.00  0.00    -0.428 C  
BRANCH   4   5
HETATM    5  C   UNL     1     -10.587  11.075  66.031  1.00  0.00    -0.275 C  
BRANCH   5   6
HETATM    6  C   UNL     1      -9.437  11.716  66.827  1.00  0.00    -0.186 C  
HETATM    7  O   UNL     1      -8.427  10.725  66.984  1.00  0.00    -0.125 OA 
HETATM    8  H   UNL     1      -7.717  11.121  67.476  1.00  0.00     0.000 HD 
BRANCH   6   9
HETATM    9  C   UNL     1      -9.878  12.254  68.170  1.00  0.00    -0.212 C  
HETATM   10  C   UNL     1     -11.061  12.814  68.472  1.00  0.00    -0.300 C  
BRANCH  10  11
HETATM   11  C   UNL     1     -11.378  13.474  69.797  1.00  0.00    -0.161 C  
HETATM   12  C   UNL     1     -11.433  15.007  69.622  1.00  0.00    -0.294 C  
HETATM   13  O   UNL     1     -10.136  15.589  69.599  1.00  0.00    -0.264 OA 
HETATM   14  C   UNL     1     -12.228  15.521  70.803  1.00  0.00    -0.450 C  
HETATM   15  H   UNL     1     -10.170  16.532  69.491  1.00  0.00     0.000 HD 
HETATM   16  C   UNL     1     -13.211  14.409  70.995  1.00  0.00    -0.333 C  
HETATM   17  O   UNL     1     -14.274  14.570  71.584  1.00  0.00    -0.435 OA 
HETATM   18  C   UNL     1     -12.749  13.086  70.402  1.00  0.00    -0.046 C  
BRANCH  18  19
HETATM   19  C   UNL     1     -12.601  11.983  71.468  1.00  0.00    -0.279 C  
BRANCH  19  20
HETATM   20  C   UNL     1     -12.873  10.567  70.943  1.00  0.00    -0.485 C  
BRANCH  20  21
HETATM   21  C   UNL     1     -11.757   9.589  71.322  1.00  0.00    -0.444 C  
BRANCH  21  22
HETATM   22  C   UNL     1     -10.520   9.802  70.445  1.00  0.00    -0.358 C  
BRANCH  22  23
HETATM   23  C   UNL     1      -9.885   8.471  70.043  1.00  0.00    -0.181 C  
BRANCH  23  24
HETATM   24  C   UNL     1     -10.161   8.133  68.577  1.00  0.00    -0.233 C  
HETATM   25  C   UNL     1     -11.017   6.894  68.443  1.00  0.00    -0.132 C  
HETATM   26  O   UNL     1     -11.449   6.227  69.368  1.00  0.00    -0.427 OA 
HETATM   27  O   UNL     1     -11.262   6.582  67.150  1.00  0.00    -0.388 OA 
ENDBRANCH  23  24
ENDBRANCH  22  23
ENDBRANCH  21  22
ENDBRANCH  20  21
ENDBRANCH  19  20
ENDBRANCH  18  19
ENDBRANCH  10  11
ENDBRANCH   6   9
ENDBRANCH   5   6
ENDBRANCH   4   5
ENDBRANCH   3   4
ENDBRANCH   2   3
TORSDOF 12
ENDMDL
MODEL      137
REMARK 921   NORMALIZED FREE ENERGY PREDICTED BY IDOCK:   -4.63 KCAL/MOL
REMARK 922        TOTAL FREE ENERGY PREDICTED BY IDOCK:   -9.83 KCAL/MOL
REMARK 923 INTER-LIGAND FREE ENERGY PREDICTED BY IDOCK:   -7.04 KCAL/MOL
REMARK 924 INTRA-LIGAND FREE ENERGY PREDICTED BY IDOCK:   -2.79 KCAL/MOL
REMARK 927      BINDING AFFINITY PREDICTED BY RF-SCORE:    0.00 PKD
ROOT
HETATM    1  C   UNL     1     -10.959  13.407  64.426  1.00  0.00    -0.413 C  
HETATM    2  C   UNL     1     -10.098  12.272  64.951  1.00  0.00    -0.274 C  
ENDROOT
BRANCH   2   3
HETATM    3  C   UNL     1     -10.819  11.455  66.025  1.00  0.00    -0.306 C  
BRANCH   3   4
HETATM    4  C   UNL     1      -9.874  10.404  66.606  1.00  0.00    -0.251 C  
BRANCH   4   5
HETATM    5  C   UNL     1      -8.467  10.951  66.855  1.00  0.00    -0.135 C  
BRANCH   5   6
HETATM    6  C   UNL     1      -8.297  11.569  68.253  1.00  0.00    -0.154 C  
HETATM    7  O   UNL     1      -9.210  10.907  69.122  1.00  0.00    -0.327 OA 
HETATM    8  H   UNL     1      -9.106  11.289  69.986  1.00  0.00     0.000 HD 
BRANCH   6   9
HETATM    9  C   UNL     1      -8.527  13.065  68.268  1.00  0.00    -0.159 C  
HETATM   10  C   UNL     1      -7.949  13.983  67.476  1.00  0.00    -0.199 C  
BRANCH  10  11
HETATM   11  C   UNL     1      -8.106  15.479  67.651  1.00  0.00    -0.162 C  
HETATM   12  C   UNL     1      -6.740  16.116  67.984  1.00  0.00    -0.131 C  
HETATM   13  O   UNL     1      -6.394  15.955  69.353  1.00  0.00    -0.140 OA 
HETATM   14  C   UNL     1      -6.884  17.583  67.639  1.00  0.00    -0.175 C  
HETATM   15  H   UNL     1      -5.553  16.348  69.557  1.00  0.00     0.000 HD 
HETATM   16  C   UNL     1      -7.796  17.514  66.454  1.00  0.00    -0.294 C  
HETATM   17  O   UNL     1      -7.871  18.419  65.631  1.00  0.00    -0.505 OA 
HETATM   18  C   UNL     1      -8.608  16.228  66.393  1.00  0.00    -0.361 C  
BRANCH  18  19
HETATM   19  C   UNL     1     -10.125  16.486  66.461  1.00  0.00    -0.307 C  
BRANCH  19  20
HETATM   20  C   UNL     1     -10.640  16.825  67.866  1.00  0.00    -0.350 C  
BRANCH  20  21
HETATM   21  C   UNL     1     -11.631  15.779  68.384  1.00  0.00    -0.343 C  
BRANCH  21  22
HETATM   22  C   UNL     1     -11.712  15.809  69.913  1.00  0.00    -0.365 C  
BRANCH  22  23
HETATM   23  C   UNL     1     -12.044  14.430  70.482  1.00  0.00    -0.404 C  
BRANCH  23  24
HETATM   24  C   UNL     1     -12.059  13.357  69.391  1.00  0.00    -0.321 C  
HETATM   25  C   UNL     1     -12.374  11.991  69.958  1.00  0.00    -0.108 C  
HETATM   26  O   UNL     1     -12.594  11.744  71.132  1.00  0.00    -0.378 OA 
HETATM   27  O   UNL     1     -12.384  11.034  69.003  1.00  0.00    -0.481 OA 
ENDBRANCH  23  24
ENDBRANCH  22  23
ENDBRANCH  21  22
ENDBRANCH  20  21
ENDBRANCH  19  20
ENDBRANCH  18  19
ENDBRANCH  10  11
ENDBRANCH   6   9
ENDBRANCH   5   6
ENDBRANCH   4   5
ENDBRANCH   3   4
ENDBRANCH   2   3
TORSDOF 12
ENDMDL
MODEL      138
REMARK 921   NORMALIZED FREE ENERGY PREDICTED BY IDOCK:   -4.63 KCAL/MOL
REMARK 922        TOTAL FREE ENERGY PREDICTED BY IDOCK:   -9.82 KCAL/MOL
REMARK 923 INTER-LIGAND FREE ENERGY PREDICTED BY IDOCK:   -8.02 KCAL/MOL
REMARK 924 INTRA-LIGAND FREE ENERGY PREDICTED BY IDOCK:   -1.80 KCAL/MOL
REMARK 927      BINDING AFFINITY PREDICTED BY RF-SCORE:    0.00 PKD
ROOT
HETATM    1  C   UNL     1      -9.680  10.409  63.459  1.00  0.00    -0.333 C  
HETATM    2  C   UNL     1     -10.110  11.508  64.414  1.00  0.00    -0.328 C  
ENDROOT
BRANCH   2   3
HETATM    3  C   UNL     1     -10.017  11.067  65.876  1.00  0.00    -0.289 C  
BRANCH   3   4
HETATM    4  C   UNL     1      -9.859   9.550  65.957  1.00  0.00    -0.353 C  
BRANCH   4   5
HETATM    5  C   UNL     1     -10.754   8.922  67.027  1.00  0.00    -0.180 C  
BRANCH   5   6
HETATM    6  C   UNL     1     -10.449   7.434  67.274  1.00  0.00    -0.315 C  
HETATM    7  O   UNL     1     -11.498   6.682  66.674  1.00  0.00    -0.709 OA 
HETATM    8  H   UNL     1     -11.309   5.763  66.826  1.00  0.00     0.000 HD 
BRANCH   6   9
HETATM    9  C   UNL     1     -10.314   7.096  68.743  1.00  0.00    -0.200 C  
HETATM   10  C   UNL     1     -11.203   6.444  69.510  1.00  0.00    -0.477 C  
BRANCH  10  11
HETATM   11  C   UNL     1     -11.073   6.278  71.010  1.00  0.00    -0.357 C  
HETATM   12  C   UNL     1      -9.856   5.388  71.338  1.00  0.00    -0.167 C  
HETATM   13  O   UNL     1     -10.144   4.006  71.172  1.00  0.00    -0.158 OA 
HETATM   14  C   UNL     1      -9.509   5.693  72.779  1.00  0.00    -0.157 C  
HETATM   15  H   UNL     1      -9.394   3.459  71.374  1.00  0.00     0.000 HD 
HETATM   16  C   UNL     1      -9.848   7.148  72.857  1.00  0.00    -0.185 C  
HETATM   17  O   UNL     1      -9.374   7.886  73.713  1.00  0.00    -0.280 OA 
HETATM   18  C   UNL     1     -10.834   7.595  71.788  1.00  0.00    -0.266 C  
BRANCH  18  19
HETATM   19  C   UNL     1     -12.145   8.140  72.385  1.00  0.00    -0.406 C  
BRANCH  19  20
HETATM   20  C   UNL     1     -12.724   9.344  71.630  1.00  0.00    -0.459 C  
BRANCH  20  21
HETATM   21  C   UNL     1     -11.680  10.020  70.738  1.00  0.00    -0.437 C  
BRANCH  21  22
HETATM   22  C   UNL     1     -12.350  10.801  69.603  1.00  0.00    -0.262 C  
BRANCH  22  23
HETATM   23  C   UNL     1     -11.522  12.022  69.202  1.00  0.00    -0.357 C  
BRANCH  23  24
HETATM   24  C   UNL     1     -11.968  13.279  69.951  1.00  0.00    -0.400 C  
HETATM   25  C   UNL     1     -12.020  14.482  69.037  1.00  0.00    -0.299 C  
HETATM   26  O   UNL     1     -11.748  14.482  67.849  1.00  0.00    -0.329 OA 
HETATM   27  O   UNL     1     -12.407  15.601  69.691  1.00  0.00    -0.314 OA 
ENDBRANCH  23  24
ENDBRANCH  22  23
ENDBRANCH  21  22
ENDBRANCH  20  21
ENDBRANCH  19  20
ENDBRANCH  18  19
ENDBRANCH  10  11
ENDBRANCH   6   9
ENDBRANCH   5   6
ENDBRANCH   4   5
ENDBRANCH   3   4
ENDBRANCH   2   3
TORSDOF 12
ENDMDL
MODEL      139
REMARK 921   NORMALIZED FREE ENERGY PREDICTED BY IDOCK:   -4.63 KCAL/MOL
REMARK 922        TOTAL FREE ENERGY PREDICTED BY IDOCK:   -9.82 KCAL/MOL
REMARK 923 INTER-LIGAND FREE ENERGY PREDICTED BY IDOCK:   -8.08 KCAL/MOL
REMARK 924 INTRA-LIGAND FREE ENERGY PREDICTED BY IDOCK:   -1.74 KCAL/MOL
REMARK 927      BINDING AFFINITY PREDICTED BY RF-SCORE:    0.00 PKD
ROOT
HETATM    1  C   UNL     1     -12.948  12.150  63.986  1.00  0.00    -0.293 C  
HETATM    2  C   UNL     1     -11.606  11.817  63.359  1.00  0.00    -0.419 C  
ENDROOT
BRANCH   2   3
HETATM    3  C   UNL     1     -10.444  12.478  64.104  1.00  0.00    -0.429 C  
BRANCH   3   4
HETATM    4  C   UNL     1      -9.863  11.511  65.133  1.00  0.00    -0.294 C  
BRANCH   4   5
HETATM    5  C   UNL     1      -9.153  10.320  64.487  1.00  0.00    -0.270 C  
BRANCH   5   6
HETATM    6  C   UNL     1      -8.924   9.151  65.460  1.00  0.00    -0.205 C  
HETATM    7  O   UNL     1      -8.812   7.965  64.679  1.00  0.00    -0.371 OA 
HETATM    8  H   UNL     1      -8.671   7.243  65.280  1.00  0.00     0.000 HD 
BRANCH   6   9
HETATM    9  C   UNL     1     -10.027   9.016  66.488  1.00  0.00    -0.355 C  
HETATM   10  C   UNL     1      -9.900   9.055  67.824  1.00  0.00    -0.209 C  
BRANCH  10  11
HETATM   11  C   UNL     1     -11.022   8.756  68.795  1.00  0.00     0.084 C  
HETATM   12  C   UNL     1     -10.795   7.379  69.455  1.00  0.00    -0.171 C  
HETATM   13  O   UNL     1     -11.192   6.309  68.608  1.00  0.00    -0.435 OA 
HETATM   14  C   UNL     1     -11.625   7.395  70.721  1.00  0.00    -0.317 C  
HETATM   15  H   UNL     1     -11.052   5.462  69.014  1.00  0.00     0.000 HD 
HETATM   16  C   UNL     1     -11.507   8.831  71.126  1.00  0.00    -0.286 C  
HETATM   17  O   UNL     1     -11.700   9.204  72.277  1.00  0.00    -0.304 OA 
HETATM   18  C   UNL     1     -11.143   9.754  69.973  1.00  0.00    -0.311 C  
BRANCH  18  19
HETATM   19  C   UNL     1     -12.227  10.815  69.702  1.00  0.00    -0.325 C  
BRANCH  19  20
HETATM   20  C   UNL     1     -11.778  12.255  69.984  1.00  0.00    -0.319 C  
BRANCH  20  21
HETATM   21  C   UNL     1     -10.921  12.823  68.849  1.00  0.00    -0.275 C  
BRANCH  21  22
HETATM   22  C   UNL     1     -11.451  14.185  68.390  1.00  0.00    -0.334 C  
BRANCH  22  23
HETATM   23  C   UNL     1     -10.763  14.646  67.105  1.00  0.00    -0.292 C  
BRANCH  23  24
HETATM   24  C   UNL     1     -11.776  14.960  66.003  1.00  0.00    -0.173 C  
HETATM   25  C   UNL     1     -11.256  16.014  65.052  1.00  0.00    -0.261 C  
HETATM   26  O   UNL     1     -10.170  16.562  65.126  1.00  0.00    -0.590 OA 
HETATM   27  O   UNL     1     -12.147  16.302  64.076  1.00  0.00    -0.928 OA 
ENDBRANCH  23  24
ENDBRANCH  22  23
ENDBRANCH  21  22
ENDBRANCH  20  21
ENDBRANCH  19  20
ENDBRANCH  18  19
ENDBRANCH  10  11
ENDBRANCH   6   9
ENDBRANCH   5   6
ENDBRANCH   4   5
ENDBRANCH   3   4
ENDBRANCH   2   3
TORSDOF 12
ENDMDL
MODEL      140
REMARK 921   NORMALIZED FREE ENERGY PREDICTED BY IDOCK:   -4.63 KCAL/MOL
REMARK 922        TOTAL FREE ENERGY PREDICTED BY IDOCK:   -9.82 KCAL/MOL
REMARK 923 INTER-LIGAND FREE ENERGY PREDICTED BY IDOCK:   -8.43 KCAL/MOL
REMARK 924 INTRA-LIGAND FREE ENERGY PREDICTED BY IDOCK:   -1.39 KCAL/MOL
REMARK 927      BINDING AFFINITY PREDICTED BY RF-SCORE:    0.00 PKD
ROOT
HETATM    1  C   UNL     1     -13.127  12.712  71.230  1.00  0.00    -0.233 C  
HETATM    2  C   UNL     1     -12.665  11.441  71.921  1.00  0.00    -0.266 C  
ENDROOT
BRANCH   2   3
HETATM    3  C   UNL     1     -13.280  10.190  71.291  1.00  0.00    -0.453 C  
BRANCH   3   4
HETATM    4  C   UNL     1     -12.177   9.267  70.775  1.00  0.00    -0.192 C  
BRANCH   4   5
HETATM    5  C   UNL     1     -10.999  10.036  70.173  1.00  0.00    -0.368 C  
BRANCH   5   6
HETATM    6  C   UNL     1     -10.319   9.290  69.013  1.00  0.00    -0.214 C  
HETATM    7  O   UNL     1      -8.973   9.037  69.403  1.00  0.00    -0.139 OA 
HETATM    8  H   UNL     1      -8.553   8.576  68.685  1.00  0.00     0.000 HD 
BRANCH   6   9
HETATM    9  C   UNL     1     -10.368  10.057  67.710  1.00  0.00    -0.261 C  
HETATM   10  C   UNL     1     -10.020  11.339  67.508  1.00  0.00    -0.203 C  
BRANCH  10  11
HETATM   11  C   UNL     1     -10.243  12.088  66.212  1.00  0.00    -0.251 C  
HETATM   12  C   UNL     1      -9.925  11.171  65.012  1.00  0.00    -0.273 C  
HETATM   13  O   UNL     1      -8.528  11.081  64.764  1.00  0.00    -0.370 OA 
HETATM   14  C   UNL     1     -10.639  11.790  63.830  1.00  0.00    -0.470 C  
HETATM   15  H   UNL     1      -8.333  10.517  64.025  1.00  0.00     0.000 HD 
HETATM   16  C   UNL     1     -11.866  12.339  64.488  1.00  0.00    -0.369 C  
HETATM   17  O   UNL     1     -12.892  12.583  63.862  1.00  0.00    -0.714 OA 
HETATM   18  C   UNL     1     -11.698  12.566  65.983  1.00  0.00    -0.472 C  
BRANCH  18  19
HETATM   19  C   UNL     1     -11.871  14.045  66.378  1.00  0.00    -0.437 C  
BRANCH  19  20
HETATM   20  C   UNL     1     -11.636  14.327  67.868  1.00  0.00    -0.367 C  
BRANCH  20  21
HETATM   21  C   UNL     1     -10.601  15.434  68.088  1.00  0.00    -0.263 C  
BRANCH  21  22
HETATM   22  C   UNL     1      -9.484  15.356  67.042  1.00  0.00    -0.232 C  
BRANCH  22  23
HETATM   23  C   UNL     1      -8.761  16.695  66.898  1.00  0.00    -0.241 C  
BRANCH  23  24
HETATM   24  C   UNL     1      -9.374  17.769  67.798  1.00  0.00    -0.257 C  
HETATM   25  C   UNL     1     -10.206  18.751  67.005  1.00  0.00    -0.381 C  
HETATM   26  O   UNL     1     -10.386  18.716  65.799  1.00  0.00    -0.573 OA 
HETATM   27  O   UNL     1     -10.749  19.709  67.790  1.00  0.00    -0.430 OA 
ENDBRANCH  23  24
ENDBRANCH  22  23
ENDBRANCH  21  22
ENDBRANCH  20  21
ENDBRANCH  19  20
ENDBRANCH  18  19
ENDBRANCH  10  11
ENDBRANCH   6   9
ENDBRANCH   5   6
ENDBRANCH   4   5
ENDBRANCH   3   4
ENDBRANCH   2   3
TORSDOF 12
ENDMDL
MODEL      141
REMARK 921   NORMALIZED FREE ENERGY PREDICTED BY IDOCK:   -4.62 KCAL/MOL
REMARK 922        TOTAL FREE ENERGY PREDICTED BY IDOCK:   -9.81 KCAL/MOL
REMARK 923 INTER-LIGAND FREE ENERGY PREDICTED BY IDOCK:   -8.15 KCAL/MOL
REMARK 924 INTRA-LIGAND FREE ENERGY PREDICTED BY IDOCK:   -1.66 KCAL/MOL
REMARK 927      BINDING AFFINITY PREDICTED BY RF-SCORE:    0.00 PKD
ROOT
HETATM    1  C   UNL     1      -9.596   8.916  66.104  1.00  0.00    -0.335 C  
HETATM    2  C   UNL     1      -9.102  10.344  66.258  1.00  0.00    -0.180 C  
ENDROOT
BRANCH   2   3
HETATM    3  C   UNL     1      -9.336  11.172  64.993  1.00  0.00    -0.232 C  
BRANCH   3   4
HETATM    4  C   UNL     1     -10.772  10.989  64.505  1.00  0.00    -0.335 C  
BRANCH   4   5
HETATM    5  C   UNL     1     -11.200  12.075  63.515  1.00  0.00    -0.526 C  
BRANCH   5   6
HETATM    6  C   UNL     1     -12.324  12.976  64.054  1.00  0.00    -0.363 C  
HETATM    7  O   UNL     1     -12.362  14.140  63.235  1.00  0.00    -1.140 OA 
HETATM    8  H   UNL     1     -13.057  14.697  63.569  1.00  0.00     0.000 HD 
BRANCH   6   9
HETATM    9  C   UNL     1     -12.135  13.346  65.509  1.00  0.00    -0.467 C  
HETATM   10  C   UNL     1     -11.134  14.066  66.041  1.00  0.00    -0.303 C  
BRANCH  10  11
HETATM   11  C   UNL     1     -10.924  14.265  67.527  1.00  0.00    -0.297 C  
HETATM   12  C   UNL     1     -11.225  15.730  67.910  1.00  0.00    -0.313 C  
HETATM   13  O   UNL     1     -10.141  16.596  67.603  1.00  0.00    -0.258 OA 
HETATM   14  C   UNL     1     -11.489  15.712  69.401  1.00  0.00    -0.354 C  
HETATM   15  H   UNL     1     -10.327  17.497  67.839  1.00  0.00     0.000 HD 
HETATM   16  C   UNL     1     -12.159  14.383  69.560  1.00  0.00    -0.322 C  
HETATM   17  O   UNL     1     -12.876  14.122  70.519  1.00  0.00    -0.328 OA 
HETATM   18  C   UNL     1     -11.847  13.412  68.431  1.00  0.00    -0.401 C  
BRANCH  18  19
HETATM   19  C   UNL     1     -11.129  12.142  68.927  1.00  0.00    -0.292 C  
BRANCH  19  20
HETATM   20  C   UNL     1     -12.042  11.156  69.668  1.00  0.00    -0.406 C  
BRANCH  20  21
HETATM   21  C   UNL     1     -11.383   9.786  69.847  1.00  0.00    -0.238 C  
BRANCH  21  22
HETATM   22  C   UNL     1      -9.872   9.867  69.604  1.00  0.00    -0.255 C  
BRANCH  22  23
HETATM   23  C   UNL     1      -9.089   9.204  70.737  1.00  0.00    -0.313 C  
BRANCH  23  24
HETATM   24  C   UNL     1      -7.915   8.380  70.205  1.00  0.00    -0.102 C  
HETATM   25  C   UNL     1      -6.587   9.002  70.572  1.00  0.00    -0.054 C  
HETATM   26  O   UNL     1      -6.437  10.029  71.211  1.00  0.00    -0.319 OA 
HETATM   27  O   UNL     1      -5.542   8.284  70.101  1.00  0.00    -0.023 OA 
ENDBRANCH  23  24
ENDBRANCH  22  23
ENDBRANCH  21  22
ENDBRANCH  20  21
ENDBRANCH  19  20
ENDBRANCH  18  19
ENDBRANCH  10  11
ENDBRANCH   6   9
ENDBRANCH   5   6
ENDBRANCH   4   5
ENDBRANCH   3   4
ENDBRANCH   2   3
TORSDOF 12
ENDMDL
MODEL      142
REMARK 921   NORMALIZED FREE ENERGY PREDICTED BY IDOCK:   -4.60 KCAL/MOL
REMARK 922        TOTAL FREE ENERGY PREDICTED BY IDOCK:   -9.78 KCAL/MOL
REMARK 923 INTER-LIGAND FREE ENERGY PREDICTED BY IDOCK:   -8.33 KCAL/MOL
REMARK 924 INTRA-LIGAND FREE ENERGY PREDICTED BY IDOCK:   -1.45 KCAL/MOL
REMARK 927      BINDING AFFINITY PREDICTED BY RF-SCORE:    0.00 PKD
ROOT
HETATM    1  C   UNL     1     -10.973  11.801  63.413  1.00  0.00    -0.458 C  
HETATM    2  C   UNL     1     -11.918  12.990  63.399  1.00  0.00    -0.592 C  
ENDROOT
BRANCH   2   3
HETATM    3  C   UNL     1     -12.388  13.365  64.806  1.00  0.00    -0.444 C  
BRANCH   3   4
HETATM    4  C   UNL     1     -11.910  12.322  65.814  1.00  0.00    -0.417 C  
BRANCH   4   5
HETATM    5  C   UNL     1     -11.798  12.883  67.233  1.00  0.00    -0.416 C  
BRANCH   5   6
HETATM    6  C   UNL     1     -10.490  12.487  67.938  1.00  0.00    -0.217 C  
HETATM    7  O   UNL     1      -9.622  11.947  66.947  1.00  0.00    -0.193 OA 
HETATM    8  H   UNL     1      -8.813  11.702  67.383  1.00  0.00     0.000 HD 
BRANCH   6   9
HETATM    9  C   UNL     1     -10.703  11.500  69.065  1.00  0.00    -0.233 C  
HETATM   10  C   UNL     1     -11.826  11.309  69.776  1.00  0.00    -0.437 C  
BRANCH  10  11
HETATM   11  C   UNL     1     -11.922  10.414  70.994  1.00  0.00    -0.481 C  
HETATM   12  C   UNL     1     -13.387  10.329  71.470  1.00  0.00    -0.318 C  
HETATM   13  O   UNL     1     -13.769  11.467  72.230  1.00  0.00    -0.442 OA 
HETATM   14  C   UNL     1     -13.466   9.073  72.312  1.00  0.00    -0.529 C  
HETATM   15  H   UNL     1     -14.671  11.414  72.524  1.00  0.00     0.000 HD 
HETATM   16  C   UNL     1     -12.498   8.184  71.597  1.00  0.00    -0.319 C  
HETATM   17  O   UNL     1     -12.530   6.963  71.702  1.00  0.00    -0.350 OA 
HETATM   18  C   UNL     1     -11.487   8.948  70.755  1.00  0.00    -0.319 C  
BRANCH  18  19
HETATM   19  C   UNL     1     -10.036   8.710  71.216  1.00  0.00    -0.312 C  
BRANCH  19  20
HETATM   20  C   UNL     1      -9.294   7.632  70.416  1.00  0.00    -0.160 C  
BRANCH  20  21
HETATM   21  C   UNL     1      -8.952   6.411  71.274  1.00  0.00    -0.142 C  
BRANCH  21  22
HETATM   22  C   UNL     1      -9.316   5.112  70.550  1.00  0.00    -0.210 C  
BRANCH  22  23
HETATM   23  C   UNL     1     -10.345   5.358  69.446  1.00  0.00    -0.339 C  
BRANCH  23  24
HETATM   24  C   UNL     1      -9.924   4.711  68.126  1.00  0.00    -0.127 C  
HETATM   25  C   UNL     1     -10.429   5.495  66.936  1.00  0.00    -0.287 C  
HETATM   26  O   UNL     1     -11.090   6.518  66.990  1.00  0.00    -0.399 OA 
HETATM   27  O   UNL     1     -10.067   4.929  65.762  1.00  0.00    -0.191 OA 
ENDBRANCH  23  24
ENDBRANCH  22  23
ENDBRANCH  21  22
ENDBRANCH  20  21
ENDBRANCH  19  20
ENDBRANCH  18  19
ENDBRANCH  10  11
ENDBRANCH   6   9
ENDBRANCH   5   6
ENDBRANCH   4   5
ENDBRANCH   3   4
ENDBRANCH   2   3
TORSDOF 12
ENDMDL
MODEL      143
REMARK 921   NORMALIZED FREE ENERGY PREDICTED BY IDOCK:   -4.59 KCAL/MOL
REMARK 922        TOTAL FREE ENERGY PREDICTED BY IDOCK:   -9.75 KCAL/MOL
REMARK 923 INTER-LIGAND FREE ENERGY PREDICTED BY IDOCK:   -8.41 KCAL/MOL
REMARK 924 INTRA-LIGAND FREE ENERGY PREDICTED BY IDOCK:   -1.34 KCAL/MOL
REMARK 927      BINDING AFFINITY PREDICTED BY RF-SCORE:    0.00 PKD
ROOT
HETATM    1  C   UNL     1      -8.240   7.874  74.536  1.00  0.00    -0.259 C  
HETATM    2  C   UNL     1      -8.799   6.851  73.564  1.00  0.00    -0.161 C  
ENDROOT
BRANCH   2   3
HETATM    3  C   UNL     1     -10.023   6.129  74.132  1.00  0.00    -0.276 C  
BRANCH   3   4
HETATM    4  C   UNL     1     -10.939   5.677  72.996  1.00  0.00    -0.325 C  
BRANCH   4   5
HETATM    5  C   UNL     1     -10.213   4.807  71.967  1.00  0.00    -0.261 C  
BRANCH   5   6
HETATM    6  C   UNL     1     -10.288   5.372  70.538  1.00  0.00    -0.274 C  
HETATM    7  O   UNL     1      -8.977   5.800  70.183  1.00  0.00    -0.137 OA 
HETATM    8  H   UNL     1      -9.023   6.150  69.300  1.00  0.00     0.000 HD 
BRANCH   6   9
HETATM    9  C   UNL     1     -11.280   6.507  70.404  1.00  0.00    -0.414 C  
HETATM   10  C   UNL     1     -11.021   7.823  70.463  1.00  0.00    -0.251 C  
BRANCH  10  11
HETATM   11  C   UNL     1     -12.085   8.901  70.479  1.00  0.00     0.067 C  
HETATM   12  C   UNL     1     -12.753   8.960  71.869  1.00  0.00    -0.376 C  
HETATM   13  O   UNL     1     -13.729   7.941  72.037  1.00  0.00    -0.456 OA 
HETATM   14  C   UNL     1     -13.390  10.330  71.953  1.00  0.00    -0.487 C  
HETATM   15  H   UNL     1     -14.140   7.978  72.893  1.00  0.00     0.000 HD 
HETATM   16  C   UNL     1     -12.410  11.154  71.178  1.00  0.00    -0.346 C  
HETATM   17  O   UNL     1     -12.326  12.369  71.311  1.00  0.00    -0.248 OA 
HETATM   18  C   UNL     1     -11.558  10.334  70.221  1.00  0.00    -0.396 C  
BRANCH  18  19
HETATM   19  C   UNL     1     -11.758  10.749  68.751  1.00  0.00    -0.315 C  
BRANCH  19  20
HETATM   20  C   UNL     1     -10.455  10.855  67.948  1.00  0.00    -0.227 C  
BRANCH  20  21
HETATM   21  C   UNL     1     -10.375   9.802  66.839  1.00  0.00    -0.301 C  
BRANCH  21  22
HETATM   22  C   UNL     1     -10.269  10.464  65.461  1.00  0.00    -0.316 C  
BRANCH  22  23
HETATM   23  C   UNL     1     -10.316  11.988  65.569  1.00  0.00    -0.298 C  
BRANCH  23  24
HETATM   24  C   UNL     1     -10.733  12.636  64.247  1.00  0.00    -0.409 C  
HETATM   25  C   UNL     1     -12.191  13.038  64.260  1.00  0.00    -0.396 C  
HETATM   26  O   UNL     1     -12.961  12.881  65.192  1.00  0.00    -0.758 OA 
HETATM   27  O   UNL     1     -12.572  13.607  63.094  1.00  0.00    -0.792 OA 
ENDBRANCH  23  24
ENDBRANCH  22  23
ENDBRANCH  21  22
ENDBRANCH  20  21
ENDBRANCH  19  20
ENDBRANCH  18  19
ENDBRANCH  10  11
ENDBRANCH   6   9
ENDBRANCH   5   6
ENDBRANCH   4   5
ENDBRANCH   3   4
ENDBRANCH   2   3
TORSDOF 12
ENDMDL
MODEL      144
REMARK 921   NORMALIZED FREE ENERGY PREDICTED BY IDOCK:   -4.57 KCAL/MOL
REMARK 922        TOTAL FREE ENERGY PREDICTED BY IDOCK:   -9.73 KCAL/MOL
REMARK 923 INTER-LIGAND FREE ENERGY PREDICTED BY IDOCK:   -7.29 KCAL/MOL
REMARK 924 INTRA-LIGAND FREE ENERGY PREDICTED BY IDOCK:   -2.43 KCAL/MOL
REMARK 927      BINDING AFFINITY PREDICTED BY RF-SCORE:    0.00 PKD
ROOT
HETATM    1  C   UNL     1      -6.534  15.435  69.496  1.00  0.00    -0.158 C  
HETATM    2  C   UNL     1      -7.596  14.485  68.973  1.00  0.00    -0.124 C  
ENDROOT
BRANCH   2   3
HETATM    3  C   UNL     1      -7.013  13.447  68.011  1.00  0.00    -0.127 C  
BRANCH   3   4
HETATM    4  C   UNL     1      -8.135  12.779  67.218  1.00  0.00    -0.172 C  
BRANCH   4   5
HETATM    5  C   UNL     1      -7.855  11.302  66.932  1.00  0.00    -0.156 C  
BRANCH   5   6
HETATM    6  C   UNL     1      -8.407  10.361  68.016  1.00  0.00    -0.118 C  
HETATM    7  O   UNL     1      -8.775   9.145  67.373  1.00  0.00    -0.115 OA 
HETATM    8  H   UNL     1      -9.117   8.563  68.042  1.00  0.00     0.000 HD 
BRANCH   6   9
HETATM    9  C   UNL     1      -9.582  10.951  68.765  1.00  0.00    -0.195 C  
HETATM   10  C   UNL     1     -10.884  10.832  68.458  1.00  0.00    -0.270 C  
BRANCH  10  11
HETATM   11  C   UNL     1     -11.996  11.579  69.162  1.00  0.00    -0.386 C  
HETATM   12  C   UNL     1     -12.313  10.903  70.513  1.00  0.00    -0.374 C  
HETATM   13  O   UNL     1     -13.134   9.754  70.356  1.00  0.00    -0.555 OA 
HETATM   14  C   UNL     1     -13.021  11.957  71.337  1.00  0.00    -0.385 C  
HETATM   15  H   UNL     1     -13.328   9.338  71.188  1.00  0.00     0.000 HD 
HETATM   16  C   UNL     1     -12.327  13.200  70.876  1.00  0.00    -0.307 C  
HETATM   17  O   UNL     1     -12.313  14.228  71.543  1.00  0.00    -0.341 OA 
HETATM   18  C   UNL     1     -11.666  13.051  69.513  1.00  0.00    -0.381 C  
BRANCH  18  19
HETATM   19  C   UNL     1     -12.247  14.021  68.467  1.00  0.00    -0.210 C  
BRANCH  19  20
HETATM   20  C   UNL     1     -11.510  14.006  67.121  1.00  0.00    -0.373 C  
BRANCH  20  21
HETATM   21  C   UNL     1     -12.478  14.008  65.935  1.00  0.00    -0.513 C  
BRANCH  21  22
HETATM   22  C   UNL     1     -11.782  13.523  64.659  1.00  0.00    -0.412 C  
BRANCH  22  23
HETATM   23  C   UNL     1     -11.087  12.180  64.878  1.00  0.00    -0.367 C  
BRANCH  23  24
HETATM   24  C   UNL     1     -10.417  11.674  63.599  1.00  0.00    -0.483 C  
HETATM   25  C   UNL     1      -9.776  10.320  63.804  1.00  0.00    -0.235 C  
HETATM   26  O   UNL     1      -9.777   9.686  64.845  1.00  0.00    -0.267 OA 
HETATM   27  O   UNL     1      -9.175   9.867  62.681  1.00  0.00    -0.271 OA 
ENDBRANCH  23  24
ENDBRANCH  22  23
ENDBRANCH  21  22
ENDBRANCH  20  21
ENDBRANCH  19  20
ENDBRANCH  18  19
ENDBRANCH  10  11
ENDBRANCH   6   9
ENDBRANCH   5   6
ENDBRANCH   4   5
ENDBRANCH   3   4
ENDBRANCH   2   3
TORSDOF 12
ENDMDL
MODEL      145
REMARK 921   NORMALIZED FREE ENERGY PREDICTED BY IDOCK:   -4.57 KCAL/MOL
REMARK 922        TOTAL FREE ENERGY PREDICTED BY IDOCK:   -9.72 KCAL/MOL
REMARK 923 INTER-LIGAND FREE ENERGY PREDICTED BY IDOCK:   -8.32 KCAL/MOL
REMARK 924 INTRA-LIGAND FREE ENERGY PREDICTED BY IDOCK:   -1.40 KCAL/MOL
REMARK 927      BINDING AFFINITY PREDICTED BY RF-SCORE:    0.00 PKD
ROOT
HETATM    1  C   UNL     1      -6.064  16.701  69.753  1.00  0.00    -0.221 C  
HETATM    2  C   UNL     1      -7.248  16.527  68.820  1.00  0.00    -0.197 C  
ENDROOT
BRANCH   2   3
HETATM    3  C   UNL     1      -8.008  17.838  68.607  1.00  0.00    -0.276 C  
BRANCH   3   4
HETATM    4  C   UNL     1      -8.396  17.986  67.137  1.00  0.00    -0.241 C  
BRANCH   4   5
HETATM    5  C   UNL     1      -9.901  17.827  66.906  1.00  0.00    -0.312 C  
BRANCH   5   6
HETATM    6  C   UNL     1     -10.244  17.272  65.514  1.00  0.00    -0.022 C  
HETATM    7  O   UNL     1     -11.208  18.146  64.935  1.00  0.00    -0.554 OA 
HETATM    8  H   UNL     1     -11.420  17.802  64.075  1.00  0.00     0.000 HD 
BRANCH   6   9
HETATM    9  C   UNL     1     -10.762  15.851  65.557  1.00  0.00    -0.386 C  
HETATM   10  C   UNL     1     -10.143  14.747  65.106  1.00  0.00    -0.358 C  
BRANCH  10  11
HETATM   11  C   UNL     1     -10.786  13.378  65.038  1.00  0.00    -0.337 C  
HETATM   12  C   UNL     1     -11.260  13.090  63.598  1.00  0.00    -0.285 C  
HETATM   13  O   UNL     1     -12.497  13.727  63.305  1.00  0.00    -1.065 OA 
HETATM   14  C   UNL     1     -11.401  11.585  63.511  1.00  0.00    -0.375 C  
HETATM   15  H   UNL     1     -12.789  13.549  62.419  1.00  0.00     0.000 HD 
HETATM   16  C   UNL     1     -10.283  11.139  64.401  1.00  0.00    -0.330 C  
HETATM   17  O   UNL     1      -9.791  10.019  64.323  1.00  0.00    -0.280 OA 
HETATM   18  C   UNL     1      -9.845  12.202  65.397  1.00  0.00    -0.231 C  
BRANCH  18  19
HETATM   19  C   UNL     1     -10.037  11.756  66.859  1.00  0.00    -0.231 C  
BRANCH  19  20
HETATM   20  C   UNL     1     -11.496  11.783  67.335  1.00  0.00    -0.375 C  
BRANCH  20  21
HETATM   21  C   UNL     1     -11.645  11.256  68.765  1.00  0.00    -0.383 C  
BRANCH  21  22
HETATM   22  C   UNL     1     -11.584  12.402  69.780  1.00  0.00    -0.302 C  
BRANCH  22  23
HETATM   23  C   UNL     1     -12.529  13.540  69.394  1.00  0.00    -0.003 C  
BRANCH  23  24
HETATM   24  C   UNL     1     -12.316  14.774  70.272  1.00  0.00    -0.400 C  
HETATM   25  C   UNL     1     -13.081  14.671  71.572  1.00  0.00    -0.348 C  
HETATM   26  O   UNL     1     -13.786  13.735  71.907  1.00  0.00    -0.405 OA 
HETATM   27  O   UNL     1     -12.905  15.760  72.354  1.00  0.00    -0.409 OA 
ENDBRANCH  23  24
ENDBRANCH  22  23
ENDBRANCH  21  22
ENDBRANCH  20  21
ENDBRANCH  19  20
ENDBRANCH  18  19
ENDBRANCH  10  11
ENDBRANCH   6   9
ENDBRANCH   5   6
ENDBRANCH   4   5
ENDBRANCH   3   4
ENDBRANCH   2   3
TORSDOF 12
ENDMDL
MODEL      146
REMARK 921   NORMALIZED FREE ENERGY PREDICTED BY IDOCK:   -4.57 KCAL/MOL
REMARK 922        TOTAL FREE ENERGY PREDICTED BY IDOCK:   -9.72 KCAL/MOL
REMARK 923 INTER-LIGAND FREE ENERGY PREDICTED BY IDOCK:   -8.34 KCAL/MOL
REMARK 924 INTRA-LIGAND FREE ENERGY PREDICTED BY IDOCK:   -1.38 KCAL/MOL
REMARK 927      BINDING AFFINITY PREDICTED BY RF-SCORE:    0.00 PKD
ROOT
HETATM    1  C   UNL     1     -10.548  17.245  67.742  1.00  0.00    -0.367 C  
HETATM    2  C   UNL     1     -10.231  17.325  66.259  1.00  0.00    -0.347 C  
ENDROOT
BRANCH   2   3
HETATM    3  C   UNL     1     -10.375  15.967  65.568  1.00  0.00    -0.415 C  
BRANCH   3   4
HETATM    4  C   UNL     1     -11.270  15.049  66.398  1.00  0.00    -0.310 C  
BRANCH   4   5
HETATM    5  C   UNL     1     -12.218  14.213  65.535  1.00  0.00    -0.443 C  
BRANCH   5   6
HETATM    6  C   UNL     1     -11.512  13.524  64.355  1.00  0.00    -0.394 C  
HETATM    7  O   UNL     1     -12.376  13.624  63.228  1.00  0.00    -1.001 OA 
HETATM    8  H   UNL     1     -11.940  13.198  62.499  1.00  0.00     0.000 HD 
BRANCH   6   9
HETATM    9  C   UNL     1     -11.162  12.080  64.640  1.00  0.00    -0.380 C  
HETATM   10  C   UNL     1      -9.953  11.581  64.944  1.00  0.00    -0.303 C  
BRANCH  10  11
HETATM   11  C   UNL     1      -9.646  10.103  65.061  1.00  0.00    -0.362 C  
HETATM   12  C   UNL     1      -8.750   9.657  63.886  1.00  0.00    -0.221 C  
HETATM   13  O   UNL     1      -9.496   9.445  62.695  1.00  0.00    -0.564 OA 
HETATM   14  C   UNL     1      -8.096   8.370  64.343  1.00  0.00    -0.158 C  
HETATM   15  H   UNL     1      -8.944   9.170  61.972  1.00  0.00     0.000 HD 
HETATM   16  C   UNL     1      -7.924   8.636  65.805  1.00  0.00    -0.106 C  
HETATM   17  O   UNL     1      -7.104   8.034  66.489  1.00  0.00    -0.072 OA 
HETATM   18  C   UNL     1      -8.868   9.704  66.339  1.00  0.00    -0.168 C  
BRANCH  18  19
HETATM   19  C   UNL     1      -9.815   9.163  67.426  1.00  0.00    -0.237 C  
BRANCH  19  20
HETATM   20  C   UNL     1     -10.102  10.159  68.558  1.00  0.00    -0.186 C  
BRANCH  20  21
HETATM   21  C   UNL     1     -11.601  10.291  68.842  1.00  0.00    -0.132 C  
BRANCH  21  22
HETATM   22  C   UNL     1     -11.846  10.881  70.234  1.00  0.00    -0.450 C  
BRANCH  22  23
HETATM   23  C   UNL     1     -12.365   9.821  71.205  1.00  0.00    -0.465 C  
BRANCH  23  24
HETATM   24  C   UNL     1     -11.226   8.990  71.798  1.00  0.00    -0.448 C  
HETATM   25  C   UNL     1     -11.345   7.531  71.419  1.00  0.00    -0.258 C  
HETATM   26  O   UNL     1     -12.226   7.048  70.729  1.00  0.00    -0.353 OA 
HETATM   27  O   UNL     1     -10.346   6.786  71.943  1.00  0.00    -0.197 OA 
ENDBRANCH  23  24
ENDBRANCH  22  23
ENDBRANCH  21  22
ENDBRANCH  20  21
ENDBRANCH  19  20
ENDBRANCH  18  19
ENDBRANCH  10  11
ENDBRANCH   6   9
ENDBRANCH   5   6
ENDBRANCH   4   5
ENDBRANCH   3   4
ENDBRANCH   2   3
TORSDOF 12
ENDMDL
MODEL      147
REMARK 921   NORMALIZED FREE ENERGY PREDICTED BY IDOCK:   -4.57 KCAL/MOL
REMARK 922        TOTAL FREE ENERGY PREDICTED BY IDOCK:   -9.72 KCAL/MOL
REMARK 923 INTER-LIGAND FREE ENERGY PREDICTED BY IDOCK:   -8.05 KCAL/MOL
REMARK 924 INTRA-LIGAND FREE ENERGY PREDICTED BY IDOCK:   -1.67 KCAL/MOL
REMARK 927      BINDING AFFINITY PREDICTED BY RF-SCORE:    0.00 PKD
ROOT
HETATM    1  C   UNL     1     -10.824   5.916  70.359  1.00  0.00    -0.378 C  
HETATM    2  C   UNL     1     -11.285   6.620  71.622  1.00  0.00    -0.306 C  
ENDROOT
BRANCH   2   3
HETATM    3  C   UNL     1     -12.478   7.542  71.363  1.00  0.00    -0.382 C  
BRANCH   3   4
HETATM    4  C   UNL     1     -12.124   8.978  71.746  1.00  0.00    -0.438 C  
BRANCH   4   5
HETATM    5  C   UNL     1     -12.955  10.012  70.983  1.00  0.00    -0.445 C  
BRANCH   5   6
HETATM    6  C   UNL     1     -12.192  11.321  70.716  1.00  0.00    -0.380 C  
HETATM    7  O   UNL     1     -13.012  12.390  71.179  1.00  0.00    -0.268 OA 
HETATM    8  H   UNL     1     -12.541  13.199  71.013  1.00  0.00     0.000 HD 
BRANCH   6   9
HETATM    9  C   UNL     1     -11.835  11.508  69.258  1.00  0.00    -0.414 C  
HETATM   10  C   UNL     1     -11.009  12.429  68.735  1.00  0.00    -0.287 C  
BRANCH  10  11
HETATM   11  C   UNL     1     -10.820  12.659  67.251  1.00  0.00    -0.277 C  
HETATM   12  C   UNL     1     -10.804  11.308  66.506  1.00  0.00    -0.265 C  
HETATM   13  O   UNL     1      -9.543  10.659  66.605  1.00  0.00    -0.168 OA 
HETATM   14  C   UNL     1     -11.124  11.636  65.064  1.00  0.00    -0.312 C  
HETATM   15  H   UNL     1      -9.533   9.827  66.146  1.00  0.00     0.000 HD 
HETATM   16  C   UNL     1     -12.078  12.777  65.233  1.00  0.00    -0.457 C  
HETATM   17  O   UNL     1     -12.874  13.100  64.358  1.00  0.00    -0.672 OA 
HETATM   18  C   UNL     1     -11.945  13.481  66.575  1.00  0.00    -0.460 C  
BRANCH  18  19
HETATM   19  C   UNL     1     -11.547  14.962  66.427  1.00  0.00    -0.238 C  
BRANCH  19  20
HETATM   20  C   UNL     1     -10.335  15.196  65.516  1.00  0.00    -0.399 C  
BRANCH  20  21
HETATM   21  C   UNL     1      -9.388  16.258  66.080  1.00  0.00    -0.374 C  
BRANCH  21  22
HETATM   22  C   UNL     1     -10.017  16.971  67.281  1.00  0.00    -0.275 C  
BRANCH  22  23
HETATM   23  C   UNL     1      -9.074  16.973  68.485  1.00  0.00    -0.259 C  
BRANCH  23  24
HETATM   24  C   UNL     1      -8.695  15.553  68.908  1.00  0.00    -0.206 C  
HETATM   25  C   UNL     1      -7.194  15.369  68.956  1.00  0.00    -0.153 C  
HETATM   26  O   UNL     1      -6.367  16.226  68.698  1.00  0.00    -0.118 OA 
HETATM   27  O   UNL     1      -6.848  14.115  69.324  1.00  0.00    -0.116 OA 
ENDBRANCH  23  24
ENDBRANCH  22  23
ENDBRANCH  21  22
ENDBRANCH  20  21
ENDBRANCH  19  20
ENDBRANCH  18  19
ENDBRANCH  10  11
ENDBRANCH   6   9
ENDBRANCH   5   6
ENDBRANCH   4   5
ENDBRANCH   3   4
ENDBRANCH   2   3
TORSDOF 12
ENDMDL
MODEL      148
REMARK 921   NORMALIZED FREE ENERGY PREDICTED BY IDOCK:   -4.56 KCAL/MOL
REMARK 922        TOTAL FREE ENERGY PREDICTED BY IDOCK:   -9.71 KCAL/MOL
REMARK 923 INTER-LIGAND FREE ENERGY PREDICTED BY IDOCK:   -7.77 KCAL/MOL
REMARK 924 INTRA-LIGAND FREE ENERGY PREDICTED BY IDOCK:   -1.94 KCAL/MOL
REMARK 927      BINDING AFFINITY PREDICTED BY RF-SCORE:    0.00 PKD
ROOT
HETATM    1  C   UNL     1     -13.112  12.235  72.128  1.00  0.00    -0.406 C  
HETATM    2  C   UNL     1     -12.534  11.786  70.798  1.00  0.00    -0.405 C  
ENDROOT
BRANCH   2   3
HETATM    3  C   UNL     1     -12.403  10.264  70.714  1.00  0.00    -0.445 C  
BRANCH   3   4
HETATM    4  C   UNL     1     -12.904   9.622  72.006  1.00  0.00    -0.497 C  
BRANCH   4   5
HETATM    5  C   UNL     1     -12.150   8.337  72.356  1.00  0.00    -0.430 C  
BRANCH   5   6
HETATM    6  C   UNL     1     -12.635   7.116  71.556  1.00  0.00    -0.390 C  
HETATM    7  O   UNL     1     -12.897   6.075  72.492  1.00  0.00    -0.507 OA 
HETATM    8  H   UNL     1     -13.196   5.320  71.998  1.00  0.00     0.000 HD 
BRANCH   6   9
HETATM    9  C   UNL     1     -11.639   6.663  70.511  1.00  0.00    -0.448 C  
HETATM   10  C   UNL     1     -10.383   7.105  70.340  1.00  0.00    -0.216 C  
BRANCH  10  11
HETATM   11  C   UNL     1      -9.496   6.722  69.175  1.00  0.00    -0.141 C  
HETATM   12  C   UNL     1      -8.448   5.683  69.630  1.00  0.00    -0.110 C  
HETATM   13  O   UNL     1      -7.357   6.288  70.310  1.00  0.00    -0.083 OA 
HETATM   14  C   UNL     1      -7.977   5.002  68.363  1.00  0.00    -0.086 C  
HETATM   15  H   UNL     1      -6.712   5.649  70.590  1.00  0.00     0.000 HD 
HETATM   16  C   UNL     1      -9.234   4.999  67.551  1.00  0.00    -0.120 C  
HETATM   17  O   UNL     1      -9.412   4.219  66.623  1.00  0.00    -0.158 OA 
HETATM   18  C   UNL     1     -10.237   6.057  67.989  1.00  0.00    -0.218 C  
BRANCH  18  19
HETATM   19  C   UNL     1     -10.542   7.077  66.875  1.00  0.00    -0.372 C  
BRANCH  19  20
HETATM   20  C   UNL     1      -9.375   8.022  66.555  1.00  0.00    -0.261 C  
BRANCH  20  21
HETATM   21  C   UNL     1      -9.857   9.435  66.217  1.00  0.00    -0.351 C  
BRANCH  21  22
HETATM   22  C   UNL     1     -10.572  10.072  67.412  1.00  0.00    -0.330 C  
BRANCH  22  23
HETATM   23  C   UNL     1     -10.582  11.597  67.308  1.00  0.00    -0.265 C  
BRANCH  23  24
HETATM   24  C   UNL     1     -11.818  12.106  66.565  1.00  0.00    -0.322 C  
HETATM   25  C   UNL     1     -11.819  13.614  66.452  1.00  0.00    -0.398 C  
HETATM   26  O   UNL     1     -10.956  14.357  66.887  1.00  0.00    -0.296 OA 
HETATM   27  O   UNL     1     -12.911  14.074  65.801  1.00  0.00    -0.516 OA 
ENDBRANCH  23  24
ENDBRANCH  22  23
ENDBRANCH  21  22
ENDBRANCH  20  21
ENDBRANCH  19  20
ENDBRANCH  18  19
ENDBRANCH  10  11
ENDBRANCH   6   9
ENDBRANCH   5   6
ENDBRANCH   4   5
ENDBRANCH   3   4
ENDBRANCH   2   3
TORSDOF 12
ENDMDL
MODEL      149
REMARK 921   NORMALIZED FREE ENERGY PREDICTED BY IDOCK:   -4.56 KCAL/MOL
REMARK 922        TOTAL FREE ENERGY PREDICTED BY IDOCK:   -9.71 KCAL/MOL
REMARK 923 INTER-LIGAND FREE ENERGY PREDICTED BY IDOCK:   -7.21 KCAL/MOL
REMARK 924 INTRA-LIGAND FREE ENERGY PREDICTED BY IDOCK:   -2.50 KCAL/MOL
REMARK 927      BINDING AFFINITY PREDICTED BY RF-SCORE:    0.00 PKD
ROOT
HETATM    1  C   UNL     1     -11.936  12.874  63.513  1.00  0.00    -0.629 C  
HETATM    2  C   UNL     1     -11.342  11.645  64.178  1.00  0.00    -0.397 C  
ENDROOT
BRANCH   2   3
HETATM    3  C   UNL     1     -10.054  11.186  63.490  1.00  0.00    -0.437 C  
BRANCH   3   4
HETATM    4  C   UNL     1      -9.350  10.134  64.344  1.00  0.00    -0.348 C  
BRANCH   4   5
HETATM    5  C   UNL     1     -10.010   9.947  65.712  1.00  0.00    -0.347 C  
BRANCH   5   6
HETATM    6  C   UNL     1      -9.012  10.025  66.880  1.00  0.00    -0.135 C  
HETATM    7  O   UNL     1      -9.354   8.990  67.797  1.00  0.00    -0.139 OA 
HETATM    8  H   UNL     1      -8.737   9.038  68.519  1.00  0.00     0.000 HD 
BRANCH   6   9
HETATM    9  C   UNL     1      -9.010  11.374  67.565  1.00  0.00    -0.150 C  
HETATM   10  C   UNL     1      -8.218  12.423  67.291  1.00  0.00    -0.184 C  
BRANCH  10  11
HETATM   11  C   UNL     1      -8.162  13.688  68.120  1.00  0.00    -0.158 C  
HETATM   12  C   UNL     1      -6.823  13.758  68.885  1.00  0.00    -0.110 C  
HETATM   13  O   UNL     1      -6.832  12.948  70.053  1.00  0.00    -0.338 OA 
HETATM   14  C   UNL     1      -6.640  15.216  69.247  1.00  0.00    -0.139 C  
HETATM   15  H   UNL     1      -6.008  12.991  70.523  1.00  0.00     0.000 HD 
HETATM   16  C   UNL     1      -7.254  15.889  68.060  1.00  0.00    -0.132 C  
HETATM   17  O   UNL     1      -6.988  17.045  67.752  1.00  0.00    -0.140 OA 
HETATM   18  C   UNL     1      -8.231  15.001  67.303  1.00  0.00    -0.236 C  
BRANCH  18  19
HETATM   19  C   UNL     1      -9.659  15.578  67.286  1.00  0.00    -0.216 C  
BRANCH  19  20
HETATM   20  C   UNL     1     -10.632  14.813  66.378  1.00  0.00    -0.300 C  
BRANCH  20  21
HETATM   21  C   UNL     1     -11.953  14.500  67.085  1.00  0.00    -0.373 C  
BRANCH  21  22
HETATM   22  C   UNL     1     -11.906  13.121  67.751  1.00  0.00    -0.392 C  
BRANCH  22  23
HETATM   23  C   UNL     1     -11.760  13.238  69.268  1.00  0.00    -0.380 C  
BRANCH  23  24
HETATM   24  C   UNL     1     -12.312  14.566  69.788  1.00  0.00    -0.317 C  
HETATM   25  C   UNL     1     -13.112  14.378  71.057  1.00  0.00    -0.353 C  
HETATM   26  O   UNL     1     -13.307  13.314  71.621  1.00  0.00    -0.371 OA 
HETATM   27  O   UNL     1     -13.610  15.545  71.523  1.00  0.00    -0.488 OA 
ENDBRANCH  23  24
ENDBRANCH  22  23
ENDBRANCH  21  22
ENDBRANCH  20  21
ENDBRANCH  19  20
ENDBRANCH  18  19
ENDBRANCH  10  11
ENDBRANCH   6   9
ENDBRANCH   5   6
ENDBRANCH   4   5
ENDBRANCH   3   4
ENDBRANCH   2   3
TORSDOF 12
ENDMDL
MODEL      150
REMARK 921   NORMALIZED FREE ENERGY PREDICTED BY IDOCK:   -4.55 KCAL/MOL
REMARK 922        TOTAL FREE ENERGY PREDICTED BY IDOCK:   -9.70 KCAL/MOL
REMARK 923 INTER-LIGAND FREE ENERGY PREDICTED BY IDOCK:   -7.47 KCAL/MOL
REMARK 924 INTRA-LIGAND FREE ENERGY PREDICTED BY IDOCK:   -2.22 KCAL/MOL
REMARK 927      BINDING AFFINITY PREDICTED BY RF-SCORE:    0.00 PKD
ROOT
HETATM    1  C   UNL     1      -9.085  14.849  68.151  1.00  0.00    -0.177 C  
HETATM    2  C   UNL     1     -10.474  14.528  67.629  1.00  0.00    -0.246 C  
ENDROOT
BRANCH   2   3
HETATM    3  C   UNL     1     -11.534  14.608  68.730  1.00  0.00    -0.322 C  
BRANCH   3   4
HETATM    4  C   UNL     1     -12.024  13.206  69.088  1.00  0.00    -0.329 C  
BRANCH   4   5
HETATM    5  C   UNL     1     -12.305  13.045  70.583  1.00  0.00    -0.391 C  
BRANCH   5   6
HETATM    6  C   UNL     1     -12.806  11.639  70.956  1.00  0.00    -0.245 C  
HETATM    7  O   UNL     1     -13.198  11.679  72.325  1.00  0.00    -0.581 OA 
HETATM    8  H   UNL     1     -13.507  10.810  72.555  1.00  0.00     0.000 HD 
BRANCH   6   9
HETATM    9  C   UNL     1     -11.767  10.563  70.724  1.00  0.00    -0.454 C  
HETATM   10  C   UNL     1     -11.878   9.254  71.003  1.00  0.00    -0.376 C  
BRANCH  10  11
HETATM   11  C   UNL     1     -10.741   8.260  70.891  1.00  0.00    -0.250 C  
HETATM   12  C   UNL     1     -10.549   7.527  72.235  1.00  0.00    -0.236 C  
HETATM   13  O   UNL     1      -9.821   8.310  73.172  1.00  0.00    -0.253 OA 
HETATM   14  C   UNL     1      -9.794   6.258  71.900  1.00  0.00    -0.172 C  
HETATM   15  H   UNL     1      -9.702   7.859  73.999  1.00  0.00     0.000 HD 
HETATM   16  C   UNL     1     -10.358   5.935  70.552  1.00  0.00    -0.235 C  
HETATM   17  O   UNL     1     -10.317   4.804  70.079  1.00  0.00    -0.249 OA 
HETATM   18  C   UNL     1     -10.963   7.139  69.846  1.00  0.00    -0.278 C  
BRANCH  18  19
HETATM   19  C   UNL     1     -10.252   7.462  68.518  1.00  0.00    -0.201 C  
BRANCH  19  20
HETATM   20  C   UNL     1      -9.123   8.494  68.647  1.00  0.00    -0.139 C  
BRANCH  20  21
HETATM   21  C   UNL     1      -8.993   9.364  67.394  1.00  0.00    -0.134 C  
BRANCH  21  22
HETATM   22  C   UNL     1      -9.639  10.736  67.610  1.00  0.00    -0.174 C  
BRANCH  22  23
HETATM   23  C   UNL     1     -10.846  10.935  66.693  1.00  0.00    -0.258 C  
BRANCH  23  24
HETATM   24  C   UNL     1     -10.429  11.436  65.310  1.00  0.00    -0.340 C  
HETATM   25  C   UNL     1     -11.537  12.220  64.643  1.00  0.00    -0.344 C  
HETATM   26  O   UNL     1     -12.636  12.442  65.124  1.00  0.00    -0.622 OA 
HETATM   27  O   UNL     1     -11.181  12.662  63.416  1.00  0.00    -0.467 OA 
ENDBRANCH  23  24
ENDBRANCH  22  23
ENDBRANCH  21  22
ENDBRANCH  20  21
ENDBRANCH  19  20
ENDBRANCH  18  19
ENDBRANCH  10  11
ENDBRANCH   6   9
ENDBRANCH   5   6
ENDBRANCH   4   5
ENDBRANCH   3   4
ENDBRANCH   2   3
TORSDOF 12
ENDMDL
MODEL      151
REMARK 921   NORMALIZED FREE ENERGY PREDICTED BY IDOCK:   -4.55 KCAL/MOL
REMARK 922        TOTAL FREE ENERGY PREDICTED BY IDOCK:   -9.70 KCAL/MOL
REMARK 923 INTER-LIGAND FREE ENERGY PREDICTED BY IDOCK:   -8.24 KCAL/MOL
REMARK 924 INTRA-LIGAND FREE ENERGY PREDICTED BY IDOCK:   -1.45 KCAL/MOL
REMARK 927      BINDING AFFINITY PREDICTED BY RF-SCORE:    0.00 PKD
ROOT
HETATM    1  C   UNL     1     -13.022  11.542  71.749  1.00  0.00    -0.500 C  
HETATM    2  C   UNL     1     -12.553  10.115  71.528  1.00  0.00    -0.537 C  
ENDROOT
BRANCH   2   3
HETATM    3  C   UNL     1     -13.663   9.098  71.796  1.00  0.00    -0.465 C  
BRANCH   3   4
HETATM    4  C   UNL     1     -13.134   7.679  71.598  1.00  0.00    -0.392 C  
BRANCH   4   5
HETATM    5  C   UNL     1     -11.655   7.652  71.205  1.00  0.00    -0.302 C  
BRANCH   5   6
HETATM    6  C   UNL     1     -11.356   6.690  70.043  1.00  0.00    -0.382 C  
HETATM    7  O   UNL     1     -10.641   5.584  70.583  1.00  0.00    -0.262 OA 
HETATM    8  H   UNL     1     -10.456   4.989  69.864  1.00  0.00     0.000 HD 
BRANCH   6   9
HETATM    9  C   UNL     1     -10.574   7.344  68.924  1.00  0.00    -0.191 C  
HETATM   10  C   UNL     1      -9.987   8.552  68.941  1.00  0.00    -0.197 C  
BRANCH  10  11
HETATM   11  C   UNL     1      -9.356   9.209  67.732  1.00  0.00    -0.152 C  
HETATM   12  C   UNL     1      -8.982   8.137  66.685  1.00  0.00    -0.152 C  
HETATM   13  O   UNL     1      -7.766   7.476  67.008  1.00  0.00    -0.106 OA 
HETATM   14  C   UNL     1      -8.854   8.881  65.373  1.00  0.00    -0.234 C  
HETATM   15  H   UNL     1      -7.537   6.817  66.364  1.00  0.00     0.000 HD 
HETATM   16  C   UNL     1      -9.910   9.930  65.531  1.00  0.00    -0.311 C  
HETATM   17  O   UNL     1     -10.410  10.506  64.571  1.00  0.00    -0.348 OA 
HETATM   18  C   UNL     1     -10.275  10.204  66.982  1.00  0.00    -0.290 C  
BRANCH  18  19
HETATM   19  C   UNL     1      -9.984  11.659  67.399  1.00  0.00    -0.200 C  
BRANCH  19  20
HETATM   20  C   UNL     1     -11.241  12.491  67.686  1.00  0.00    -0.332 C  
BRANCH  20  21
HETATM   21  C   UNL     1     -10.900  13.870  68.257  1.00  0.00    -0.263 C  
BRANCH  21  22
HETATM   22  C   UNL     1     -11.509  14.052  69.650  1.00  0.00    -0.317 C  
BRANCH  22  23
HETATM   23  C   UNL     1     -12.153  15.431  69.802  1.00  0.00    -0.373 C  
BRANCH  23  24
HETATM   24  C   UNL     1     -13.270  15.421  70.846  1.00  0.00    -0.512 C  
HETATM   25  C   UNL     1     -12.759  15.821  72.212  1.00  0.00    -0.446 C  
HETATM   26  O   UNL     1     -11.607  16.121  72.478  1.00  0.00    -0.430 OA 
HETATM   27  O   UNL     1     -13.738  15.811  73.145  1.00  0.00    -0.549 OA 
ENDBRANCH  23  24
ENDBRANCH  22  23
ENDBRANCH  21  22
ENDBRANCH  20  21
ENDBRANCH  19  20
ENDBRANCH  18  19
ENDBRANCH  10  11
ENDBRANCH   6   9
ENDBRANCH   5   6
ENDBRANCH   4   5
ENDBRANCH   3   4
ENDBRANCH   2   3
TORSDOF 12
ENDMDL
MODEL      152
REMARK 921   NORMALIZED FREE ENERGY PREDICTED BY IDOCK:   -4.53 KCAL/MOL
REMARK 922        TOTAL FREE ENERGY PREDICTED BY IDOCK:   -9.66 KCAL/MOL
REMARK 923 INTER-LIGAND FREE ENERGY PREDICTED BY IDOCK:   -8.02 KCAL/MOL
REMARK 924 INTRA-LIGAND FREE ENERGY PREDICTED BY IDOCK:   -1.64 KCAL/MOL
REMARK 927      BINDING AFFINITY PREDICTED BY RF-SCORE:    0.00 PKD
ROOT
HETATM    1  C   UNL     1     -10.045   4.597  73.843  1.00  0.00    -0.216 C  
HETATM    2  C   UNL     1     -10.848   5.603  73.039  1.00  0.00    -0.308 C  
ENDROOT
BRANCH   2   3
HETATM    3  C   UNL     1     -10.656   7.032  73.552  1.00  0.00    -0.405 C  
BRANCH   3   4
HETATM    4  C   UNL     1     -10.687   8.017  72.385  1.00  0.00    -0.386 C  
BRANCH   4   5
HETATM    5  C   UNL     1     -12.093   8.201  71.808  1.00  0.00    -0.357 C  
BRANCH   5   6
HETATM    6  C   UNL     1     -12.308   9.585  71.173  1.00  0.00    -0.326 C  
HETATM    7  O   UNL     1     -13.619   9.596  70.615  1.00  0.00    -0.599 OA 
HETATM    8  H   UNL     1     -13.752  10.451  70.222  1.00  0.00     0.000 HD 
BRANCH   6   9
HETATM    9  C   UNL     1     -11.272   9.919  70.121  1.00  0.00    -0.347 C  
HETATM   10  C   UNL     1     -11.134  11.078  69.457  1.00  0.00    -0.322 C  
BRANCH  10  11
HETATM   11  C   UNL     1     -10.174  11.290  68.305  1.00  0.00    -0.198 C  
HETATM   12  C   UNL     1      -8.828  10.599  68.608  1.00  0.00    -0.151 C  
HETATM   13  O   UNL     1      -8.013  11.374  69.478  1.00  0.00    -0.355 OA 
HETATM   14  C   UNL     1      -8.154  10.420  67.264  1.00  0.00    -0.114 C  
HETATM   15  H   UNL     1      -7.185  10.949  69.664  1.00  0.00     0.000 HD 
HETATM   16  C   UNL     1      -9.334  10.167  66.380  1.00  0.00    -0.169 C  
HETATM   17  O   UNL     1      -9.233   9.599  65.299  1.00  0.00    -0.204 OA 
HETATM   18  C   UNL     1     -10.641  10.692  66.955  1.00  0.00    -0.317 C  
BRANCH  18  19
HETATM   19  C   UNL     1     -11.290  11.766  66.061  1.00  0.00    -0.335 C  
BRANCH  19  20
HETATM   20  C   UNL     1     -10.577  13.125  66.098  1.00  0.00    -0.288 C  
BRANCH  20  21
HETATM   21  C   UNL     1     -11.548  14.275  66.377  1.00  0.00    -0.381 C  
BRANCH  21  22
HETATM   22  C   UNL     1     -12.097  14.197  67.805  1.00  0.00    -0.321 C  
BRANCH  22  23
HETATM   23  C   UNL     1     -11.606  15.368  68.656  1.00  0.00    -0.373 C  
BRANCH  23  24
HETATM   24  C   UNL     1     -11.244  14.924  70.075  1.00  0.00    -0.293 C  
HETATM   25  C   UNL     1     -12.339  15.263  71.061  1.00  0.00    -0.367 C  
HETATM   26  O   UNL     1     -13.390  15.817  70.790  1.00  0.00    -0.539 OA 
HETATM   27  O   UNL     1     -12.026  14.879  72.319  1.00  0.00    -0.352 OA 
ENDBRANCH  23  24
ENDBRANCH  22  23
ENDBRANCH  21  22
ENDBRANCH  20  21
ENDBRANCH  19  20
ENDBRANCH  18  19
ENDBRANCH  10  11
ENDBRANCH   6   9
ENDBRANCH   5   6
ENDBRANCH   4   5
ENDBRANCH   3   4
ENDBRANCH   2   3
TORSDOF 12
ENDMDL
MODEL      153
REMARK 921   NORMALIZED FREE ENERGY PREDICTED BY IDOCK:   -4.53 KCAL/MOL
REMARK 922        TOTAL FREE ENERGY PREDICTED BY IDOCK:   -9.66 KCAL/MOL
REMARK 923 INTER-LIGAND FREE ENERGY PREDICTED BY IDOCK:   -7.94 KCAL/MOL
REMARK 924 INTRA-LIGAND FREE ENERGY PREDICTED BY IDOCK:   -1.72 KCAL/MOL
REMARK 927      BINDING AFFINITY PREDICTED BY RF-SCORE:    0.00 PKD
ROOT
HETATM    1  C   UNL     1      -7.268  18.587  67.598  1.00  0.00    -0.221 C  
HETATM    2  C   UNL     1      -7.587  20.006  67.163  1.00  0.00    -0.322 C  
ENDROOT
BRANCH   2   3
HETATM    3  C   UNL     1      -9.072  20.336  67.327  1.00  0.00    -0.504 C  
BRANCH   3   4
HETATM    4  C   UNL     1      -9.868  19.771  66.152  1.00  0.00    -0.544 C  
BRANCH   4   5
HETATM    5  C   UNL     1     -10.703  18.548  66.541  1.00  0.00    -0.263 C  
BRANCH   5   6
HETATM    6  C   UNL     1     -10.363  17.296  65.715  1.00  0.00    -0.234 C  
HETATM    7  O   UNL     1     -11.157  17.340  64.534  1.00  0.00    -1.082 OA 
HETATM    8  H   UNL     1     -10.946  16.566  64.023  1.00  0.00     0.000 HD 
BRANCH   6   9
HETATM    9  C   UNL     1     -10.595  16.008  66.474  1.00  0.00    -0.284 C  
HETATM   10  C   UNL     1     -10.269  15.747  67.750  1.00  0.00    -0.251 C  
BRANCH  10  11
HETATM   11  C   UNL     1     -10.388  14.384  68.398  1.00  0.00    -0.244 C  
HETATM   12  C   UNL     1     -11.430  14.432  69.536  1.00  0.00    -0.288 C  
HETATM   13  O   UNL     1     -10.895  14.993  70.727  1.00  0.00    -0.507 OA 
HETATM   14  C   UNL     1     -11.847  12.994  69.763  1.00  0.00    -0.381 C  
HETATM   15  H   UNL     1     -11.536  15.022  71.428  1.00  0.00     0.000 HD 
HETATM   16  C   UNL     1     -11.776  12.450  68.371  1.00  0.00    -0.336 C  
HETATM   17  O   UNL     1     -12.388  11.444  68.030  1.00  0.00    -0.444 OA 
HETATM   18  C   UNL     1     -10.872  13.258  67.453  1.00  0.00    -0.279 C  
BRANCH  18  19
HETATM   19  C   UNL     1      -9.689  12.432  66.913  1.00  0.00    -0.217 C  
BRANCH  19  20
HETATM   20  C   UNL     1      -8.718  11.947  67.998  1.00  0.00    -0.173 C  
BRANCH  20  21
HETATM   21  C   UNL     1      -8.410  10.453  67.869  1.00  0.00    -0.114 C  
BRANCH  21  22
HETATM   22  C   UNL     1      -9.517   9.608  68.508  1.00  0.00    -0.145 C  
BRANCH  22  23
HETATM   23  C   UNL     1      -9.680   9.933  69.993  1.00  0.00    -0.274 C  
BRANCH  23  24
HETATM   24  C   UNL     1      -8.949   8.921  70.877  1.00  0.00    -0.273 C  
HETATM   25  C   UNL     1      -9.916   8.009  71.596  1.00  0.00    -0.184 C  
HETATM   26  O   UNL     1     -11.131   8.048  71.503  1.00  0.00    -0.239 OA 
HETATM   27  O   UNL     1      -9.279   7.114  72.385  1.00  0.00    -0.134 OA 
ENDBRANCH  23  24
ENDBRANCH  22  23
ENDBRANCH  21  22
ENDBRANCH  20  21
ENDBRANCH  19  20
ENDBRANCH  18  19
ENDBRANCH  10  11
ENDBRANCH   6   9
ENDBRANCH   5   6
ENDBRANCH   4   5
ENDBRANCH   3   4
ENDBRANCH   2   3
TORSDOF 12
ENDMDL
MODEL      154
REMARK 921   NORMALIZED FREE ENERGY PREDICTED BY IDOCK:   -4.53 KCAL/MOL
REMARK 922        TOTAL FREE ENERGY PREDICTED BY IDOCK:   -9.65 KCAL/MOL
REMARK 923 INTER-LIGAND FREE ENERGY PREDICTED BY IDOCK:   -8.35 KCAL/MOL
REMARK 924 INTRA-LIGAND FREE ENERGY PREDICTED BY IDOCK:   -1.30 KCAL/MOL
REMARK 927      BINDING AFFINITY PREDICTED BY RF-SCORE:    0.00 PKD
ROOT
HETATM    1  C   UNL     1      -9.516  17.490  68.197  1.00  0.00    -0.291 C  
HETATM    2  C   UNL     1      -9.000  16.828  66.932  1.00  0.00    -0.244 C  
ENDROOT
BRANCH   2   3
HETATM    3  C   UNL     1     -10.121  16.560  65.926  1.00  0.00    -0.359 C  
BRANCH   3   4
HETATM    4  C   UNL     1     -10.684  15.155  66.131  1.00  0.00    -0.327 C  
BRANCH   4   5
HETATM    5  C   UNL     1     -10.466  14.251  64.915  1.00  0.00    -0.454 C  
BRANCH   5   6
HETATM    6  C   UNL     1     -11.659  13.323  64.631  1.00  0.00    -0.350 C  
HETATM    7  O   UNL     1     -12.836  14.123  64.662  1.00  0.00    -0.663 OA 
HETATM    8  H   UNL     1     -13.573  13.549  64.486  1.00  0.00     0.000 HD 
BRANCH   6   9
HETATM    9  C   UNL     1     -11.761  12.176  65.613  1.00  0.00    -0.385 C  
HETATM   10  C   UNL     1     -10.797  11.717  66.428  1.00  0.00    -0.333 C  
BRANCH  10  11
HETATM   11  C   UNL     1     -10.919  10.466  67.271  1.00  0.00    -0.306 C  
HETATM   12  C   UNL     1      -9.803   9.467  66.898  1.00  0.00    -0.204 C  
HETATM   13  O   UNL     1     -10.108   8.744  65.713  1.00  0.00    -0.420 OA 
HETATM   14  C   UNL     1      -9.685   8.530  68.081  1.00  0.00    -0.175 C  
HETATM   15  H   UNL     1      -9.420   8.129  65.483  1.00  0.00     0.000 HD 
HETATM   16  C   UNL     1      -9.983   9.459  69.216  1.00  0.00    -0.181 C  
HETATM   17  O   UNL     1      -9.629   9.222  70.365  1.00  0.00    -0.207 OA 
HETATM   18  C   UNL     1     -10.765  10.694  68.795  1.00  0.00    -0.249 C  
BRANCH  18  19
HETATM   19  C   UNL     1     -12.136  10.789  69.490  1.00  0.00    -0.344 C  
BRANCH  19  20
HETATM   20  C   UNL     1     -12.174  11.772  70.668  1.00  0.00    -0.443 C  
BRANCH  20  21
HETATM   21  C   UNL     1     -13.076  11.276  71.801  1.00  0.00    -0.527 C  
BRANCH  21  22
HETATM   22  C   UNL     1     -13.680   9.910  71.464  1.00  0.00    -0.223 C  
BRANCH  22  23
HETATM   23  C   UNL     1     -13.317   8.864  72.519  1.00  0.00    -0.451 C  
BRANCH  23  24
HETATM   24  C   UNL     1     -12.857   7.553  71.880  1.00  0.00    -0.306 C  
HETATM   25  C   UNL     1     -11.512   7.115  72.413  1.00  0.00    -0.264 C  
HETATM   26  O   UNL     1     -10.853   7.711  73.249  1.00  0.00    -0.394 OA 
HETATM   27  O   UNL     1     -11.092   5.959  71.850  1.00  0.00    -0.257 OA 
ENDBRANCH  23  24
ENDBRANCH  22  23
ENDBRANCH  21  22
ENDBRANCH  20  21
ENDBRANCH  19  20
ENDBRANCH  18  19
ENDBRANCH  10  11
ENDBRANCH   6   9
ENDBRANCH   5   6
ENDBRANCH   4   5
ENDBRANCH   3   4
ENDBRANCH   2   3
TORSDOF 12
ENDMDL
MODEL      155
REMARK 921   NORMALIZED FREE ENERGY PREDICTED BY IDOCK:   -4.53 KCAL/MOL
REMARK 922        TOTAL FREE ENERGY PREDICTED BY IDOCK:   -9.65 KCAL/MOL
REMARK 923 INTER-LIGAND FREE ENERGY PREDICTED BY IDOCK:   -7.26 KCAL/MOL
REMARK 924 INTRA-LIGAND FREE ENERGY PREDICTED BY IDOCK:   -2.39 KCAL/MOL
REMARK 927      BINDING AFFINITY PREDICTED BY RF-SCORE:    0.00 PKD
ROOT
HETATM    1  C   UNL     1     -10.330  19.775  68.013  1.00  0.00    -0.567 C  
HETATM    2  C   UNL     1     -10.057  18.283  67.958  1.00  0.00    -0.381 C  
ENDROOT
BRANCH   2   3
HETATM    3  C   UNL     1      -8.568  17.978  67.780  1.00  0.00    -0.244 C  
BRANCH   3   4
HETATM    4  C   UNL     1      -8.380  16.875  66.740  1.00  0.00    -0.269 C  
BRANCH   4   5
HETATM    5  C   UNL     1      -7.016  16.189  66.852  1.00  0.00    -0.187 C  
BRANCH   5   6
HETATM    6  C   UNL     1      -7.054  14.901  67.692  1.00  0.00    -0.186 C  
HETATM    7  O   UNL     1      -5.831  14.209  67.463  1.00  0.00    -0.343 OA 
HETATM    8  H   UNL     1      -5.855  13.414  67.982  1.00  0.00     0.000 HD 
BRANCH   6   9
HETATM    9  C   UNL     1      -8.241  14.020  67.367  1.00  0.00    -0.203 C  
HETATM   10  C   UNL     1      -8.299  12.680  67.431  1.00  0.00    -0.184 C  
BRANCH  10  11
HETATM   11  C   UNL     1      -9.469  11.854  66.940  1.00  0.00    -0.205 C  
HETATM   12  C   UNL     1      -9.326  11.585  65.427  1.00  0.00    -0.159 C  
HETATM   13  O   UNL     1      -9.736  12.699  64.645  1.00  0.00    -0.507 OA 
HETATM   14  C   UNL     1     -10.201  10.383  65.145  1.00  0.00    -0.326 C  
HETATM   15  H   UNL     1      -9.647  12.533  63.714  1.00  0.00     0.000 HD 
HETATM   16  C   UNL     1     -10.038   9.603  66.411  1.00  0.00    -0.247 C  
HETATM   17  O   UNL     1     -10.258   8.398  66.472  1.00  0.00    -0.293 OA 
HETATM   18  C   UNL     1      -9.591  10.454  67.590  1.00  0.00    -0.168 C  
BRANCH  18  19
HETATM   19  C   UNL     1     -10.618  10.457  68.739  1.00  0.00    -0.232 C  
BRANCH  19  20
HETATM   20  C   UNL     1     -11.718  11.517  68.592  1.00  0.00    -0.389 C  
BRANCH  20  21
HETATM   21  C   UNL     1     -12.033  12.206  69.923  1.00  0.00    -0.380 C  
BRANCH  21  22
HETATM   22  C   UNL     1     -11.559  13.663  69.911  1.00  0.00    -0.281 C  
BRANCH  22  23
HETATM   23  C   UNL     1     -12.373  14.507  68.931  1.00  0.00    -0.091 C  
BRANCH  23  24
HETATM   24  C   UNL     1     -11.484  15.154  67.868  1.00  0.00    -0.344 C  
HETATM   25  C   UNL     1     -11.767  14.597  66.491  1.00  0.00    -0.325 C  
HETATM   26  O   UNL     1     -12.595  13.741  66.229  1.00  0.00    -0.416 OA 
HETATM   27  O   UNL     1     -10.982  15.159  65.544  1.00  0.00    -0.335 OA 
ENDBRANCH  23  24
ENDBRANCH  22  23
ENDBRANCH  21  22
ENDBRANCH  20  21
ENDBRANCH  19  20
ENDBRANCH  18  19
ENDBRANCH  10  11
ENDBRANCH   6   9
ENDBRANCH   5   6
ENDBRANCH   4   5
ENDBRANCH   3   4
ENDBRANCH   2   3
TORSDOF 12
ENDMDL
MODEL      156
REMARK 921   NORMALIZED FREE ENERGY PREDICTED BY IDOCK:   -4.52 KCAL/MOL
REMARK 922        TOTAL FREE ENERGY PREDICTED BY IDOCK:   -9.64 KCAL/MOL
REMARK 923 INTER-LIGAND FREE ENERGY PREDICTED BY IDOCK:   -8.60 KCAL/MOL
REMARK 924 INTRA-LIGAND FREE ENERGY PREDICTED BY IDOCK:   -1.04 KCAL/MOL
REMARK 927      BINDING AFFINITY PREDICTED BY RF-SCORE:    0.00 PKD
ROOT
HETATM    1  C   UNL     1      -9.276   3.694  70.808  1.00  0.00    -0.201 C  
HETATM    2  C   UNL     1      -9.668   5.160  70.846  1.00  0.00    -0.252 C  
ENDROOT
BRANCH   2   3
HETATM    3  C   UNL     1     -10.382   5.596  69.565  1.00  0.00    -0.345 C  
BRANCH   3   4
HETATM    4  C   UNL     1      -9.444   5.451  68.367  1.00  0.00    -0.153 C  
BRANCH   4   5
HETATM    5  C   UNL     1      -9.345   6.734  67.538  1.00  0.00    -0.129 C  
BRANCH   5   6
HETATM    6  C   UNL     1     -10.702   7.431  67.339  1.00  0.00    -0.278 C  
HETATM    7  O   UNL     1     -11.530   6.540  66.599  1.00  0.00    -0.727 OA 
HETATM    8  H   UNL     1     -12.369   6.971  66.475  1.00  0.00     0.000 HD 
BRANCH   6   9
HETATM    9  C   UNL     1     -10.582   8.765  66.636  1.00  0.00    -0.141 C  
HETATM   10  C   UNL     1     -10.169   9.928  67.166  1.00  0.00    -0.285 C  
BRANCH  10  11
HETATM   11  C   UNL     1     -10.224  11.259  66.446  1.00  0.00    -0.273 C  
HETATM   12  C   UNL     1      -9.857  11.069  64.959  1.00  0.00    -0.269 C  
HETATM   13  O   UNL     1      -8.452  10.977  64.763  1.00  0.00    -0.370 OA 
HETATM   14  C   UNL     1     -10.418  12.280  64.246  1.00  0.00    -0.375 C  
HETATM   15  H   UNL     1      -8.227  10.860  63.847  1.00  0.00     0.000 HD 
HETATM   16  C   UNL     1     -11.662  12.532  65.039  1.00  0.00    -0.362 C  
HETATM   17  O   UNL     1     -12.608  13.169  64.588  1.00  0.00    -0.587 OA 
HETATM   18  C   UNL     1     -11.617  11.933  66.437  1.00  0.00    -0.315 C  
BRANCH  18  19
HETATM   19  C   UNL     1     -11.731  13.003  67.540  1.00  0.00    -0.421 C  
BRANCH  19  20
HETATM   20  C   UNL     1     -10.404  13.697  67.877  1.00  0.00    -0.249 C  
BRANCH  20  21
HETATM   21  C   UNL     1     -10.579  14.787  68.938  1.00  0.00    -0.250 C  
BRANCH  21  22
HETATM   22  C   UNL     1     -12.028  14.847  69.430  1.00  0.00    -0.336 C  
BRANCH  22  23
HETATM   23  C   UNL     1     -12.178  14.199  70.806  1.00  0.00    -0.435 C  
BRANCH  23  24
HETATM   24  C   UNL     1     -13.393  14.744  71.558  1.00  0.00    -0.452 C  
HETATM   25  C   UNL     1     -12.991  15.755  72.608  1.00  0.00    -0.478 C  
HETATM   26  O   UNL     1     -11.851  16.114  72.847  1.00  0.00    -0.482 OA 
HETATM   27  O   UNL     1     -14.058  16.239  73.283  1.00  0.00    -0.434 OA 
ENDBRANCH  23  24
ENDBRANCH  22  23
ENDBRANCH  21  22
ENDBRANCH  20  21
ENDBRANCH  19  20
ENDBRANCH  18  19
ENDBRANCH  10  11
ENDBRANCH   6   9
ENDBRANCH   5   6
ENDBRANCH   4   5
ENDBRANCH   3   4
ENDBRANCH   2   3
TORSDOF 12
ENDMDL
MODEL      157
REMARK 921   NORMALIZED FREE ENERGY PREDICTED BY IDOCK:   -4.51 KCAL/MOL
REMARK 922        TOTAL FREE ENERGY PREDICTED BY IDOCK:   -9.63 KCAL/MOL
REMARK 923 INTER-LIGAND FREE ENERGY PREDICTED BY IDOCK:   -7.65 KCAL/MOL
REMARK 924 INTRA-LIGAND FREE ENERGY PREDICTED BY IDOCK:   -1.98 KCAL/MOL
REMARK 927      BINDING AFFINITY PREDICTED BY RF-SCORE:    0.00 PKD
ROOT
HETATM    1  C   UNL     1     -10.210  15.146  65.122  1.00  0.00    -0.386 C  
HETATM    2  C   UNL     1     -11.510  14.653  64.511  1.00  0.00    -0.340 C  
ENDROOT
BRANCH   2   3
HETATM    3  C   UNL     1     -12.370  13.895  65.525  1.00  0.00    -0.506 C  
BRANCH   3   4
HETATM    4  C   UNL     1     -12.213  12.389  65.324  1.00  0.00    -0.418 C  
BRANCH   4   5
HETATM    5  C   UNL     1     -11.138  11.784  66.229  1.00  0.00    -0.364 C  
BRANCH   5   6
HETATM    6  C   UNL     1     -10.169  10.854  65.478  1.00  0.00    -0.271 C  
HETATM    7  O   UNL     1     -10.734  10.600  64.196  1.00  0.00    -0.397 OA 
HETATM    8  H   UNL     1     -10.135  10.026  63.732  1.00  0.00     0.000 HD 
BRANCH   6   9
HETATM    9  C   UNL     1      -9.902   9.560  66.216  1.00  0.00    -0.334 C  
HETATM   10  C   UNL     1     -10.811   8.735  66.761  1.00  0.00     0.095 C  
BRANCH  10  11
HETATM   11  C   UNL     1     -10.465   7.538  67.622  1.00  0.00    -0.319 C  
HETATM   12  C   UNL     1     -10.064   6.345  66.729  1.00  0.00    -0.179 C  
HETATM   13  O   UNL     1     -11.196   5.677  66.189  1.00  0.00    -0.763 OA 
HETATM   14  C   UNL     1      -9.273   5.417  67.625  1.00  0.00    -0.116 C  
HETATM   15  H   UNL     1     -10.949   4.943  65.639  1.00  0.00     0.000 HD 
HETATM   16  C   UNL     1      -8.574   6.398  68.513  1.00  0.00    -0.122 C  
HETATM   17  O   UNL     1      -7.552   6.112  69.127  1.00  0.00    -0.090 OA 
HETATM   18  C   UNL     1      -9.264   7.752  68.576  1.00  0.00    -0.137 C  
BRANCH  18  19
HETATM   19  C   UNL     1      -9.735   8.108  69.999  1.00  0.00    -0.172 C  
BRANCH  19  20
HETATM   20  C   UNL     1     -10.958   7.311  70.472  1.00  0.00    -0.282 C  
BRANCH  20  21
HETATM   21  C   UNL     1     -11.786   8.085  71.502  1.00  0.00    -0.321 C  
BRANCH  21  22
HETATM   22  C   UNL     1     -11.480   9.584  71.437  1.00  0.00    -0.462 C  
BRANCH  22  23
HETATM   23  C   UNL     1     -12.524  10.331  70.608  1.00  0.00    -0.407 C  
BRANCH  23  24
HETATM   24  C   UNL     1     -11.875  11.318  69.636  1.00  0.00    -0.430 C  
HETATM   25  C   UNL     1     -12.037  12.747  70.103  1.00  0.00    -0.298 C  
HETATM   26  O   UNL     1     -12.606  13.100  71.122  1.00  0.00    -0.370 OA 
HETATM   27  O   UNL     1     -11.472  13.629  69.248  1.00  0.00    -0.261 OA 
ENDBRANCH  23  24
ENDBRANCH  22  23
ENDBRANCH  21  22
ENDBRANCH  20  21
ENDBRANCH  19  20
ENDBRANCH  18  19
ENDBRANCH  10  11
ENDBRANCH   6   9
ENDBRANCH   5   6
ENDBRANCH   4   5
ENDBRANCH   3   4
ENDBRANCH   2   3
TORSDOF 12
ENDMDL
MODEL      158
REMARK 921   NORMALIZED FREE ENERGY PREDICTED BY IDOCK:   -4.50 KCAL/MOL
REMARK 922        TOTAL FREE ENERGY PREDICTED BY IDOCK:   -9.60 KCAL/MOL
REMARK 923 INTER-LIGAND FREE ENERGY PREDICTED BY IDOCK:   -8.50 KCAL/MOL
REMARK 924 INTRA-LIGAND FREE ENERGY PREDICTED BY IDOCK:   -1.10 KCAL/MOL
REMARK 927      BINDING AFFINITY PREDICTED BY RF-SCORE:    0.00 PKD
ROOT
HETATM    1  C   UNL     1     -12.105  14.953  71.498  1.00  0.00    -0.406 C  
HETATM    2  C   UNL     1     -11.781  15.090  70.021  1.00  0.00    -0.345 C  
ENDROOT
BRANCH   2   3
HETATM    3  C   UNL     1     -10.821  16.249  69.749  1.00  0.00    -0.356 C  
BRANCH   3   4
HETATM    4  C   UNL     1     -10.924  16.683  68.288  1.00  0.00    -0.341 C  
BRANCH   4   5
HETATM    5  C   UNL     1      -9.562  16.729  67.590  1.00  0.00    -0.244 C  
BRANCH   5   6
HETATM    6  C   UNL     1      -9.668  16.705  66.056  1.00  0.00    -0.278 C  
HETATM    7  O   UNL     1     -10.476  17.812  65.670  1.00  0.00    -0.613 OA 
HETATM    8  H   UNL     1     -10.541  17.797  64.722  1.00  0.00     0.000 HD 
BRANCH   6   9
HETATM    9  C   UNL     1     -10.241  15.409  65.525  1.00  0.00    -0.411 C  
HETATM   10  C   UNL     1     -10.510  14.293  66.223  1.00  0.00    -0.291 C  
BRANCH  10  11
HETATM   11  C   UNL     1     -10.934  12.980  65.600  1.00  0.00    -0.296 C  
HETATM   12  C   UNL     1     -11.959  13.238  64.475  1.00  0.00    -0.400 C  
HETATM   13  O   UNL     1     -13.267  13.463  64.984  1.00  0.00    -0.715 OA 
HETATM   14  C   UNL     1     -11.928  11.998  63.608  1.00  0.00    -0.612 C  
HETATM   15  H   UNL     1     -13.897  13.621  64.291  1.00  0.00     0.000 HD 
HETATM   16  C   UNL     1     -10.484  11.615  63.702  1.00  0.00    -0.429 C  
HETATM   17  O   UNL     1      -9.940  10.905  62.864  1.00  0.00    -0.302 OA 
HETATM   18  C   UNL     1      -9.789  12.182  64.931  1.00  0.00    -0.173 C  
BRANCH  18  19
HETATM   19  C   UNL     1      -9.252  11.081  65.865  1.00  0.00    -0.220 C  
BRANCH  19  20
HETATM   20  C   UNL     1     -10.248   9.944  66.130  1.00  0.00    -0.277 C  
BRANCH  20  21
HETATM   21  C   UNL     1      -9.591   8.758  66.840  1.00  0.00    -0.249 C  
BRANCH  21  22
HETATM   22  C   UNL     1     -10.647   7.820  67.433  1.00  0.00    -0.345 C  
BRANCH  22  23
HETATM   23  C   UNL     1     -10.445   7.630  68.936  1.00  0.00    -0.211 C  
BRANCH  23  24
HETATM   24  C   UNL     1      -9.087   8.162  69.395  1.00  0.00    -0.148 C  
HETATM   25  C   UNL     1      -9.229   9.134  70.545  1.00  0.00    -0.241 C  
HETATM   26  O   UNL     1     -10.280   9.469  71.064  1.00  0.00    -0.297 OA 
HETATM   27  O   UNL     1      -8.034   9.615  70.955  1.00  0.00    -0.301 OA 
ENDBRANCH  23  24
ENDBRANCH  22  23
ENDBRANCH  21  22
ENDBRANCH  20  21
ENDBRANCH  19  20
ENDBRANCH  18  19
ENDBRANCH  10  11
ENDBRANCH   6   9
ENDBRANCH   5   6
ENDBRANCH   4   5
ENDBRANCH   3   4
ENDBRANCH   2   3
TORSDOF 12
ENDMDL
MODEL      159
REMARK 921   NORMALIZED FREE ENERGY PREDICTED BY IDOCK:   -4.49 KCAL/MOL
REMARK 922        TOTAL FREE ENERGY PREDICTED BY IDOCK:   -9.60 KCAL/MOL
REMARK 923 INTER-LIGAND FREE ENERGY PREDICTED BY IDOCK:   -7.95 KCAL/MOL
REMARK 924 INTRA-LIGAND FREE ENERGY PREDICTED BY IDOCK:   -1.64 KCAL/MOL
REMARK 927      BINDING AFFINITY PREDICTED BY RF-SCORE:    0.00 PKD
ROOT
HETATM    1  C   UNL     1      -9.337  19.758  68.778  1.00  0.00    -0.298 C  
HETATM    2  C   UNL     1     -10.660  19.683  68.037  1.00  0.00    -0.458 C  
ENDROOT
BRANCH   2   3
HETATM    3  C   UNL     1     -10.552  18.858  66.753  1.00  0.00    -0.480 C  
BRANCH   3   4
HETATM    4  C   UNL     1      -9.118  18.366  66.564  1.00  0.00    -0.297 C  
BRANCH   4   5
HETATM    5  C   UNL     1      -9.013  16.840  66.579  1.00  0.00    -0.304 C  
BRANCH   5   6
HETATM    6  C   UNL     1     -10.036  16.172  67.514  1.00  0.00    -0.243 C  
HETATM    7  O   UNL     1      -9.443  16.098  68.806  1.00  0.00    -0.210 OA 
HETATM    8  H   UNL     1     -10.075  15.686  69.384  1.00  0.00     0.000 HD 
BRANCH   6   9
HETATM    9  C   UNL     1     -10.462  14.801  67.037  1.00  0.00    -0.270 C  
HETATM   10  C   UNL     1     -10.130  14.203  65.881  1.00  0.00    -0.337 C  
BRANCH  10  11
HETATM   11  C   UNL     1     -10.720  12.895  65.399  1.00  0.00    -0.307 C  
HETATM   12  C   UNL     1     -11.529  13.128  64.105  1.00  0.00    -0.403 C  
HETATM   13  O   UNL     1     -12.822  13.656  64.372  1.00  0.00    -0.638 OA 
HETATM   14  C   UNL     1     -11.633  11.771  63.443  1.00  0.00    -0.419 C  
HETATM   15  H   UNL     1     -13.320  13.799  63.575  1.00  0.00     0.000 HD 
HETATM   16  C   UNL     1     -10.313  11.169  63.810  1.00  0.00    -0.386 C  
HETATM   17  O   UNL     1      -9.817  10.243  63.177  1.00  0.00    -0.253 OA 
HETATM   18  C   UNL     1      -9.677  11.810  65.034  1.00  0.00    -0.212 C  
BRANCH  18  19
HETATM   19  C   UNL     1      -9.481  10.809  66.189  1.00  0.00    -0.221 C  
BRANCH  19  20
HETATM   20  C   UNL     1      -8.401  11.222  67.198  1.00  0.00    -0.151 C  
BRANCH  20  21
HETATM   21  C   UNL     1      -8.637  10.602  68.578  1.00  0.00    -0.137 C  
BRANCH  21  22
HETATM   22  C   UNL     1      -9.386   9.272  68.461  1.00  0.00    -0.143 C  
BRANCH  22  23
HETATM   23  C   UNL     1     -10.646   9.263  69.328  1.00  0.00    -0.234 C  
BRANCH  23  24
HETATM   24  C   UNL     1     -10.835  10.590  70.064  1.00  0.00    -0.320 C  
HETATM   25  C   UNL     1     -11.805  11.496  69.338  1.00  0.00    -0.350 C  
HETATM   26  O   UNL     1     -12.380  11.229  68.297  1.00  0.00    -0.542 OA 
HETATM   27  O   UNL     1     -11.975  12.675  69.977  1.00  0.00    -0.339 OA 
ENDBRANCH  23  24
ENDBRANCH  22  23
ENDBRANCH  21  22
ENDBRANCH  20  21
ENDBRANCH  19  20
ENDBRANCH  18  19
ENDBRANCH  10  11
ENDBRANCH   6   9
ENDBRANCH   5   6
ENDBRANCH   4   5
ENDBRANCH   3   4
ENDBRANCH   2   3
TORSDOF 12
ENDMDL
MODEL      160
REMARK 921   NORMALIZED FREE ENERGY PREDICTED BY IDOCK:   -4.48 KCAL/MOL
REMARK 922        TOTAL FREE ENERGY PREDICTED BY IDOCK:   -9.58 KCAL/MOL
REMARK 923 INTER-LIGAND FREE ENERGY PREDICTED BY IDOCK:   -8.13 KCAL/MOL
REMARK 924 INTRA-LIGAND FREE ENERGY PREDICTED BY IDOCK:   -1.45 KCAL/MOL
REMARK 927      BINDING AFFINITY PREDICTED BY RF-SCORE:    0.00 PKD
ROOT
HETATM    1  C   UNL     1      -6.365  10.286  66.913  1.00  0.00    -0.069 C  
HETATM    2  C   UNL     1      -6.183   8.934  66.246  1.00  0.00    -0.064 C  
ENDROOT
BRANCH   2   3
HETATM    3  C   UNL     1      -7.061   7.856  66.885  1.00  0.00    -0.078 C  
BRANCH   3   4
HETATM    4  C   UNL     1      -8.040   8.493  67.870  1.00  0.00    -0.115 C  
BRANCH   4   5
HETATM    5  C   UNL     1      -9.244   7.596  68.166  1.00  0.00    -0.138 C  
BRANCH   5   6
HETATM    6  C   UNL     1     -10.513   8.017  67.407  1.00  0.00    -0.287 C  
HETATM    7  O   UNL     1     -10.892   6.924  66.577  1.00  0.00    -0.509 OA 
HETATM    8  H   UNL     1     -11.677   7.184  66.107  1.00  0.00     0.000 HD 
BRANCH   6   9
HETATM    9  C   UNL     1     -10.319   9.274  66.587  1.00  0.00    -0.292 C  
HETATM   10  C   UNL     1     -10.739  10.514  66.889  1.00  0.00    -0.281 C  
BRANCH  10  11
HETATM   11  C   UNL     1     -10.649  11.696  65.948  1.00  0.00    -0.318 C  
HETATM   12  C   UNL     1     -10.153  11.231  64.563  1.00  0.00    -0.295 C  
HETATM   13  O   UNL     1      -8.743  11.051  64.533  1.00  0.00    -0.356 OA 
HETATM   14  C   UNL     1     -10.574  12.317  63.597  1.00  0.00    -0.501 C  
HETATM   15  H   UNL     1      -8.438  10.764  63.680  1.00  0.00     0.000 HD 
HETATM   16  C   UNL     1     -11.872  12.754  64.200  1.00  0.00    -0.413 C  
HETATM   17  O   UNL     1     -12.732  13.337  63.550  1.00  0.00    -0.708 OA 
HETATM   18  C   UNL     1     -11.995  12.412  65.677  1.00  0.00    -0.449 C  
BRANCH  18  19
HETATM   19  C   UNL     1     -12.152  13.664  66.561  1.00  0.00    -0.469 C  
BRANCH  19  20
HETATM   20  C   UNL     1     -10.845  14.142  67.208  1.00  0.00    -0.288 C  
BRANCH  20  21
HETATM   21  C   UNL     1     -10.682  15.662  67.121  1.00  0.00    -0.314 C  
BRANCH  21  22
HETATM   22  C   UNL     1     -11.159  16.340  68.409  1.00  0.00    -0.362 C  
BRANCH  22  23
HETATM   23  C   UNL     1     -11.105  15.379  69.597  1.00  0.00    -0.280 C  
BRANCH  23  24
HETATM   24  C   UNL     1     -12.364  15.477  70.461  1.00  0.00    -0.461 C  
HETATM   25  C   UNL     1     -12.823  14.116  70.932  1.00  0.00    -0.334 C  
HETATM   26  O   UNL     1     -12.278  13.056  70.675  1.00  0.00    -0.364 OA 
HETATM   27  O   UNL     1     -13.939  14.190  71.692  1.00  0.00    -0.382 OA 
ENDBRANCH  23  24
ENDBRANCH  22  23
ENDBRANCH  21  22
ENDBRANCH  20  21
ENDBRANCH  19  20
ENDBRANCH  18  19
ENDBRANCH  10  11
ENDBRANCH   6   9
ENDBRANCH   5   6
ENDBRANCH   4   5
ENDBRANCH   3   4
ENDBRANCH   2   3
TORSDOF 12
ENDMDL
MODEL      161
REMARK 921   NORMALIZED FREE ENERGY PREDICTED BY IDOCK:   -4.47 KCAL/MOL
REMARK 922        TOTAL FREE ENERGY PREDICTED BY IDOCK:   -9.55 KCAL/MOL
REMARK 923 INTER-LIGAND FREE ENERGY PREDICTED BY IDOCK:   -7.17 KCAL/MOL
REMARK 924 INTRA-LIGAND FREE ENERGY PREDICTED BY IDOCK:   -2.37 KCAL/MOL
REMARK 927      BINDING AFFINITY PREDICTED BY RF-SCORE:    0.00 PKD
ROOT
HETATM    1  C   UNL     1      -9.379   9.955  64.602  1.00  0.00    -0.338 C  
HETATM    2  C   UNL     1      -9.535   8.984  65.758  1.00  0.00    -0.305 C  
ENDROOT
BRANCH   2   3
HETATM    3  C   UNL     1      -8.232   8.240  66.061  1.00  0.00    -0.119 C  
BRANCH   3   4
HETATM    4  C   UNL     1      -8.479   7.160  67.113  1.00  0.00    -0.121 C  
BRANCH   4   5
HETATM    5  C   UNL     1      -9.298   5.986  66.571  1.00  0.00    -0.166 C  
BRANCH   5   6
HETATM    6  C   UNL     1     -10.540   5.672  67.422  1.00  0.00    -0.237 C  
HETATM    7  O   UNL     1     -11.655   6.288  66.788  1.00  0.00    -0.629 OA 
HETATM    8  H   UNL     1     -12.423   6.094  67.314  1.00  0.00     0.000 HD 
BRANCH   6   9
HETATM    9  C   UNL     1     -10.407   6.142  68.854  1.00  0.00    -0.258 C  
HETATM   10  C   UNL     1     -11.394   6.534  69.675  1.00  0.00    -0.443 C  
BRANCH  10  11
HETATM   11  C   UNL     1     -11.173   7.142  71.044  1.00  0.00    -0.298 C  
HETATM   12  C   UNL     1     -11.435   6.085  72.138  1.00  0.00    -0.302 C  
HETATM   13  O   UNL     1     -12.822   5.915  72.396  1.00  0.00    -0.380 OA 
HETATM   14  C   UNL     1     -10.720   6.595  73.372  1.00  0.00    -0.315 C  
HETATM   15  H   UNL     1     -12.982   5.265  73.070  1.00  0.00     0.000 HD 
HETATM   16  C   UNL     1      -9.527   7.260  72.760  1.00  0.00    -0.152 C  
HETATM   17  O   UNL     1      -8.499   7.471  73.394  1.00  0.00    -0.125 OA 
HETATM   18  C   UNL     1      -9.732   7.646  71.303  1.00  0.00    -0.176 C  
BRANCH  18  19
HETATM   19  C   UNL     1      -9.619   9.165  71.075  1.00  0.00    -0.350 C  
BRANCH  19  20
HETATM   20  C   UNL     1      -8.539   9.567  70.061  1.00  0.00    -0.234 C  
BRANCH  20  21
HETATM   21  C   UNL     1      -9.100  10.450  68.943  1.00  0.00    -0.175 C  
BRANCH  21  22
HETATM   22  C   UNL     1     -10.627  10.542  69.030  1.00  0.00    -0.250 C  
BRANCH  22  23
HETATM   23  C   UNL     1     -11.178  11.597  68.071  1.00  0.00    -0.327 C  
BRANCH  23  24
HETATM   24  C   UNL     1     -11.227  12.981  68.721  1.00  0.00    -0.325 C  
HETATM   25  C   UNL     1     -11.811  14.015  67.785  1.00  0.00    -0.384 C  
HETATM   26  O   UNL     1     -12.203  13.803  66.650  1.00  0.00    -0.426 OA 
HETATM   27  O   UNL     1     -11.853  15.244  68.348  1.00  0.00    -0.339 OA 
ENDBRANCH  23  24
ENDBRANCH  22  23
ENDBRANCH  21  22
ENDBRANCH  20  21
ENDBRANCH  19  20
ENDBRANCH  18  19
ENDBRANCH  10  11
ENDBRANCH   6   9
ENDBRANCH   5   6
ENDBRANCH   4   5
ENDBRANCH   3   4
ENDBRANCH   2   3
TORSDOF 12
ENDMDL
MODEL      162
REMARK 921   NORMALIZED FREE ENERGY PREDICTED BY IDOCK:   -4.46 KCAL/MOL
REMARK 922        TOTAL FREE ENERGY PREDICTED BY IDOCK:   -9.54 KCAL/MOL
REMARK 923 INTER-LIGAND FREE ENERGY PREDICTED BY IDOCK:   -7.90 KCAL/MOL
REMARK 924 INTRA-LIGAND FREE ENERGY PREDICTED BY IDOCK:   -1.64 KCAL/MOL
REMARK 927      BINDING AFFINITY PREDICTED BY RF-SCORE:    0.00 PKD
ROOT
HETATM    1  C   UNL     1     -11.977  11.996  63.891  1.00  0.00    -0.542 C  
HETATM    2  C   UNL     1     -11.691  13.442  64.257  1.00  0.00    -0.455 C  
ENDROOT
BRANCH   2   3
HETATM    3  C   UNL     1     -11.995  13.732  65.729  1.00  0.00    -0.423 C  
BRANCH   3   4
HETATM    4  C   UNL     1     -11.685  12.502  66.581  1.00  0.00    -0.453 C  
BRANCH   4   5
HETATM    5  C   UNL     1     -11.017  12.861  67.910  1.00  0.00    -0.266 C  
BRANCH   5   6
HETATM    6  C   UNL     1     -11.739  12.263  69.130  1.00  0.00    -0.323 C  
HETATM    7  O   UNL     1     -11.635  13.210  70.188  1.00  0.00    -0.506 OA 
HETATM    8  H   UNL     1     -12.081  12.840  70.942  1.00  0.00     0.000 HD 
BRANCH   6   9
HETATM    9  C   UNL     1     -11.176  10.922  69.548  1.00  0.00    -0.340 C  
HETATM   10  C   UNL     1     -11.549  10.178  70.602  1.00  0.00    -0.429 C  
BRANCH  10  11
HETATM   11  C   UNL     1     -10.836   8.921  71.053  1.00  0.00    -0.326 C  
HETATM   12  C   UNL     1      -9.427   9.274  71.577  1.00  0.00    -0.031 C  
HETATM   13  O   UNL     1      -8.497   9.468  70.520  1.00  0.00    -0.195 OA 
HETATM   14  C   UNL     1      -9.014   8.105  72.444  1.00  0.00    -0.265 C  
HETATM   15  H   UNL     1      -7.630   9.685  70.842  1.00  0.00     0.000 HD 
HETATM   16  C   UNL     1     -10.329   7.704  73.036  1.00  0.00    -0.335 C  
HETATM   17  O   UNL     1     -10.410   7.057  74.074  1.00  0.00    -0.364 OA 
HETATM   18  C   UNL     1     -11.524   8.168  72.217  1.00  0.00    -0.435 C  
BRANCH  18  19
HETATM   19  C   UNL     1     -12.376   6.994  71.700  1.00  0.00    -0.407 C  
BRANCH  19  20
HETATM   20  C   UNL     1     -12.128   6.642  70.227  1.00  0.00    -0.188 C  
BRANCH  20  21
HETATM   21  C   UNL     1     -11.005   5.615  70.062  1.00  0.00    -0.311 C  
BRANCH  21  22
HETATM   22  C   UNL     1     -10.461   5.622  68.630  1.00  0.00    -0.277 C  
BRANCH  22  23
HETATM   23  C   UNL     1      -9.739   6.932  68.314  1.00  0.00    -0.132 C  
BRANCH  23  24
HETATM   24  C   UNL     1     -10.535   7.794  67.332  1.00  0.00    -0.362 C  
HETATM   25  C   UNL     1      -9.638   8.749  66.576  1.00  0.00    -0.237 C  
HETATM   26  O   UNL     1      -8.430   8.842  66.709  1.00  0.00    -0.113 OA 
HETATM   27  O   UNL     1     -10.333   9.519  65.710  1.00  0.00    -0.182 OA 
ENDBRANCH  23  24
ENDBRANCH  22  23
ENDBRANCH  21  22
ENDBRANCH  20  21
ENDBRANCH  19  20
ENDBRANCH  18  19
ENDBRANCH  10  11
ENDBRANCH   6   9
ENDBRANCH   5   6
ENDBRANCH   4   5
ENDBRANCH   3   4
ENDBRANCH   2   3
TORSDOF 12
ENDMDL
MODEL      163
REMARK 921   NORMALIZED FREE ENERGY PREDICTED BY IDOCK:   -4.45 KCAL/MOL
REMARK 922        TOTAL FREE ENERGY PREDICTED BY IDOCK:   -9.53 KCAL/MOL
REMARK 923 INTER-LIGAND FREE ENERGY PREDICTED BY IDOCK:   -8.04 KCAL/MOL
REMARK 924 INTRA-LIGAND FREE ENERGY PREDICTED BY IDOCK:   -1.49 KCAL/MOL
REMARK 927      BINDING AFFINITY PREDICTED BY RF-SCORE:    0.00 PKD
ROOT
HETATM    1  C   UNL     1     -10.219  14.575  66.714  1.00  0.00    -0.266 C  
HETATM    2  C   UNL     1     -11.588  13.930  66.589  1.00  0.00    -0.392 C  
ENDROOT
BRANCH   2   3
HETATM    3  C   UNL     1     -11.853  12.925  67.712  1.00  0.00    -0.391 C  
BRANCH   3   4
HETATM    4  C   UNL     1     -11.135  13.364  68.988  1.00  0.00    -0.293 C  
BRANCH   4   5
HETATM    5  C   UNL     1     -11.979  14.314  69.841  1.00  0.00    -0.397 C  
BRANCH   5   6
HETATM    6  C   UNL     1     -12.734  13.600  70.974  1.00  0.00    -0.332 C  
HETATM    7  O   UNL     1     -12.506  14.342  72.168  1.00  0.00    -0.318 OA 
HETATM    8  H   UNL     1     -12.973  13.901  72.869  1.00  0.00     0.000 HD 
BRANCH   6   9
HETATM    9  C   UNL     1     -12.310  12.158  71.148  1.00  0.00    -0.265 C  
HETATM   10  C   UNL     1     -13.062  11.138  71.593  1.00  0.00    -0.529 C  
BRANCH  10  11
HETATM   11  C   UNL     1     -12.529   9.753  71.891  1.00  0.00    -0.451 C  
HETATM   12  C   UNL     1     -13.701   8.778  72.132  1.00  0.00    -0.447 C  
HETATM   13  O   UNL     1     -14.234   8.896  73.444  1.00  0.00    -1.241 OA 
HETATM   14  C   UNL     1     -13.129   7.394  71.910  1.00  0.00    -0.289 C  
HETATM   15  H   UNL     1     -14.955   8.296  73.592  1.00  0.00     0.000 HD 
HETATM   16  C   UNL     1     -12.140   7.662  70.820  1.00  0.00    -0.124 C  
HETATM   17  O   UNL     1     -11.729   6.778  70.077  1.00  0.00    -0.337 OA 
HETATM   18  C   UNL     1     -11.703   9.118  70.746  1.00  0.00    -0.308 C  
BRANCH  18  19
HETATM   19  C   UNL     1     -10.190   9.292  70.983  1.00  0.00    -0.384 C  
BRANCH  19  20
HETATM   20  C   UNL     1      -9.698   8.730  72.323  1.00  0.00    -0.282 C  
BRANCH  20  21
HETATM   21  C   UNL     1      -8.493   7.802  72.150  1.00  0.00    -0.159 C  
BRANCH  21  22
HETATM   22  C   UNL     1      -8.643   6.935  70.896  1.00  0.00    -0.136 C  
BRANCH  22  23
HETATM   23  C   UNL     1      -8.501   5.449  71.225  1.00  0.00    -0.126 C  
BRANCH  23  24
HETATM   24  C   UNL     1      -9.744   4.905  71.932  1.00  0.00    -0.218 C  
HETATM   25  C   UNL     1      -9.389   4.218  73.231  1.00  0.00    -0.112 C  
HETATM   26  O   UNL     1      -8.264   4.099  73.686  1.00  0.00    -0.088 OA 
HETATM   27  O   UNL     1     -10.480   3.727  73.862  1.00  0.00    -0.155 OA 
ENDBRANCH  23  24
ENDBRANCH  22  23
ENDBRANCH  21  22
ENDBRANCH  20  21
ENDBRANCH  19  20
ENDBRANCH  18  19
ENDBRANCH  10  11
ENDBRANCH   6   9
ENDBRANCH   5   6
ENDBRANCH   4   5
ENDBRANCH   3   4
ENDBRANCH   2   3
TORSDOF 12
ENDMDL
MODEL      164
REMARK 921   NORMALIZED FREE ENERGY PREDICTED BY IDOCK:   -4.44 KCAL/MOL
REMARK 922        TOTAL FREE ENERGY PREDICTED BY IDOCK:   -9.51 KCAL/MOL
REMARK 923 INTER-LIGAND FREE ENERGY PREDICTED BY IDOCK:   -7.89 KCAL/MOL
REMARK 924 INTRA-LIGAND FREE ENERGY PREDICTED BY IDOCK:   -1.61 KCAL/MOL
REMARK 927      BINDING AFFINITY PREDICTED BY RF-SCORE:    0.00 PKD
ROOT
HETATM    1  C   UNL     1      -8.234   7.108  68.082  1.00  0.00    -0.124 C  
HETATM    2  C   UNL     1      -7.843   8.574  68.024  1.00  0.00    -0.103 C  
ENDROOT
BRANCH   2   3
HETATM    3  C   UNL     1      -6.367   8.788  68.365  1.00  0.00    -0.055 C  
BRANCH   3   4
HETATM    4  C   UNL     1      -6.124   8.497  69.844  1.00  0.00    -0.031 C  
BRANCH   4   5
HETATM    5  C   UNL     1      -7.030   9.319  70.763  1.00  0.00    -0.110 C  
BRANCH   5   6
HETATM    6  C   UNL     1      -7.849   8.454  71.736  1.00  0.00    -0.126 C  
HETATM    7  O   UNL     1      -7.665   7.095  71.352  1.00  0.00    -0.090 OA 
HETATM    8  H   UNL     1      -8.171   6.560  71.953  1.00  0.00     0.000 HD 
BRANCH   6   9
HETATM    9  C   UNL     1      -9.319   8.815  71.752  1.00  0.00    -0.350 C  
HETATM   10  C   UNL     1     -10.203   8.663  70.753  1.00  0.00    -0.250 C  
BRANCH  10  11
HETATM   11  C   UNL     1     -11.621   9.191  70.783  1.00  0.00    -0.329 C  
HETATM   12  C   UNL     1     -12.289   8.829  72.127  1.00  0.00    -0.389 C  
HETATM   13  O   UNL     1     -12.750   7.484  72.149  1.00  0.00    -0.458 OA 
HETATM   14  C   UNL     1     -13.447   9.792  72.276  1.00  0.00    -0.443 C  
HETATM   15  H   UNL     1     -13.161   7.261  72.976  1.00  0.00     0.000 HD 
HETATM   16  C   UNL     1     -12.885  11.022  71.634  1.00  0.00    -0.435 C  
HETATM   17  O   UNL     1     -13.325  12.142  71.868  1.00  0.00    -0.463 OA 
HETATM   18  C   UNL     1     -11.741  10.731  70.674  1.00  0.00    -0.442 C  
BRANCH  18  19
HETATM   19  C   UNL     1     -12.058  11.168  69.231  1.00  0.00    -0.377 C  
BRANCH  19  20
HETATM   20  C   UNL     1     -11.149  10.531  68.170  1.00  0.00    -0.346 C  
BRANCH  20  21
HETATM   21  C   UNL     1     -10.187  11.549  67.551  1.00  0.00    -0.207 C  
BRANCH  21  22
HETATM   22  C   UNL     1     -10.956  12.694  66.884  1.00  0.00    -0.297 C  
BRANCH  22  23
HETATM   23  C   UNL     1     -10.018  13.830  66.474  1.00  0.00    -0.290 C  
BRANCH  23  24
HETATM   24  C   UNL     1     -10.480  14.504  65.181  1.00  0.00    -0.439 C  
HETATM   25  C   UNL     1     -10.658  15.995  65.363  1.00  0.00    -0.408 C  
HETATM   26  O   UNL     1     -10.465  16.610  66.398  1.00  0.00    -0.305 OA 
HETATM   27  O   UNL     1     -11.072  16.601  64.227  1.00  0.00    -1.029 OA 
ENDBRANCH  23  24
ENDBRANCH  22  23
ENDBRANCH  21  22
ENDBRANCH  20  21
ENDBRANCH  19  20
ENDBRANCH  18  19
ENDBRANCH  10  11
ENDBRANCH   6   9
ENDBRANCH   5   6
ENDBRANCH   4   5
ENDBRANCH   3   4
ENDBRANCH   2   3
TORSDOF 12
ENDMDL
MODEL      165
REMARK 921   NORMALIZED FREE ENERGY PREDICTED BY IDOCK:   -4.43 KCAL/MOL
REMARK 922        TOTAL FREE ENERGY PREDICTED BY IDOCK:   -9.49 KCAL/MOL
REMARK 923 INTER-LIGAND FREE ENERGY PREDICTED BY IDOCK:   -7.43 KCAL/MOL
REMARK 924 INTRA-LIGAND FREE ENERGY PREDICTED BY IDOCK:   -2.05 KCAL/MOL
REMARK 927      BINDING AFFINITY PREDICTED BY RF-SCORE:    0.00 PKD
ROOT
HETATM    1  C   UNL     1      -8.828  15.838  66.268  1.00  0.00    -0.378 C  
HETATM    2  C   UNL     1      -8.328  14.969  67.409  1.00  0.00    -0.210 C  
ENDROOT
BRANCH   2   3
HETATM    3  C   UNL     1      -8.290  13.488  67.027  1.00  0.00    -0.096 C  
BRANCH   3   4
HETATM    4  C   UNL     1      -8.222  12.624  68.286  1.00  0.00    -0.164 C  
BRANCH   4   5
HETATM    5  C   UNL     1      -6.801  12.148  68.597  1.00  0.00    -0.089 C  
BRANCH   5   6
HETATM    6  C   UNL     1      -6.765  10.862  69.440  1.00  0.00    -0.107 C  
HETATM    7  O   UNL     1      -5.980   9.911  68.729  1.00  0.00    -0.039 OA 
HETATM    8  H   UNL     1      -5.958   9.117  69.251  1.00  0.00     0.000 HD 
BRANCH   6   9
HETATM    9  C   UNL     1      -8.144  10.312  69.734  1.00  0.00    -0.125 C  
HETATM   10  C   UNL     1      -8.468   9.376  70.641  1.00  0.00    -0.239 C  
BRANCH  10  11
HETATM   11  C   UNL     1      -9.844   8.758  70.772  1.00  0.00    -0.255 C  
HETATM   12  C   UNL     1      -9.903   7.865  72.029  1.00  0.00    -0.192 C  
HETATM   13  O   UNL     1      -9.311   6.592  71.809  1.00  0.00    -0.150 OA 
HETATM   14  C   UNL     1     -11.374   7.721  72.355  1.00  0.00    -0.400 C  
HETATM   15  H   UNL     1      -9.347   6.042  72.583  1.00  0.00     0.000 HD 
HETATM   16  C   UNL     1     -11.893   9.063  71.946  1.00  0.00    -0.376 C  
HETATM   17  O   UNL     1     -12.945   9.519  72.380  1.00  0.00    -0.386 OA 
HETATM   18  C   UNL     1     -10.997   9.777  70.944  1.00  0.00    -0.411 C  
BRANCH  18  19
HETATM   19  C   UNL     1     -11.710  10.050  69.606  1.00  0.00    -0.098 C  
BRANCH  19  20
HETATM   20  C   UNL     1     -12.191  11.497  69.437  1.00  0.00    -0.273 C  
BRANCH  20  21
HETATM   21  C   UNL     1     -11.713  12.112  68.119  1.00  0.00    -0.402 C  
BRANCH  21  22
HETATM   22  C   UNL     1     -11.866  13.636  68.138  1.00  0.00    -0.407 C  
BRANCH  22  23
HETATM   23  C   UNL     1     -12.054  14.195  66.728  1.00  0.00    -0.474 C  
BRANCH  23  24
HETATM   24  C   UNL     1     -11.755  13.144  65.658  1.00  0.00    -0.402 C  
HETATM   25  C   UNL     1     -12.130  13.633  64.277  1.00  0.00    -0.434 C  
HETATM   26  O   UNL     1     -12.610  14.723  64.017  1.00  0.00    -0.822 OA 
HETATM   27  O   UNL     1     -11.875  12.708  63.323  1.00  0.00    -0.504 OA 
ENDBRANCH  23  24
ENDBRANCH  22  23
ENDBRANCH  21  22
ENDBRANCH  20  21
ENDBRANCH  19  20
ENDBRANCH  18  19
ENDBRANCH  10  11
ENDBRANCH   6   9
ENDBRANCH   5   6
ENDBRANCH   4   5
ENDBRANCH   3   4
ENDBRANCH   2   3
TORSDOF 12
ENDMDL
MODEL      166
REMARK 921   NORMALIZED FREE ENERGY PREDICTED BY IDOCK:   -4.42 KCAL/MOL
REMARK 922        TOTAL FREE ENERGY PREDICTED BY IDOCK:   -9.48 KCAL/MOL
REMARK 923 INTER-LIGAND FREE ENERGY PREDICTED BY IDOCK:   -8.05 KCAL/MOL
REMARK 924 INTRA-LIGAND FREE ENERGY PREDICTED BY IDOCK:   -1.43 KCAL/MOL
REMARK 927      BINDING AFFINITY PREDICTED BY RF-SCORE:    0.00 PKD
ROOT
HETATM    1  C   UNL     1     -10.182  11.997  63.749  1.00  0.00    -0.447 C  
HETATM    2  C   UNL     1      -9.275  10.780  63.794  1.00  0.00    -0.266 C  
ENDROOT
BRANCH   2   3
HETATM    3  C   UNL     1      -8.694  10.549  65.191  1.00  0.00    -0.197 C  
BRANCH   3   4
HETATM    4  C   UNL     1      -9.640   9.677  66.014  1.00  0.00    -0.305 C  
BRANCH   4   5
HETATM    5  C   UNL     1     -10.881  10.438  66.486  1.00  0.00    -0.098 C  
BRANCH   5   6
HETATM    6  C   UNL     1     -10.765  10.946  67.933  1.00  0.00    -0.231 C  
HETATM    7  O   UNL     1     -12.018  10.712  68.567  1.00  0.00    -0.743 OA 
HETATM    8  H   UNL     1     -11.946  11.026  69.461  1.00  0.00     0.000 HD 
BRANCH   6   9
HETATM    9  C   UNL     1     -10.384  12.409  68.016  1.00  0.00    -0.220 C  
HETATM   10  C   UNL     1      -9.312  13.001  67.465  1.00  0.00    -0.200 C  
BRANCH  10  11
HETATM   11  C   UNL     1      -8.909  14.438  67.719  1.00  0.00    -0.186 C  
HETATM   12  C   UNL     1      -7.383  14.525  67.938  1.00  0.00    -0.156 C  
HETATM   13  O   UNL     1      -7.010  14.148  69.256  1.00  0.00    -0.118 OA 
HETATM   14  C   UNL     1      -7.019  15.970  67.673  1.00  0.00    -0.179 C  
HETATM   15  H   UNL     1      -6.071  14.202  69.391  1.00  0.00     0.000 HD 
HETATM   16  C   UNL     1      -7.986  16.318  66.585  1.00  0.00    -0.289 C  
HETATM   17  O   UNL     1      -7.797  17.252  65.814  1.00  0.00    -0.495 OA 
HETATM   18  C   UNL     1      -9.207  15.410  66.552  1.00  0.00    -0.323 C  
BRANCH  18  19
HETATM   19  C   UNL     1     -10.521  16.181  66.785  1.00  0.00    -0.294 C  
BRANCH  19  20
HETATM   20  C   UNL     1     -10.610  16.865  68.156  1.00  0.00    -0.360 C  
BRANCH  20  21
HETATM   21  C   UNL     1     -11.658  16.209  69.058  1.00  0.00    -0.298 C  
BRANCH  21  22
HETATM   22  C   UNL     1     -10.993  15.336  70.127  1.00  0.00    -0.312 C  
BRANCH  22  23
HETATM   23  C   UNL     1     -12.023  14.765  71.102  1.00  0.00    -0.392 C  
BRANCH  23  24
HETATM   24  C   UNL     1     -12.653  15.860  71.964  1.00  0.00    -0.517 C  
HETATM   25  C   UNL     1     -12.605  15.509  73.434  1.00  0.00    -0.525 C  
HETATM   26  O   UNL     1     -12.128  14.490  73.903  1.00  0.00    -0.330 OA 
HETATM   27  O   UNL     1     -13.164  16.468  74.205  1.00  0.00    -0.567 OA 
ENDBRANCH  23  24
ENDBRANCH  22  23
ENDBRANCH  21  22
ENDBRANCH  20  21
ENDBRANCH  19  20
ENDBRANCH  18  19
ENDBRANCH  10  11
ENDBRANCH   6   9
ENDBRANCH   5   6
ENDBRANCH   4   5
ENDBRANCH   3   4
ENDBRANCH   2   3
TORSDOF 12
ENDMDL
MODEL      167
REMARK 921   NORMALIZED FREE ENERGY PREDICTED BY IDOCK:   -4.42 KCAL/MOL
REMARK 922        TOTAL FREE ENERGY PREDICTED BY IDOCK:   -9.47 KCAL/MOL
REMARK 923 INTER-LIGAND FREE ENERGY PREDICTED BY IDOCK:   -7.51 KCAL/MOL
REMARK 924 INTRA-LIGAND FREE ENERGY PREDICTED BY IDOCK:   -1.96 KCAL/MOL
REMARK 927      BINDING AFFINITY PREDICTED BY RF-SCORE:    0.00 PKD
ROOT
HETATM    1  C   UNL     1     -10.587  19.804  68.052  1.00  0.00    -0.439 C  
HETATM    2  C   UNL     1      -9.986  18.411  67.990  1.00  0.00    -0.374 C  
ENDROOT
BRANCH   2   3
HETATM    3  C   UNL     1      -8.457  18.443  68.043  1.00  0.00    -0.291 C  
BRANCH   3   4
HETATM    4  C   UNL     1      -7.881  17.261  67.266  1.00  0.00    -0.211 C  
BRANCH   4   5
HETATM    5  C   UNL     1      -6.882  16.446  68.090  1.00  0.00    -0.138 C  
BRANCH   5   6
HETATM    6  C   UNL     1      -7.547  15.329  68.914  1.00  0.00    -0.152 C  
HETATM    7  O   UNL     1      -6.621  14.250  68.987  1.00  0.00    -0.093 OA 
HETATM    8  H   UNL     1      -7.032  13.560  69.496  1.00  0.00     0.000 HD 
BRANCH   6   9
HETATM    9  C   UNL     1      -8.865  14.871  68.329  1.00  0.00    -0.172 C  
HETATM   10  C   UNL     1      -9.628  13.848  68.749  1.00  0.00    -0.073 C  
BRANCH  10  11
HETATM   11  C   UNL     1     -10.856  13.346  68.020  1.00  0.00    -0.264 C  
HETATM   12  C   UNL     1     -11.679  14.540  67.492  1.00  0.00    -0.386 C  
HETATM   13  O   UNL     1     -12.478  15.130  68.509  1.00  0.00    -0.525 OA 
HETATM   14  C   UNL     1     -12.549  13.976  66.389  1.00  0.00    -0.287 C  
HETATM   15  H   UNL     1     -12.985  15.865  68.184  1.00  0.00     0.000 HD 
HETATM   16  C   UNL     1     -11.644  12.935  65.810  1.00  0.00    -0.368 C  
HETATM   17  O   UNL     1     -11.787  12.502  64.672  1.00  0.00    -0.343 OA 
HETATM   18  C   UNL     1     -10.559  12.477  66.774  1.00  0.00    -0.253 C  
BRANCH  18  19
HETATM   19  C   UNL     1     -10.657  10.975  67.101  1.00  0.00    -0.294 C  
BRANCH  19  20
HETATM   20  C   UNL     1     -11.615  10.647  68.254  1.00  0.00    -0.245 C  
BRANCH  20  21
HETATM   21  C   UNL     1     -11.016   9.630  69.229  1.00  0.00    -0.194 C  
BRANCH  21  22
HETATM   22  C   UNL     1     -11.385   9.973  70.676  1.00  0.00    -0.425 C  
BRANCH  22  23
HETATM   23  C   UNL     1     -12.858  10.366  70.797  1.00  0.00    -0.450 C  
BRANCH  23  24
HETATM   24  C   UNL     1     -13.123  11.179  72.065  1.00  0.00    -0.433 C  
HETATM   25  C   UNL     1     -13.071  12.666  71.794  1.00  0.00    -0.360 C  
HETATM   26  O   UNL     1     -12.851  13.181  70.711  1.00  0.00    -0.210 OA 
HETATM   27  O   UNL     1     -13.299  13.395  72.910  1.00  0.00    -0.534 OA 
ENDBRANCH  23  24
ENDBRANCH  22  23
ENDBRANCH  21  22
ENDBRANCH  20  21
ENDBRANCH  19  20
ENDBRANCH  18  19
ENDBRANCH  10  11
ENDBRANCH   6   9
ENDBRANCH   5   6
ENDBRANCH   4   5
ENDBRANCH   3   4
ENDBRANCH   2   3
TORSDOF 12
ENDMDL
MODEL      168
REMARK 921   NORMALIZED FREE ENERGY PREDICTED BY IDOCK:   -4.42 KCAL/MOL
REMARK 922        TOTAL FREE ENERGY PREDICTED BY IDOCK:   -9.46 KCAL/MOL
REMARK 923 INTER-LIGAND FREE ENERGY PREDICTED BY IDOCK:   -7.67 KCAL/MOL
REMARK 924 INTRA-LIGAND FREE ENERGY PREDICTED BY IDOCK:   -1.79 KCAL/MOL
REMARK 927      BINDING AFFINITY PREDICTED BY RF-SCORE:    0.00 PKD
ROOT
HETATM    1  C   UNL     1      -9.151   8.588  72.159  1.00  0.00    -0.319 C  
HETATM    2  C   UNL     1     -10.663   8.560  72.030  1.00  0.00    -0.410 C  
ENDROOT
BRANCH   2   3
HETATM    3  C   UNL     1     -11.267   7.293  72.638  1.00  0.00    -0.355 C  
BRANCH   3   4
HETATM    4  C   UNL     1     -11.205   6.146  71.631  1.00  0.00    -0.342 C  
BRANCH   4   5
HETATM    5  C   UNL     1     -11.773   6.533  70.263  1.00  0.00    -0.430 C  
BRANCH   5   6
HETATM    6  C   UNL     1     -10.765   6.347  69.116  1.00  0.00    -0.284 C  
HETATM    7  O   UNL     1      -9.550   5.878  69.691  1.00  0.00    -0.143 OA 
HETATM    8  H   UNL     1      -8.928   5.762  68.982  1.00  0.00     0.000 HD 
BRANCH   6   9
HETATM    9  C   UNL     1     -10.532   7.615  68.324  1.00  0.00    -0.219 C  
HETATM   10  C   UNL     1      -9.364   8.248  68.130  1.00  0.00    -0.140 C  
BRANCH  10  11
HETATM   11  C   UNL     1      -9.228   9.599  67.460  1.00  0.00    -0.149 C  
HETATM   12  C   UNL     1      -8.731   9.419  66.010  1.00  0.00    -0.150 C  
HETATM   13  O   UNL     1      -7.327   9.205  65.949  1.00  0.00    -0.091 OA 
HETATM   14  C   UNL     1      -9.108  10.696  65.291  1.00  0.00    -0.221 C  
HETATM   15  H   UNL     1      -7.021   9.095  65.056  1.00  0.00     0.000 HD 
HETATM   16  C   UNL     1     -10.400  11.037  65.966  1.00  0.00    -0.254 C  
HETATM   17  O   UNL     1     -11.235  11.770  65.450  1.00  0.00    -0.304 OA 
HETATM   18  C   UNL     1     -10.549  10.397  67.339  1.00  0.00    -0.321 C  
BRANCH  18  19
HETATM   19  C   UNL     1     -10.679  11.440  68.465  1.00  0.00    -0.235 C  
BRANCH  19  20
HETATM   20  C   UNL     1     -11.236  10.876  69.779  1.00  0.00    -0.351 C  
BRANCH  20  21
HETATM   21  C   UNL     1     -12.572  11.521  70.161  1.00  0.00    -0.145 C  
BRANCH  21  22
HETATM   22  C   UNL     1     -12.679  11.703  71.678  1.00  0.00    -0.375 C  
BRANCH  22  23
HETATM   23  C   UNL     1     -13.396  13.005  72.034  1.00  0.00    -0.588 C  
BRANCH  23  24
HETATM   24  C   UNL     1     -12.643  14.228  71.506  1.00  0.00    -0.432 C  
HETATM   25  C   UNL     1     -12.360  15.225  72.607  1.00  0.00    -0.386 C  
HETATM   26  O   UNL     1     -12.676  15.098  73.777  1.00  0.00    -0.531 OA 
HETATM   27  O   UNL     1     -11.699  16.313  72.149  1.00  0.00    -0.495 OA 
ENDBRANCH  23  24
ENDBRANCH  22  23
ENDBRANCH  21  22
ENDBRANCH  20  21
ENDBRANCH  19  20
ENDBRANCH  18  19
ENDBRANCH  10  11
ENDBRANCH   6   9
ENDBRANCH   5   6
ENDBRANCH   4   5
ENDBRANCH   3   4
ENDBRANCH   2   3
TORSDOF 12
ENDMDL
MODEL      169
REMARK 921   NORMALIZED FREE ENERGY PREDICTED BY IDOCK:   -4.41 KCAL/MOL
REMARK 922        TOTAL FREE ENERGY PREDICTED BY IDOCK:   -9.45 KCAL/MOL
REMARK 923 INTER-LIGAND FREE ENERGY PREDICTED BY IDOCK:   -6.56 KCAL/MOL
REMARK 924 INTRA-LIGAND FREE ENERGY PREDICTED BY IDOCK:   -2.89 KCAL/MOL
REMARK 927      BINDING AFFINITY PREDICTED BY RF-SCORE:    0.00 PKD
ROOT
HETATM    1  C   UNL     1     -10.143  11.916  63.530  1.00  0.00    -0.464 C  
HETATM    2  C   UNL     1     -11.566  11.975  63.004  1.00  0.00    -0.067 C  
ENDROOT
BRANCH   2   3
HETATM    3  C   UNL     1     -12.360  13.127  63.623  1.00  0.00    -0.482 C  
BRANCH   3   4
HETATM    4  C   UNL     1     -11.465  13.936  64.561  1.00  0.00    -0.393 C  
BRANCH   4   5
HETATM    5  C   UNL     1     -12.232  14.520  65.749  1.00  0.00    -0.270 C  
BRANCH   5   6
HETATM    6  C   UNL     1     -12.517  13.486  66.852  1.00  0.00    -0.110 C  
HETATM    7  O   UNL     1     -12.478  14.175  68.098  1.00  0.00    -0.541 OA 
HETATM    8  H   UNL     1     -12.654  13.536  68.779  1.00  0.00     0.000 HD 
BRANCH   6   9
HETATM    9  C   UNL     1     -11.540  12.331  66.843  1.00  0.00    -0.427 C  
HETATM   10  C   UNL     1     -11.324  11.442  67.827  1.00  0.00    -0.354 C  
BRANCH  10  11
HETATM   11  C   UNL     1     -10.220  10.407  67.812  1.00  0.00    -0.229 C  
HETATM   12  C   UNL     1     -10.819   8.995  67.981  1.00  0.00    -0.041 C  
HETATM   13  O   UNL     1     -11.125   8.704  69.339  1.00  0.00    -0.430 OA 
HETATM   14  C   UNL     1      -9.767   8.043  67.455  1.00  0.00    -0.216 C  
HETATM   15  H   UNL     1     -11.494   7.835  69.442  1.00  0.00     0.000 HD 
HETATM   16  C   UNL     1      -9.177   8.851  66.342  1.00  0.00    -0.189 C  
HETATM   17  O   UNL     1      -8.564   8.337  65.413  1.00  0.00    -0.167 OA 
HETATM   18  C   UNL     1      -9.407  10.347  66.496  1.00  0.00    -0.193 C  
BRANCH  18  19
HETATM   19  C   UNL     1      -8.089  11.137  66.613  1.00  0.00    -0.159 C  
BRANCH  19  20
HETATM   20  C   UNL     1      -7.625  11.369  68.058  1.00  0.00    -0.110 C  
BRANCH  20  21
HETATM   21  C   UNL     1      -7.325  12.844  68.335  1.00  0.00    -0.119 C  
BRANCH  21  22
HETATM   22  C   UNL     1      -8.071  13.751  67.352  1.00  0.00    -0.188 C  
BRANCH  22  23
HETATM   23  C   UNL     1      -9.083  14.642  68.072  1.00  0.00    -0.189 C  
BRANCH  23  24
HETATM   24  C   UNL     1      -9.208  16.011  67.402  1.00  0.00    -0.214 C  
HETATM   25  C   UNL     1     -10.322  16.831  68.014  1.00  0.00    -0.317 C  
HETATM   26  O   UNL     1     -11.044  16.474  68.928  1.00  0.00    -0.329 OA 
HETATM   27  O   UNL     1     -10.445  18.042  67.424  1.00  0.00    -0.369 OA 
ENDBRANCH  23  24
ENDBRANCH  22  23
ENDBRANCH  21  22
ENDBRANCH  20  21
ENDBRANCH  19  20
ENDBRANCH  18  19
ENDBRANCH  10  11
ENDBRANCH   6   9
ENDBRANCH   5   6
ENDBRANCH   4   5
ENDBRANCH   3   4
ENDBRANCH   2   3
TORSDOF 12
ENDMDL
MODEL      170
REMARK 921   NORMALIZED FREE ENERGY PREDICTED BY IDOCK:   -4.39 KCAL/MOL
REMARK 922        TOTAL FREE ENERGY PREDICTED BY IDOCK:   -9.41 KCAL/MOL
REMARK 923 INTER-LIGAND FREE ENERGY PREDICTED BY IDOCK:   -7.37 KCAL/MOL
REMARK 924 INTRA-LIGAND FREE ENERGY PREDICTED BY IDOCK:   -2.04 KCAL/MOL
REMARK 927      BINDING AFFINITY PREDICTED BY RF-SCORE:    0.00 PKD
ROOT
HETATM    1  C   UNL     1     -11.612  12.412  63.787  1.00  0.00    -0.553 C  
HETATM    2  C   UNL     1     -10.461  11.434  63.936  1.00  0.00    -0.444 C  
ENDROOT
BRANCH   2   3
HETATM    3  C   UNL     1     -10.304  10.948  65.378  1.00  0.00    -0.326 C  
BRANCH   3   4
HETATM    4  C   UNL     1      -9.492  11.958  66.187  1.00  0.00    -0.243 C  
BRANCH   4   5
HETATM    5  C   UNL     1     -10.018  12.128  67.614  1.00  0.00    -0.199 C  
BRANCH   5   6
HETATM    6  C   UNL     1     -11.543  11.956  67.720  1.00  0.00    -0.323 C  
HETATM    7  O   UNL     1     -12.122  13.255  67.647  1.00  0.00    -0.335 OA 
HETATM    8  H   UNL     1     -13.065  13.148  67.713  1.00  0.00     0.000 HD 
BRANCH   6   9
HETATM    9  C   UNL     1     -11.969  11.247  68.988  1.00  0.00    -0.393 C  
HETATM   10  C   UNL     1     -11.175  10.799  69.974  1.00  0.00    -0.366 C  
BRANCH  10  11
HETATM   11  C   UNL     1     -11.654   9.959  71.138  1.00  0.00    -0.468 C  
HETATM   12  C   UNL     1     -13.109  10.331  71.493  1.00  0.00    -0.433 C  
HETATM   13  O   UNL     1     -13.182  11.518  72.271  1.00  0.00    -0.592 OA 
HETATM   14  C   UNL     1     -13.651   9.150  72.268  1.00  0.00    -0.548 C  
HETATM   15  H   UNL     1     -14.078  11.747  72.490  1.00  0.00     0.000 HD 
HETATM   16  C   UNL     1     -12.950   8.013  71.592  1.00  0.00    -0.328 C  
HETATM   17  O   UNL     1     -13.372   6.863  71.638  1.00  0.00    -0.341 OA 
HETATM   18  C   UNL     1     -11.680   8.434  70.868  1.00  0.00    -0.269 C  
BRANCH  18  19
HETATM   19  C   UNL     1     -10.424   7.743  71.431  1.00  0.00    -0.237 C  
BRANCH  19  20
HETATM   20  C   UNL     1      -9.441   8.697  72.123  1.00  0.00    -0.373 C  
BRANCH  20  21
HETATM   21  C   UNL     1      -8.041   8.628  71.507  1.00  0.00    -0.188 C  
BRANCH  21  22
HETATM   22  C   UNL     1      -8.071   7.900  70.159  1.00  0.00    -0.116 C  
BRANCH  22  23
HETATM   23  C   UNL     1      -7.154   8.576  69.140  1.00  0.00    -0.064 C  
BRANCH  23  24
HETATM   24  C   UNL     1      -7.547  10.036  68.907  1.00  0.00    -0.086 C  
HETATM   25  C   UNL     1      -6.340  10.895  68.602  1.00  0.00    -0.050 C  
HETATM   26  O   UNL     1      -5.188  10.503  68.541  1.00  0.00    -0.038 OA 
HETATM   27  O   UNL     1      -6.676  12.189  68.399  1.00  0.00    -0.054 OA 
ENDBRANCH  23  24
ENDBRANCH  22  23
ENDBRANCH  21  22
ENDBRANCH  20  21
ENDBRANCH  19  20
ENDBRANCH  18  19
ENDBRANCH  10  11
ENDBRANCH   6   9
ENDBRANCH   5   6
ENDBRANCH   4   5
ENDBRANCH   3   4
ENDBRANCH   2   3
TORSDOF 12
ENDMDL
MODEL      171
REMARK 921   NORMALIZED FREE ENERGY PREDICTED BY IDOCK:   -4.38 KCAL/MOL
REMARK 922        TOTAL FREE ENERGY PREDICTED BY IDOCK:   -9.41 KCAL/MOL
REMARK 923 INTER-LIGAND FREE ENERGY PREDICTED BY IDOCK:   -7.73 KCAL/MOL
REMARK 924 INTRA-LIGAND FREE ENERGY PREDICTED BY IDOCK:   -1.67 KCAL/MOL
REMARK 927      BINDING AFFINITY PREDICTED BY RF-SCORE:    0.00 PKD
ROOT
HETATM    1  C   UNL     1     -10.930   6.404  71.855  1.00  0.00    -0.295 C  
HETATM    2  C   UNL     1     -11.215   7.849  71.489  1.00  0.00    -0.286 C  
ENDROOT
BRANCH   2   3
HETATM    3  C   UNL     1     -10.031   8.766  71.807  1.00  0.00    -0.396 C  
BRANCH   3   4
HETATM    4  C   UNL     1      -9.654   9.581  70.571  1.00  0.00    -0.312 C  
BRANCH   4   5
HETATM    5  C   UNL     1     -10.777   9.631  69.533  1.00  0.00    -0.252 C  
BRANCH   5   6
HETATM    6  C   UNL     1     -11.603  10.927  69.597  1.00  0.00    -0.322 C  
HETATM    7  O   UNL     1     -12.973  10.563  69.463  1.00  0.00    -0.602 OA 
HETATM    8  H   UNL     1     -13.483  11.364  69.502  1.00  0.00     0.000 HD 
BRANCH   6   9
HETATM    9  C   UNL     1     -11.205  11.932  68.539  1.00  0.00    -0.308 C  
HETATM   10  C   UNL     1     -11.780  12.119  67.339  1.00  0.00    -0.374 C  
BRANCH  10  11
HETATM   11  C   UNL     1     -11.233  13.035  66.265  1.00  0.00    -0.332 C  
HETATM   12  C   UNL     1     -12.388  13.798  65.585  1.00  0.00    -0.482 C  
HETATM   13  O   UNL     1     -13.058  13.002  64.617  1.00  0.00    -0.723 OA 
HETATM   14  C   UNL     1     -11.747  15.005  64.933  1.00  0.00    -0.336 C  
HETATM   15  H   UNL     1     -13.769  13.472  64.198  1.00  0.00     0.000 HD 
HETATM   16  C   UNL     1     -10.660  15.319  65.912  1.00  0.00    -0.335 C  
HETATM   17  O   UNL     1     -10.144  16.429  65.983  1.00  0.00    -0.316 OA 
HETATM   18  C   UNL     1     -10.270  14.133  66.780  1.00  0.00    -0.262 C  
BRANCH  18  19
HETATM   19  C   UNL     1      -8.797  13.722  66.589  1.00  0.00    -0.089 C  
BRANCH  19  20
HETATM   20  C   UNL     1      -8.250  12.819  67.703  1.00  0.00    -0.175 C  
BRANCH  20  21
HETATM   21  C   UNL     1      -7.585  11.557  67.145  1.00  0.00    -0.149 C  
BRANCH  21  22
HETATM   22  C   UNL     1      -8.543  10.793  66.226  1.00  0.00    -0.163 C  
BRANCH  22  23
HETATM   23  C   UNL     1      -8.548   9.298  66.543  1.00  0.00    -0.139 C  
BRANCH  23  24
HETATM   24  C   UNL     1      -9.939   8.686  66.367  1.00  0.00    -0.331 C  
HETATM   25  C   UNL     1     -10.050   7.347  67.060  1.00  0.00    -0.258 C  
HETATM   26  O   UNL     1      -9.162   6.799  67.690  1.00  0.00    -0.120 OA 
HETATM   27  O   UNL     1     -11.275   6.795  66.906  1.00  0.00    -0.375 OA 
ENDBRANCH  23  24
ENDBRANCH  22  23
ENDBRANCH  21  22
ENDBRANCH  20  21
ENDBRANCH  19  20
ENDBRANCH  18  19
ENDBRANCH  10  11
ENDBRANCH   6   9
ENDBRANCH   5   6
ENDBRANCH   4   5
ENDBRANCH   3   4
ENDBRANCH   2   3
TORSDOF 12
ENDMDL
MODEL      172
REMARK 921   NORMALIZED FREE ENERGY PREDICTED BY IDOCK:   -4.38 KCAL/MOL
REMARK 922        TOTAL FREE ENERGY PREDICTED BY IDOCK:   -9.40 KCAL/MOL
REMARK 923 INTER-LIGAND FREE ENERGY PREDICTED BY IDOCK:   -6.89 KCAL/MOL
REMARK 924 INTRA-LIGAND FREE ENERGY PREDICTED BY IDOCK:   -2.51 KCAL/MOL
REMARK 927      BINDING AFFINITY PREDICTED BY RF-SCORE:    0.00 PKD
ROOT
HETATM    1  C   UNL     1      -9.971  10.455  64.571  1.00  0.00    -0.401 C  
HETATM    2  C   UNL     1      -8.786  10.542  65.517  1.00  0.00    -0.200 C  
ENDROOT
BRANCH   2   3
HETATM    3  C   UNL     1      -7.505   9.996  64.883  1.00  0.00    -0.140 C  
BRANCH   3   4
HETATM    4  C   UNL     1      -6.822   9.020  65.840  1.00  0.00    -0.080 C  
BRANCH   4   5
HETATM    5  C   UNL     1      -6.821   7.583  65.314  1.00  0.00    -0.048 C  
BRANCH   5   6
HETATM    6  C   UNL     1      -8.000   6.746  65.839  1.00  0.00    -0.112 C  
HETATM    7  O   UNL     1      -9.012   6.767  64.838  1.00  0.00    -0.303 OA 
HETATM    8  H   UNL     1      -9.741   6.250  65.162  1.00  0.00     0.000 HD 
BRANCH   6   9
HETATM    9  C   UNL     1      -8.539   7.251  67.160  1.00  0.00    -0.121 C  
HETATM   10  C   UNL     1      -9.827   7.380  67.516  1.00  0.00    -0.203 C  
BRANCH  10  11
HETATM   11  C   UNL     1     -10.296   8.040  68.795  1.00  0.00    -0.223 C  
HETATM   12  C   UNL     1     -10.673   6.964  69.835  1.00  0.00    -0.246 C  
HETATM   13  O   UNL     1     -11.965   6.421  69.597  1.00  0.00    -0.535 OA 
HETATM   14  C   UNL     1     -10.626   7.663  71.177  1.00  0.00    -0.235 C  
HETATM   15  H   UNL     1     -12.198   5.759  70.238  1.00  0.00     0.000 HD 
HETATM   16  C   UNL     1      -9.499   8.624  70.962  1.00  0.00    -0.207 C  
HETATM   17  O   UNL     1      -8.872   9.117  71.893  1.00  0.00    -0.340 OA 
HETATM   18  C   UNL     1      -9.233   8.923  69.494  1.00  0.00    -0.150 C  
BRANCH  18  19
HETATM   19  C   UNL     1      -9.429  10.413  69.151  1.00  0.00    -0.220 C  
BRANCH  19  20
HETATM   20  C   UNL     1     -10.894  10.869  69.157  1.00  0.00    -0.280 C  
BRANCH  20  21
HETATM   21  C   UNL     1     -11.174  11.917  68.076  1.00  0.00    -0.317 C  
BRANCH  21  22
HETATM   22  C   UNL     1     -11.631  13.239  68.700  1.00  0.00    -0.362 C  
BRANCH  22  23
HETATM   23  C   UNL     1     -11.929  14.288  67.628  1.00  0.00    -0.400 C  
BRANCH  23  24
HETATM   24  C   UNL     1     -11.254  13.946  66.299  1.00  0.00    -0.310 C  
HETATM   25  C   UNL     1     -12.256  13.862  65.171  1.00  0.00    -0.427 C  
HETATM   26  O   UNL     1     -13.458  14.041  65.275  1.00  0.00    -0.622 OA 
HETATM   27  O   UNL     1     -11.670  13.555  63.992  1.00  0.00    -0.409 OA 
ENDBRANCH  23  24
ENDBRANCH  22  23
ENDBRANCH  21  22
ENDBRANCH  20  21
ENDBRANCH  19  20
ENDBRANCH  18  19
ENDBRANCH  10  11
ENDBRANCH   6   9
ENDBRANCH   5   6
ENDBRANCH   4   5
ENDBRANCH   3   4
ENDBRANCH   2   3
TORSDOF 12
ENDMDL
MODEL      173
REMARK 921   NORMALIZED FREE ENERGY PREDICTED BY IDOCK:   -4.37 KCAL/MOL
REMARK 922        TOTAL FREE ENERGY PREDICTED BY IDOCK:   -9.38 KCAL/MOL
REMARK 923 INTER-LIGAND FREE ENERGY PREDICTED BY IDOCK:   -6.68 KCAL/MOL
REMARK 924 INTRA-LIGAND FREE ENERGY PREDICTED BY IDOCK:   -2.70 KCAL/MOL
REMARK 927      BINDING AFFINITY PREDICTED BY RF-SCORE:    0.00 PKD
ROOT
HETATM    1  C   UNL     1     -12.717  13.962  65.726  1.00  0.00    -0.503 C  
HETATM    2  C   UNL     1     -11.987  13.705  64.420  1.00  0.00    -0.476 C  
ENDROOT
BRANCH   2   3
HETATM    3  C   UNL     1     -12.376  12.360  63.801  1.00  0.00    -0.625 C  
BRANCH   3   4
HETATM    4  C   UNL     1     -11.121  11.562  63.453  1.00  0.00    -0.370 C  
BRANCH   4   5
HETATM    5  C   UNL     1      -9.946  11.877  64.381  1.00  0.00    -0.260 C  
BRANCH   5   6
HETATM    6  C   UNL     1      -9.428  10.643  65.140  1.00  0.00    -0.227 C  
HETATM    7  O   UNL     1      -9.784   9.496  64.377  1.00  0.00    -0.381 OA 
HETATM    8  H   UNL     1      -9.464   8.734  64.846  1.00  0.00     0.000 HD 
BRANCH   6   9
HETATM    9  C   UNL     1      -9.974  10.545  66.548  1.00  0.00    -0.266 C  
HETATM   10  C   UNL     1     -10.278  11.560  67.374  1.00  0.00    -0.228 C  
BRANCH  10  11
HETATM   11  C   UNL     1     -10.671  11.388  68.825  1.00  0.00    -0.240 C  
HETATM   12  C   UNL     1     -11.532  12.585  69.283  1.00  0.00    -0.293 C  
HETATM   13  O   UNL     1     -10.741  13.725  69.593  1.00  0.00    -0.447 OA 
HETATM   14  C   UNL     1     -12.277  12.102  70.509  1.00  0.00    -0.392 C  
HETATM   15  H   UNL     1     -11.271  14.461  69.875  1.00  0.00     0.000 HD 
HETATM   16  C   UNL     1     -12.505  10.664  70.161  1.00  0.00    -0.270 C  
HETATM   17  O   UNL     1     -13.389   9.996  70.685  1.00  0.00    -0.294 OA 
HETATM   18  C   UNL     1     -11.531  10.135  69.119  1.00  0.00    -0.155 C  
BRANCH  18  19
HETATM   19  C   UNL     1     -10.669   8.975  69.653  1.00  0.00    -0.228 C  
BRANCH  19  20
HETATM   20  C   UNL     1      -9.655   9.393  70.727  1.00  0.00    -0.322 C  
BRANCH  20  21
HETATM   21  C   UNL     1      -8.270   8.791  70.474  1.00  0.00    -0.140 C  
BRANCH  21  22
HETATM   22  C   UNL     1      -7.936   8.792  68.979  1.00  0.00    -0.111 C  
BRANCH  22  23
HETATM   23  C   UNL     1      -6.709   9.654  68.681  1.00  0.00    -0.052 C  
BRANCH  23  24
HETATM   24  C   UNL     1      -6.939  11.116  69.065  1.00  0.00    -0.101 C  
HETATM   25  C   UNL     1      -6.608  12.050  67.923  1.00  0.00    -0.076 C  
HETATM   26  O   UNL     1      -6.208  11.710  66.823  1.00  0.00    -0.143 OA 
HETATM   27  O   UNL     1      -6.802  13.347  68.254  1.00  0.00    -0.084 OA 
ENDBRANCH  23  24
ENDBRANCH  22  23
ENDBRANCH  21  22
ENDBRANCH  20  21
ENDBRANCH  19  20
ENDBRANCH  18  19
ENDBRANCH  10  11
ENDBRANCH   6   9
ENDBRANCH   5   6
ENDBRANCH   4   5
ENDBRANCH   3   4
ENDBRANCH   2   3
TORSDOF 12
ENDMDL
MODEL      174
REMARK 921   NORMALIZED FREE ENERGY PREDICTED BY IDOCK:   -4.37 KCAL/MOL
REMARK 922        TOTAL FREE ENERGY PREDICTED BY IDOCK:   -9.38 KCAL/MOL
REMARK 923 INTER-LIGAND FREE ENERGY PREDICTED BY IDOCK:   -8.05 KCAL/MOL
REMARK 924 INTRA-LIGAND FREE ENERGY PREDICTED BY IDOCK:   -1.33 KCAL/MOL
REMARK 927      BINDING AFFINITY PREDICTED BY RF-SCORE:    0.00 PKD
ROOT
HETATM    1  C   UNL     1     -10.680  19.187  67.224  1.00  0.00    -0.585 C  
HETATM    2  C   UNL     1      -9.994  18.545  68.416  1.00  0.00    -0.414 C  
ENDROOT
BRANCH   2   3
HETATM    3  C   UNL     1      -9.355  17.202  68.055  1.00  0.00    -0.254 C  
BRANCH   3   4
HETATM    4  C   UNL     1      -9.713  16.152  69.106  1.00  0.00    -0.248 C  
BRANCH   4   5
HETATM    5  C   UNL     1     -11.106  16.366  69.701  1.00  0.00    -0.306 C  
BRANCH   5   6
HETATM    6  C   UNL     1     -11.908  15.062  69.846  1.00  0.00    -0.324 C  
HETATM    7  O   UNL     1     -11.714  14.591  71.176  1.00  0.00    -0.427 OA 
HETATM    8  H   UNL     1     -12.209  13.784  71.265  1.00  0.00     0.000 HD 
BRANCH   6   9
HETATM    9  C   UNL     1     -11.507  14.008  68.837  1.00  0.00    -0.331 C  
HETATM   10  C   UNL     1     -11.844  12.708  68.843  1.00  0.00    -0.345 C  
BRANCH  10  11
HETATM   11  C   UNL     1     -11.278  11.677  67.889  1.00  0.00    -0.334 C  
HETATM   12  C   UNL     1     -11.148  12.284  66.475  1.00  0.00    -0.299 C  
HETATM   13  O   UNL     1     -12.389  12.298  65.783  1.00  0.00    -0.622 OA 
HETATM   14  C   UNL     1     -10.143  11.412  65.753  1.00  0.00    -0.289 C  
HETATM   15  H   UNL     1     -12.309  12.671  64.913  1.00  0.00     0.000 HD 
HETATM   16  C   UNL     1      -9.219  11.047  66.872  1.00  0.00    -0.155 C  
HETATM   17  O   UNL     1      -8.068  10.674  66.675  1.00  0.00    -0.126 OA 
HETATM   18  C   UNL     1      -9.858  11.175  68.247  1.00  0.00    -0.195 C  
BRANCH  18  19
HETATM   19  C   UNL     1      -9.911   9.832  69.000  1.00  0.00    -0.183 C  
BRANCH  19  20
HETATM   20  C   UNL     1     -11.194   9.622  69.815  1.00  0.00    -0.208 C  
BRANCH  20  21
HETATM   21  C   UNL     1     -10.918   9.579  71.320  1.00  0.00    -0.440 C  
BRANCH  21  22
HETATM   22  C   UNL     1     -12.161   9.126  72.092  1.00  0.00    -0.408 C  
BRANCH  22  23
HETATM   23  C   UNL     1     -12.681   7.785  71.575  1.00  0.00    -0.355 C  
BRANCH  23  24
HETATM   24  C   UNL     1     -11.736   6.636  71.931  1.00  0.00    -0.355 C  
HETATM   25  C   UNL     1     -11.204   5.949  70.693  1.00  0.00    -0.214 C  
HETATM   26  O   UNL     1     -11.475   6.250  69.543  1.00  0.00    -0.428 OA 
HETATM   27  O   UNL     1     -10.372   4.927  70.997  1.00  0.00    -0.208 OA 
ENDBRANCH  23  24
ENDBRANCH  22  23
ENDBRANCH  21  22
ENDBRANCH  20  21
ENDBRANCH  19  20
ENDBRANCH  18  19
ENDBRANCH  10  11
ENDBRANCH   6   9
ENDBRANCH   5   6
ENDBRANCH   4   5
ENDBRANCH   3   4
ENDBRANCH   2   3
TORSDOF 12
ENDMDL
MODEL      175
REMARK 921   NORMALIZED FREE ENERGY PREDICTED BY IDOCK:   -4.36 KCAL/MOL
REMARK 922        TOTAL FREE ENERGY PREDICTED BY IDOCK:   -9.38 KCAL/MOL
REMARK 923 INTER-LIGAND FREE ENERGY PREDICTED BY IDOCK:   -7.94 KCAL/MOL
REMARK 924 INTRA-LIGAND FREE ENERGY PREDICTED BY IDOCK:   -1.44 KCAL/MOL
REMARK 927      BINDING AFFINITY PREDICTED BY RF-SCORE:    0.00 PKD
ROOT
HETATM    1  C   UNL     1      -8.441   9.477  67.783  1.00  0.00    -0.119 C  
HETATM    2  C   UNL     1      -7.927  10.660  66.983  1.00  0.00    -0.121 C  
ENDROOT
BRANCH   2   3
HETATM    3  C   UNL     1      -8.308  10.562  65.505  1.00  0.00    -0.170 C  
BRANCH   3   4
HETATM    4  C   UNL     1      -9.824  10.434  65.361  1.00  0.00    -0.347 C  
BRANCH   4   5
HETATM    5  C   UNL     1     -10.337  10.978  64.026  1.00  0.00    -0.436 C  
BRANCH   5   6
HETATM    6  C   UNL     1     -11.431  12.047  64.188  1.00  0.00    -0.383 C  
HETATM    7  O   UNL     1     -11.365  12.897  63.048  1.00  0.00    -0.721 OA 
HETATM    8  H   UNL     1     -12.041  13.558  63.148  1.00  0.00     0.000 HD 
BRANCH   6   9
HETATM    9  C   UNL     1     -11.289  12.846  65.465  1.00  0.00    -0.340 C  
HETATM   10  C   UNL     1     -10.828  14.102  65.591  1.00  0.00    -0.306 C  
BRANCH  10  11
HETATM   11  C   UNL     1     -10.565  14.784  66.916  1.00  0.00    -0.294 C  
HETATM   12  C   UNL     1     -10.607  16.316  66.737  1.00  0.00    -0.257 C  
HETATM   13  O   UNL     1      -9.397  16.824  66.193  1.00  0.00    -0.319 OA 
HETATM   14  C   UNL     1     -10.848  16.878  68.122  1.00  0.00    -0.351 C  
HETATM   15  H   UNL     1      -9.423  17.767  66.083  1.00  0.00     0.000 HD 
HETATM   16  C   UNL     1     -11.731  15.825  68.713  1.00  0.00    -0.378 C  
HETATM   17  O   UNL     1     -12.468  16.047  69.667  1.00  0.00    -0.137 OA 
HETATM   18  C   UNL     1     -11.606  14.476  68.020  1.00  0.00    -0.364 C  
BRANCH  18  19
HETATM   19  C   UNL     1     -11.106  13.370  68.970  1.00  0.00    -0.293 C  
BRANCH  19  20
HETATM   20  C   UNL     1     -12.077  13.040  70.112  1.00  0.00    -0.377 C  
BRANCH  20  21
HETATM   21  C   UNL     1     -12.124  11.540  70.412  1.00  0.00    -0.471 C  
BRANCH  21  22
HETATM   22  C   UNL     1     -10.853  10.841  69.917  1.00  0.00    -0.264 C  
BRANCH  22  23
HETATM   23  C   UNL     1     -10.360   9.802  70.924  1.00  0.00    -0.245 C  
BRANCH  23  24
HETATM   24  C   UNL     1     -11.493   8.888  71.394  1.00  0.00    -0.381 C  
HETATM   25  C   UNL     1     -11.512   7.586  70.626  1.00  0.00    -0.269 C  
HETATM   26  O   UNL     1     -10.735   7.274  69.740  1.00  0.00    -0.231 OA 
HETATM   27  O   UNL     1     -12.514   6.772  71.030  1.00  0.00    -0.367 OA 
ENDBRANCH  23  24
ENDBRANCH  22  23
ENDBRANCH  21  22
ENDBRANCH  20  21
ENDBRANCH  19  20
ENDBRANCH  18  19
ENDBRANCH  10  11
ENDBRANCH   6   9
ENDBRANCH   5   6
ENDBRANCH   4   5
ENDBRANCH   3   4
ENDBRANCH   2   3
TORSDOF 12
ENDMDL
MODEL      176
REMARK 921   NORMALIZED FREE ENERGY PREDICTED BY IDOCK:   -4.35 KCAL/MOL
REMARK 922        TOTAL FREE ENERGY PREDICTED BY IDOCK:   -9.35 KCAL/MOL
REMARK 923 INTER-LIGAND FREE ENERGY PREDICTED BY IDOCK:   -7.98 KCAL/MOL
REMARK 924 INTRA-LIGAND FREE ENERGY PREDICTED BY IDOCK:   -1.37 KCAL/MOL
REMARK 927      BINDING AFFINITY PREDICTED BY RF-SCORE:    0.00 PKD
ROOT
HETATM    1  C   UNL     1      -5.776  20.740  68.723  1.00  0.00    -0.398 C  
HETATM    2  C   UNL     1      -6.443  19.576  69.433  1.00  0.00    -0.364 C  
ENDROOT
BRANCH   2   3
HETATM    3  C   UNL     1      -7.307  18.742  68.484  1.00  0.00    -0.324 C  
BRANCH   3   4
HETATM    4  C   UNL     1      -8.284  19.646  67.735  1.00  0.00    -0.337 C  
BRANCH   4   5
HETATM    5  C   UNL     1      -8.864  18.979  66.486  1.00  0.00    -0.334 C  
BRANCH   5   6
HETATM    6  C   UNL     1     -10.339  18.574  66.647  1.00  0.00    -0.408 C  
HETATM    7  O   UNL     1     -11.008  19.657  67.286  1.00  0.00    -0.464 OA 
HETATM    8  H   UNL     1     -11.919  19.407  67.386  1.00  0.00     0.000 HD 
BRANCH   6   9
HETATM    9  C   UNL     1     -10.517  17.292  67.430  1.00  0.00    -0.338 C  
HETATM   10  C   UNL     1     -10.764  17.171  68.745  1.00  0.00    -0.289 C  
BRANCH  10  11
HETATM   11  C   UNL     1     -10.774  15.855  69.492  1.00  0.00    -0.288 C  
HETATM   12  C   UNL     1     -12.003  15.787  70.423  1.00  0.00    -0.359 C  
HETATM   13  O   UNL     1     -11.801  16.513  71.628  1.00  0.00    -0.665 OA 
HETATM   14  C   UNL     1     -12.209  14.316  70.714  1.00  0.00    -0.423 C  
HETATM   15  H   UNL     1     -12.558  16.471  72.201  1.00  0.00     0.000 HD 
HETATM   16  C   UNL     1     -11.790  13.703  69.414  1.00  0.00    -0.339 C  
HETATM   17  O   UNL     1     -12.151  12.582  69.072  1.00  0.00    -0.259 OA 
HETATM   18  C   UNL     1     -10.878  14.600  68.591  1.00  0.00    -0.261 C  
BRANCH  18  19
HETATM   19  C   UNL     1      -9.494  13.968  68.347  1.00  0.00    -0.213 C  
BRANCH  19  20
HETATM   20  C   UNL     1      -9.176  13.711  66.868  1.00  0.00    -0.257 C  
BRANCH  20  21
HETATM   21  C   UNL     1      -9.338  12.236  66.493  1.00  0.00    -0.230 C  
BRANCH  21  22
HETATM   22  C   UNL     1     -10.529  12.038  65.550  1.00  0.00    -0.307 C  
BRANCH  22  23
HETATM   23  C   UNL     1     -10.349  10.796  64.677  1.00  0.00    -0.394 C  
BRANCH  23  24
HETATM   24  C   UNL     1      -9.443  11.075  63.476  1.00  0.00    -0.315 C  
HETATM   25  C   UNL     1      -8.173  10.256  63.535  1.00  0.00    -0.159 C  
HETATM   26  O   UNL     1      -7.881   9.463  64.413  1.00  0.00    -0.112 OA 
HETATM   27  O   UNL     1      -7.362  10.500  62.481  1.00  0.00    -0.142 OA 
ENDBRANCH  23  24
ENDBRANCH  22  23
ENDBRANCH  21  22
ENDBRANCH  20  21
ENDBRANCH  19  20
ENDBRANCH  18  19
ENDBRANCH  10  11
ENDBRANCH   6   9
ENDBRANCH   5   6
ENDBRANCH   4   5
ENDBRANCH   3   4
ENDBRANCH   2   3
TORSDOF 12
ENDMDL
MODEL      177
REMARK 921   NORMALIZED FREE ENERGY PREDICTED BY IDOCK:   -4.34 KCAL/MOL
REMARK 922        TOTAL FREE ENERGY PREDICTED BY IDOCK:   -9.33 KCAL/MOL
REMARK 923 INTER-LIGAND FREE ENERGY PREDICTED BY IDOCK:   -8.04 KCAL/MOL
REMARK 924 INTRA-LIGAND FREE ENERGY PREDICTED BY IDOCK:   -1.29 KCAL/MOL
REMARK 927      BINDING AFFINITY PREDICTED BY RF-SCORE:    0.00 PKD
ROOT
HETATM    1  C   UNL     1      -7.419  10.302  65.499  1.00  0.00    -0.149 C  
HETATM    2  C   UNL     1      -8.571   9.705  64.711  1.00  0.00    -0.197 C  
ENDROOT
BRANCH   2   3
HETATM    3  C   UNL     1      -9.671   9.163  65.625  1.00  0.00    -0.247 C  
BRANCH   3   4
HETATM    4  C   UNL     1      -9.060   8.294  66.722  1.00  0.00    -0.190 C  
BRANCH   4   5
HETATM    5  C   UNL     1      -9.274   6.798  66.476  1.00  0.00    -0.190 C  
BRANCH   5   6
HETATM    6  C   UNL     1     -10.272   6.161  67.458  1.00  0.00    -0.178 C  
HETATM    7  O   UNL     1     -11.570   6.296  66.889  1.00  0.00    -0.602 OA 
HETATM    8  H   UNL     1     -12.187   5.902  67.496  1.00  0.00     0.000 HD 
BRANCH   6   9
HETATM    9  C   UNL     1     -10.220   6.782  68.837  1.00  0.00    -0.186 C  
HETATM   10  C   UNL     1     -10.929   6.419  69.919  1.00  0.00    -0.410 C  
BRANCH  10  11
HETATM   11  C   UNL     1     -10.943   7.185  71.224  1.00  0.00    -0.264 C  
HETATM   12  C   UNL     1     -10.699   6.220  72.404  1.00  0.00    -0.225 C  
HETATM   13  O   UNL     1     -11.876   5.509  72.764  1.00  0.00    -0.463 OA 
HETATM   14  C   UNL     1     -10.229   7.091  73.549  1.00  0.00    -0.371 C  
HETATM   15  H   UNL     1     -11.726   4.915  73.491  1.00  0.00     0.000 HD 
HETATM   16  C   UNL     1      -9.448   8.136  72.815  1.00  0.00    -0.279 C  
HETATM   17  O   UNL     1      -8.587   8.815  73.363  1.00  0.00    -0.320 OA 
HETATM   18  C   UNL     1      -9.843   8.267  71.352  1.00  0.00    -0.240 C  
BRANCH  18  19
HETATM   19  C   UNL     1     -10.390   9.666  71.011  1.00  0.00    -0.292 C  
BRANCH  19  20
HETATM   20  C   UNL     1     -11.913   9.793  71.147  1.00  0.00    -0.463 C  
BRANCH  20  21
HETATM   21  C   UNL     1     -12.450  11.049  70.456  1.00  0.00    -0.432 C  
BRANCH  21  22
HETATM   22  C   UNL     1     -13.133  11.979  71.463  1.00  0.00    -0.362 C  
BRANCH  22  23
HETATM   23  C   UNL     1     -12.296  13.231  71.723  1.00  0.00     0.093 C  
BRANCH  23  24
HETATM   24  C   UNL     1     -12.918  14.113  72.807  1.00  0.00    -0.516 C  
HETATM   25  C   UNL     1     -13.455  15.405  72.234  1.00  0.00    -0.472 C  
HETATM   26  O   UNL     1     -13.413  15.731  71.060  1.00  0.00    -0.581 OA 
HETATM   27  O   UNL     1     -14.002  16.195  73.186  1.00  0.00    -0.501 OA 
ENDBRANCH  23  24
ENDBRANCH  22  23
ENDBRANCH  21  22
ENDBRANCH  20  21
ENDBRANCH  19  20
ENDBRANCH  18  19
ENDBRANCH  10  11
ENDBRANCH   6   9
ENDBRANCH   5   6
ENDBRANCH   4   5
ENDBRANCH   3   4
ENDBRANCH   2   3
TORSDOF 12
ENDMDL
MODEL      178
REMARK 921   NORMALIZED FREE ENERGY PREDICTED BY IDOCK:   -4.33 KCAL/MOL
REMARK 922        TOTAL FREE ENERGY PREDICTED BY IDOCK:   -9.32 KCAL/MOL
REMARK 923 INTER-LIGAND FREE ENERGY PREDICTED BY IDOCK:   -6.88 KCAL/MOL
REMARK 924 INTRA-LIGAND FREE ENERGY PREDICTED BY IDOCK:   -2.44 KCAL/MOL
REMARK 927      BINDING AFFINITY PREDICTED BY RF-SCORE:    0.00 PKD
ROOT
HETATM    1  C   UNL     1     -11.861  12.440  63.887  1.00  0.00    -0.551 C  
HETATM    2  C   UNL     1     -10.518  12.882  64.439  1.00  0.00    -0.419 C  
ENDROOT
BRANCH   2   3
HETATM    3  C   UNL     1     -10.638  13.441  65.859  1.00  0.00    -0.286 C  
BRANCH   3   4
HETATM    4  C   UNL     1     -11.530  12.535  66.705  1.00  0.00    -0.422 C  
BRANCH   4   5
HETATM    5  C   UNL     1     -11.105  12.498  68.175  1.00  0.00    -0.282 C  
BRANCH   5   6
HETATM    6  C   UNL     1     -11.837  11.417  68.989  1.00  0.00    -0.348 C  
HETATM    7  O   UNL     1     -12.151  11.982  70.257  1.00  0.00    -0.337 OA 
HETATM    8  H   UNL     1     -12.603  11.314  70.760  1.00  0.00     0.000 HD 
BRANCH   6   9
HETATM    9  C   UNL     1     -11.025  10.150  69.149  1.00  0.00    -0.270 C  
HETATM   10  C   UNL     1     -10.460   9.418  68.175  1.00  0.00    -0.267 C  
BRANCH  10  11
HETATM   11  C   UNL     1      -9.796   8.076  68.394  1.00  0.00    -0.184 C  
HETATM   12  C   UNL     1     -10.412   7.023  67.449  1.00  0.00    -0.273 C  
HETATM   13  O   UNL     1     -11.654   6.530  67.935  1.00  0.00    -0.623 OA 
HETATM   14  C   UNL     1      -9.392   5.908  67.364  1.00  0.00    -0.111 C  
HETATM   15  H   UNL     1     -12.033   5.882  67.353  1.00  0.00     0.000 HD 
HETATM   16  C   UNL     1      -8.113   6.681  67.450  1.00  0.00    -0.121 C  
HETATM   17  O   UNL     1      -7.047   6.231  67.043  1.00  0.00    -0.069 OA 
HETATM   18  C   UNL     1      -8.277   8.049  68.095  1.00  0.00    -0.126 C  
BRANCH  18  19
HETATM   19  C   UNL     1      -7.448   8.196  69.385  1.00  0.00    -0.091 C  
BRANCH  19  20
HETATM   20  C   UNL     1      -7.857   7.229  70.505  1.00  0.00    -0.099 C  
BRANCH  20  21
HETATM   21  C   UNL     1      -7.842   7.902  71.880  1.00  0.00    -0.120 C  
BRANCH  21  22
HETATM   22  C   UNL     1      -9.124   8.710  72.109  1.00  0.00    -0.301 C  
BRANCH  22  23
HETATM   23  C   UNL     1     -10.197   7.869  72.802  1.00  0.00    -0.380 C  
BRANCH  23  24
HETATM   24  C   UNL     1     -11.583   8.118  72.206  1.00  0.00    -0.436 C  
HETATM   25  C   UNL     1     -11.997   7.002  71.273  1.00  0.00    -0.346 C  
HETATM   26  O   UNL     1     -11.332   6.014  71.011  1.00  0.00    -0.295 OA 
HETATM   27  O   UNL     1     -13.219   7.216  70.735  1.00  0.00    -0.122 OA 
ENDBRANCH  23  24
ENDBRANCH  22  23
ENDBRANCH  21  22
ENDBRANCH  20  21
ENDBRANCH  19  20
ENDBRANCH  18  19
ENDBRANCH  10  11
ENDBRANCH   6   9
ENDBRANCH   5   6
ENDBRANCH   4   5
ENDBRANCH   3   4
ENDBRANCH   2   3
TORSDOF 12
ENDMDL
MODEL      179
REMARK 921   NORMALIZED FREE ENERGY PREDICTED BY IDOCK:   -4.33 KCAL/MOL
REMARK 922        TOTAL FREE ENERGY PREDICTED BY IDOCK:   -9.31 KCAL/MOL
REMARK 923 INTER-LIGAND FREE ENERGY PREDICTED BY IDOCK:   -7.33 KCAL/MOL
REMARK 924 INTRA-LIGAND FREE ENERGY PREDICTED BY IDOCK:   -1.98 KCAL/MOL
REMARK 927      BINDING AFFINITY PREDICTED BY RF-SCORE:    0.00 PKD
ROOT
HETATM    1  C   UNL     1      -9.389   8.406  65.882  1.00  0.00    -0.205 C  
HETATM    2  C   UNL     1      -9.856   9.848  65.792  1.00  0.00    -0.356 C  
ENDROOT
BRANCH   2   3
HETATM    3  C   UNL     1      -9.064  10.767  66.726  1.00  0.00    -0.167 C  
BRANCH   3   4
HETATM    4  C   UNL     1      -9.629  12.185  66.668  1.00  0.00    -0.226 C  
BRANCH   4   5
HETATM    5  C   UNL     1     -10.875  12.287  65.786  1.00  0.00    -0.313 C  
BRANCH   5   6
HETATM    6  C   UNL     1     -10.833  13.479  64.816  1.00  0.00    -0.381 C  
HETATM    7  O   UNL     1     -10.110  13.061  63.663  1.00  0.00    -0.699 OA 
HETATM    8  H   UNL     1     -10.083  13.798  63.063  1.00  0.00     0.000 HD 
BRANCH   6   9
HETATM    9  C   UNL     1     -10.207  14.714  65.426  1.00  0.00    -0.415 C  
HETATM   10  C   UNL     1     -10.839  15.724  66.046  1.00  0.00    -0.256 C  
BRANCH  10  11
HETATM   11  C   UNL     1     -10.166  17.004  66.494  1.00  0.00    -0.321 C  
HETATM   12  C   UNL     1     -11.019  18.221  66.077  1.00  0.00     0.242 C  
HETATM   13  O   UNL     1     -10.835  18.558  64.708  1.00  0.00    -0.287 OA 
HETATM   14  C   UNL     1     -10.569  19.356  66.972  1.00  0.00    -0.586 C  
HETATM   15  H   UNL     1     -11.360  19.308  64.452  1.00  0.00     0.000 HD 
HETATM   16  C   UNL     1     -10.265  18.621  68.239  1.00  0.00    -0.380 C  
HETATM   17  O   UNL     1     -10.236  19.180  69.330  1.00  0.00    -0.269 OA 
HETATM   18  C   UNL     1      -9.988  17.140  68.026  1.00  0.00    -0.295 C  
BRANCH  18  19
HETATM   19  C   UNL     1      -8.567  16.736  68.464  1.00  0.00    -0.245 C  
BRANCH  19  20
HETATM   20  C   UNL     1      -8.528  15.581  69.473  1.00  0.00    -0.211 C  
BRANCH  20  21
HETATM   21  C   UNL     1      -9.928  15.190  69.955  1.00  0.00    -0.107 C  
BRANCH  21  22
HETATM   22  C   UNL     1     -10.419  13.924  69.246  1.00  0.00    -0.001 C  
BRANCH  22  23
HETATM   23  C   UNL     1     -11.929  13.746  69.404  1.00  0.00    -0.397 C  
BRANCH  23  24
HETATM   24  C   UNL     1     -12.269  12.754  70.517  1.00  0.00    -0.389 C  
HETATM   25  C   UNL     1     -12.342  11.336  69.996  1.00  0.00    -0.257 C  
HETATM   26  O   UNL     1     -12.157  10.996  68.840  1.00  0.00    -0.479 OA 
HETATM   27  O   UNL     1     -12.648  10.451  70.971  1.00  0.00    -0.329 OA 
ENDBRANCH  23  24
ENDBRANCH  22  23
ENDBRANCH  21  22
ENDBRANCH  20  21
ENDBRANCH  19  20
ENDBRANCH  18  19
ENDBRANCH  10  11
ENDBRANCH   6   9
ENDBRANCH   5   6
ENDBRANCH   4   5
ENDBRANCH   3   4
ENDBRANCH   2   3
TORSDOF 12
ENDMDL
MODEL      180
REMARK 921   NORMALIZED FREE ENERGY PREDICTED BY IDOCK:   -4.31 KCAL/MOL
REMARK 922        TOTAL FREE ENERGY PREDICTED BY IDOCK:   -9.28 KCAL/MOL
REMARK 923 INTER-LIGAND FREE ENERGY PREDICTED BY IDOCK:   -7.57 KCAL/MOL
REMARK 924 INTRA-LIGAND FREE ENERGY PREDICTED BY IDOCK:   -1.71 KCAL/MOL
REMARK 927      BINDING AFFINITY PREDICTED BY RF-SCORE:    0.00 PKD
ROOT
HETATM    1  C   UNL     1     -12.183  13.907  64.167  1.00  0.00    -0.436 C  
HETATM    2  C   UNL     1     -12.380  12.669  65.022  1.00  0.00    -0.561 C  
ENDROOT
BRANCH   2   3
HETATM    3  C   UNL     1     -11.266  12.504  66.058  1.00  0.00    -0.354 C  
BRANCH   3   4
HETATM    4  C   UNL     1     -11.857  12.503  67.467  1.00  0.00    -0.389 C  
BRANCH   4   5
HETATM    5  C   UNL     1     -11.889  11.106  68.091  1.00  0.00    -0.238 C  
BRANCH   5   6
HETATM    6  C   UNL     1     -11.886  11.131  69.629  1.00  0.00    -0.348 C  
HETATM    7  O   UNL     1     -11.090  12.240  70.033  1.00  0.00    -0.455 OA 
HETATM    8  H   UNL     1     -11.088  12.256  70.983  1.00  0.00     0.000 HD 
BRANCH   6   9
HETATM    9  C   UNL     1     -11.369   9.846  70.238  1.00  0.00    -0.357 C  
HETATM   10  C   UNL     1     -10.094   9.544  70.537  1.00  0.00    -0.347 C  
BRANCH  10  11
HETATM   11  C   UNL     1      -9.628   8.180  70.998  1.00  0.00    -0.189 C  
HETATM   12  C   UNL     1      -9.529   8.150  72.538  1.00  0.00    -0.269 C  
HETATM   13  O   UNL     1      -8.334   8.759  73.009  1.00  0.00    -0.412 OA 
HETATM   14  C   UNL     1      -9.567   6.685  72.917  1.00  0.00    -0.162 C  
HETATM   15  H   UNL     1      -8.274   8.740  73.957  1.00  0.00     0.000 HD 
HETATM   16  C   UNL     1     -10.490   6.140  71.873  1.00  0.00    -0.213 C  
HETATM   17  O   UNL     1     -11.099   5.086  72.022  1.00  0.00    -0.094 OA 
HETATM   18  C   UNL     1     -10.577   7.013  70.630  1.00  0.00    -0.246 C  
BRANCH  18  19
HETATM   19  C   UNL     1     -10.101   6.281  69.361  1.00  0.00    -0.215 C  
BRANCH  19  20
HETATM   20  C   UNL     1     -10.901   6.630  68.099  1.00  0.00    -0.334 C  
BRANCH  20  21
HETATM   21  C   UNL     1      -9.991   6.978  66.918  1.00  0.00    -0.283 C  
BRANCH  21  22
HETATM   22  C   UNL     1     -10.004   8.485  66.641  1.00  0.00    -0.363 C  
BRANCH  22  23
HETATM   23  C   UNL     1      -8.890   8.883  65.673  1.00  0.00    -0.230 C  
BRANCH  23  24
HETATM   24  C   UNL     1      -9.120  10.279  65.090  1.00  0.00    -0.234 C  
HETATM   25  C   UNL     1      -9.215  10.243  63.581  1.00  0.00    -0.280 C  
HETATM   26  O   UNL     1      -9.126   9.244  62.889  1.00  0.00    -0.196 OA 
HETATM   27  O   UNL     1      -9.412  11.473  63.055  1.00  0.00    -0.367 OA 
ENDBRANCH  23  24
ENDBRANCH  22  23
ENDBRANCH  21  22
ENDBRANCH  20  21
ENDBRANCH  19  20
ENDBRANCH  18  19
ENDBRANCH  10  11
ENDBRANCH   6   9
ENDBRANCH   5   6
ENDBRANCH   4   5
ENDBRANCH   3   4
ENDBRANCH   2   3
TORSDOF 12
ENDMDL
MODEL      181
REMARK 921   NORMALIZED FREE ENERGY PREDICTED BY IDOCK:   -4.31 KCAL/MOL
REMARK 922        TOTAL FREE ENERGY PREDICTED BY IDOCK:   -9.28 KCAL/MOL
REMARK 923 INTER-LIGAND FREE ENERGY PREDICTED BY IDOCK:   -7.79 KCAL/MOL
REMARK 924 INTRA-LIGAND FREE ENERGY PREDICTED BY IDOCK:   -1.49 KCAL/MOL
REMARK 927      BINDING AFFINITY PREDICTED BY RF-SCORE:    0.00 PKD
ROOT
HETATM    1  C   UNL     1     -10.949   6.110  69.485  1.00  0.00    -0.463 C  
HETATM    2  C   UNL     1     -11.405   6.688  70.813  1.00  0.00    -0.389 C  
ENDROOT
BRANCH   2   3
HETATM    3  C   UNL     1     -10.247   7.314  71.593  1.00  0.00    -0.207 C  
BRANCH   3   4
HETATM    4  C   UNL     1     -10.423   8.830  71.665  1.00  0.00    -0.387 C  
BRANCH   4   5
HETATM    5  C   UNL     1     -11.816   9.239  72.151  1.00  0.00    -0.265 C  
BRANCH   5   6
HETATM    6  C   UNL     1     -12.489  10.284  71.245  1.00  0.00    -0.408 C  
HETATM    7  O   UNL     1     -13.770   9.774  70.889  1.00  0.00    -0.511 OA 
HETATM    8  H   UNL     1     -14.186  10.420  70.329  1.00  0.00     0.000 HD 
BRANCH   6   9
HETATM    9  C   UNL     1     -11.675  10.605  70.010  1.00  0.00    -0.405 C  
HETATM   10  C   UNL     1     -11.419  11.821  69.500  1.00  0.00    -0.363 C  
BRANCH  10  11
HETATM   11  C   UNL     1     -10.730  12.060  68.173  1.00  0.00    -0.246 C  
HETATM   12  C   UNL     1      -9.757  10.901  67.869  1.00  0.00    -0.165 C  
HETATM   13  O   UNL     1      -8.530  11.035  68.573  1.00  0.00    -0.139 OA 
HETATM   14  C   UNL     1      -9.524  10.951  66.374  1.00  0.00    -0.214 C  
HETATM   15  H   UNL     1      -7.931  10.322  68.385  1.00  0.00     0.000 HD 
HETATM   16  C   UNL     1     -10.863  11.406  65.887  1.00  0.00    -0.234 C  
HETATM   17  O   UNL     1     -11.240  11.218  64.736  1.00  0.00    -0.196 OA 
HETATM   18  C   UNL     1     -11.680  12.122  66.952  1.00  0.00    -0.374 C  
BRANCH  18  19
HETATM   19  C   UNL     1     -12.005  13.578  66.567  1.00  0.00    -0.460 C  
BRANCH  19  20
HETATM   20  C   UNL     1     -10.911  14.585  66.949  1.00  0.00    -0.316 C  
BRANCH  20  21
HETATM   21  C   UNL     1     -10.212  15.170  65.719  1.00  0.00    -0.365 C  
BRANCH  21  22
HETATM   22  C   UNL     1     -10.481  16.673  65.598  1.00  0.00    -0.313 C  
BRANCH  22  23
HETATM   23  C   UNL     1      -9.641  17.472  66.595  1.00  0.00    -0.290 C  
BRANCH  23  24
HETATM   24  C   UNL     1      -8.145  17.335  66.311  1.00  0.00    -0.315 C  
HETATM   25  C   UNL     1      -7.538  18.650  65.875  1.00  0.00    -0.149 C  
HETATM   26  O   UNL     1      -8.140  19.704  65.758  1.00  0.00    -0.402 OA 
HETATM   27  O   UNL     1      -6.216  18.540  65.616  1.00  0.00    -0.212 OA 
ENDBRANCH  23  24
ENDBRANCH  22  23
ENDBRANCH  21  22
ENDBRANCH  20  21
ENDBRANCH  19  20
ENDBRANCH  18  19
ENDBRANCH  10  11
ENDBRANCH   6   9
ENDBRANCH   5   6
ENDBRANCH   4   5
ENDBRANCH   3   4
ENDBRANCH   2   3
TORSDOF 12
ENDMDL
MODEL      182
REMARK 921   NORMALIZED FREE ENERGY PREDICTED BY IDOCK:   -4.30 KCAL/MOL
REMARK 922        TOTAL FREE ENERGY PREDICTED BY IDOCK:   -9.27 KCAL/MOL
REMARK 923 INTER-LIGAND FREE ENERGY PREDICTED BY IDOCK:   -7.78 KCAL/MOL
REMARK 924 INTRA-LIGAND FREE ENERGY PREDICTED BY IDOCK:   -1.49 KCAL/MOL
REMARK 927      BINDING AFFINITY PREDICTED BY RF-SCORE:    0.00 PKD
ROOT
HETATM    1  C   UNL     1      -5.877  20.679  68.796  1.00  0.00    -0.384 C  
HETATM    2  C   UNL     1      -6.732  19.733  69.620  1.00  0.00    -0.351 C  
ENDROOT
BRANCH   2   3
HETATM    3  C   UNL     1      -7.568  18.801  68.740  1.00  0.00    -0.343 C  
BRANCH   3   4
HETATM    4  C   UNL     1      -8.273  19.604  67.648  1.00  0.00    -0.335 C  
BRANCH   4   5
HETATM    5  C   UNL     1      -8.787  18.722  66.508  1.00  0.00    -0.315 C  
BRANCH   5   6
HETATM    6  C   UNL     1     -10.280  18.375  66.638  1.00  0.00    -0.394 C  
HETATM    7  O   UNL     1     -10.927  19.500  67.223  1.00  0.00    -0.499 OA 
HETATM    8  H   UNL     1     -11.849  19.285  67.304  1.00  0.00     0.000 HD 
BRANCH   6   9
HETATM    9  C   UNL     1     -10.525  17.126  67.457  1.00  0.00    -0.348 C  
HETATM   10  C   UNL     1     -10.754  17.053  68.779  1.00  0.00    -0.313 C  
BRANCH  10  11
HETATM   11  C   UNL     1     -10.834  15.759  69.559  1.00  0.00    -0.287 C  
HETATM   12  C   UNL     1     -12.117  15.740  70.417  1.00  0.00    -0.370 C  
HETATM   13  O   UNL     1     -11.972  16.495  71.612  1.00  0.00    -0.651 OA 
HETATM   14  C   UNL     1     -12.370  14.281  70.734  1.00  0.00    -0.427 C  
HETATM   15  H   UNL     1     -12.762  16.483  72.139  1.00  0.00     0.000 HD 
HETATM   16  C   UNL     1     -11.887  13.624  69.479  1.00  0.00    -0.337 C  
HETATM   17  O   UNL     1     -12.249  12.502  69.146  1.00  0.00    -0.187 OA 
HETATM   18  C   UNL     1     -10.909  14.481  68.688  1.00  0.00    -0.259 C  
BRANCH  18  19
HETATM   19  C   UNL     1      -9.527  13.818  68.544  1.00  0.00    -0.162 C  
BRANCH  19  20
HETATM   20  C   UNL     1      -9.317  13.093  67.207  1.00  0.00    -0.225 C  
BRANCH  20  21
HETATM   21  C   UNL     1      -8.613  11.745  67.388  1.00  0.00    -0.160 C  
BRANCH  21  22
HETATM   22  C   UNL     1      -9.586  10.685  67.913  1.00  0.00    -0.174 C  
BRANCH  22  23
HETATM   23  C   UNL     1      -9.108  10.098  69.241  1.00  0.00    -0.208 C  
BRANCH  23  24
HETATM   24  C   UNL     1     -10.272   9.844  70.200  1.00  0.00    -0.326 C  
HETATM   25  C   UNL     1     -10.782   8.425  70.094  1.00  0.00    -0.236 C  
HETATM   26  O   UNL     1     -10.340   7.567  69.349  1.00  0.00    -0.203 OA 
HETATM   27  O   UNL     1     -11.817   8.192  70.933  1.00  0.00    -0.285 OA 
ENDBRANCH  23  24
ENDBRANCH  22  23
ENDBRANCH  21  22
ENDBRANCH  20  21
ENDBRANCH  19  20
ENDBRANCH  18  19
ENDBRANCH  10  11
ENDBRANCH   6   9
ENDBRANCH   5   6
ENDBRANCH   4   5
ENDBRANCH   3   4
ENDBRANCH   2   3
TORSDOF 12
ENDMDL
MODEL      183
REMARK 921   NORMALIZED FREE ENERGY PREDICTED BY IDOCK:   -4.30 KCAL/MOL
REMARK 922        TOTAL FREE ENERGY PREDICTED BY IDOCK:   -9.27 KCAL/MOL
REMARK 923 INTER-LIGAND FREE ENERGY PREDICTED BY IDOCK:   -7.02 KCAL/MOL
REMARK 924 INTRA-LIGAND FREE ENERGY PREDICTED BY IDOCK:   -2.25 KCAL/MOL
REMARK 927      BINDING AFFINITY PREDICTED BY RF-SCORE:    0.00 PKD
ROOT
HETATM    1  C   UNL     1     -11.113  13.049  63.750  1.00  0.00    -0.353 C  
HETATM    2  C   UNL     1     -11.313  11.545  63.694  1.00  0.00    -0.412 C  
ENDROOT
BRANCH   2   3
HETATM    3  C   UNL     1     -10.036  10.812  63.278  1.00  0.00    -0.369 C  
BRANCH   3   4
HETATM    4  C   UNL     1      -9.063  10.745  64.455  1.00  0.00    -0.217 C  
BRANCH   4   5
HETATM    5  C   UNL     1      -9.346   9.564  65.386  1.00  0.00    -0.324 C  
BRANCH   5   6
HETATM    6  C   UNL     1      -9.514   9.980  66.857  1.00  0.00    -0.166 C  
HETATM    7  O   UNL     1     -10.720   9.388  67.329  1.00  0.00    -0.267 OA 
HETATM    8  H   UNL     1     -10.824   9.645  68.238  1.00  0.00     0.000 HD 
BRANCH   6   9
HETATM    9  C   UNL     1      -9.542  11.482  67.045  1.00  0.00    -0.199 C  
HETATM   10  C   UNL     1     -10.574  12.228  67.472  1.00  0.00    -0.242 C  
BRANCH  10  11
HETATM   11  C   UNL     1     -10.582  13.742  67.486  1.00  0.00    -0.246 C  
HETATM   12  C   UNL     1     -12.021  14.258  67.696  1.00  0.00    -0.365 C  
HETATM   13  O   UNL     1     -12.781  14.228  66.496  1.00  0.00    -0.521 OA 
HETATM   14  C   UNL     1     -11.872  15.679  68.198  1.00  0.00    -0.096 C  
HETATM   15  H   UNL     1     -13.667  14.546  66.625  1.00  0.00     0.000 HD 
HETATM   16  C   UNL     1     -10.623  15.567  69.015  1.00  0.00    -0.246 C  
HETATM   17  O   UNL     1     -10.346  16.368  69.900  1.00  0.00    -0.235 OA 
HETATM   18  C   UNL     1      -9.751  14.383  68.624  1.00  0.00    -0.216 C  
BRANCH  18  19
HETATM   19  C   UNL     1      -8.358  14.815  68.127  1.00  0.00    -0.144 C  
BRANCH  19  20
HETATM   20  C   UNL     1      -7.295  14.891  69.231  1.00  0.00    -0.175 C  
BRANCH  20  21
HETATM   21  C   UNL     1      -6.797  16.321  69.452  1.00  0.00    -0.213 C  
BRANCH  21  22
HETATM   22  C   UNL     1      -6.970  17.165  68.185  1.00  0.00    -0.178 C  
BRANCH  22  23
HETATM   23  C   UNL     1      -7.841  18.393  68.447  1.00  0.00    -0.323 C  
BRANCH  23  24
HETATM   24  C   UNL     1      -8.914  18.566  67.371  1.00  0.00    -0.280 C  
HETATM   25  C   UNL     1     -10.129  19.289  67.906  1.00  0.00    -0.395 C  
HETATM   26  O   UNL     1     -10.265  19.697  69.047  1.00  0.00    -0.421 OA 
HETATM   27  O   UNL     1     -11.086  19.442  66.963  1.00  0.00    -0.420 OA 
ENDBRANCH  23  24
ENDBRANCH  22  23
ENDBRANCH  21  22
ENDBRANCH  20  21
ENDBRANCH  19  20
ENDBRANCH  18  19
ENDBRANCH  10  11
ENDBRANCH   6   9
ENDBRANCH   5   6
ENDBRANCH   4   5
ENDBRANCH   3   4
ENDBRANCH   2   3
TORSDOF 12
ENDMDL
MODEL      184
REMARK 921   NORMALIZED FREE ENERGY PREDICTED BY IDOCK:   -4.30 KCAL/MOL
REMARK 922        TOTAL FREE ENERGY PREDICTED BY IDOCK:   -9.27 KCAL/MOL
REMARK 923 INTER-LIGAND FREE ENERGY PREDICTED BY IDOCK:   -7.61 KCAL/MOL
REMARK 924 INTRA-LIGAND FREE ENERGY PREDICTED BY IDOCK:   -1.66 KCAL/MOL
REMARK 927      BINDING AFFINITY PREDICTED BY RF-SCORE:    0.00 PKD
ROOT
HETATM    1  C   UNL     1     -10.857  14.150  67.819  1.00  0.00    -0.260 C  
HETATM    2  C   UNL     1     -11.462  14.863  66.623  1.00  0.00    -0.297 C  
ENDROOT
BRANCH   2   3
HETATM    3  C   UNL     1     -12.442  13.971  65.858  1.00  0.00    -0.513 C  
BRANCH   3   4
HETATM    4  C   UNL     1     -12.118  13.997  64.366  1.00  0.00    -0.486 C  
BRANCH   4   5
HETATM    5  C   UNL     1     -10.795  13.302  64.038  1.00  0.00    -0.287 C  
BRANCH   5   6
HETATM    6  C   UNL     1     -10.958  11.803  63.734  1.00  0.00    -0.429 C  
HETATM    7  O   UNL     1     -12.210  11.638  63.076  1.00  0.00    -0.949 OA 
HETATM    8  H   UNL     1     -12.311  10.712  62.888  1.00  0.00     0.000 HD 
BRANCH   6   9
HETATM    9  C   UNL     1     -10.884  10.939  64.974  1.00  0.00    -0.142 C  
HETATM   10  C   UNL     1     -10.072  11.103  66.031  1.00  0.00    -0.292 C  
BRANCH  10  11
HETATM   11  C   UNL     1      -9.940  10.111  67.166  1.00  0.00    -0.243 C  
HETATM   12  C   UNL     1      -8.703   9.215  66.941  1.00  0.00    -0.123 C  
HETATM   13  O   UNL     1      -8.961   8.172  66.009  1.00  0.00    -0.166 OA 
HETATM   14  C   UNL     1      -8.364   8.644  68.301  1.00  0.00    -0.127 C  
HETATM   15  H   UNL     1      -8.200   7.621  65.871  1.00  0.00     0.000 HD 
HETATM   16  C   UNL     1      -8.735   9.785  69.194  1.00  0.00    -0.155 C  
HETATM   17  O   UNL     1      -8.277   9.908  70.325  1.00  0.00    -0.185 OA 
HETATM   18  C   UNL     1      -9.729  10.747  68.562  1.00  0.00    -0.184 C  
BRANCH  18  19
HETATM   19  C   UNL     1     -11.052  10.828  69.347  1.00  0.00    -0.324 C  
BRANCH  19  20
HETATM   20  C   UNL     1     -11.414   9.540  70.098  1.00  0.00    -0.205 C  
BRANCH  20  21
HETATM   21  C   UNL     1     -11.779   9.809  71.560  1.00  0.00    -0.450 C  
BRANCH  21  22
HETATM   22  C   UNL     1     -12.505   8.609  72.174  1.00  0.00    -0.453 C  
BRANCH  22  23
HETATM   23  C   UNL     1     -12.503   7.410  71.226  1.00  0.00    -0.381 C  
BRANCH  23  24
HETATM   24  C   UNL     1     -11.737   6.224  71.816  1.00  0.00    -0.355 C  
HETATM   25  C   UNL     1     -10.571   5.824  70.941  1.00  0.00    -0.262 C  
HETATM   26  O   UNL     1     -10.253   6.361  69.893  1.00  0.00    -0.173 OA 
HETATM   27  O   UNL     1      -9.890   4.772  71.450  1.00  0.00    -0.169 OA 
ENDBRANCH  23  24
ENDBRANCH  22  23
ENDBRANCH  21  22
ENDBRANCH  20  21
ENDBRANCH  19  20
ENDBRANCH  18  19
ENDBRANCH  10  11
ENDBRANCH   6   9
ENDBRANCH   5   6
ENDBRANCH   4   5
ENDBRANCH   3   4
ENDBRANCH   2   3
TORSDOF 12
ENDMDL
MODEL      185
REMARK 921   NORMALIZED FREE ENERGY PREDICTED BY IDOCK:   -4.29 KCAL/MOL
REMARK 922        TOTAL FREE ENERGY PREDICTED BY IDOCK:   -9.25 KCAL/MOL
REMARK 923 INTER-LIGAND FREE ENERGY PREDICTED BY IDOCK:   -6.38 KCAL/MOL
REMARK 924 INTRA-LIGAND FREE ENERGY PREDICTED BY IDOCK:   -2.87 KCAL/MOL
REMARK 927      BINDING AFFINITY PREDICTED BY RF-SCORE:    0.00 PKD
ROOT
HETATM    1  C   UNL     1     -11.044  15.844  64.714  1.00  0.00    -0.397 C  
HETATM    2  C   UNL     1     -10.743  14.707  65.674  1.00  0.00    -0.340 C  
ENDROOT
BRANCH   2   3
HETATM    3  C   UNL     1     -11.115  13.345  65.085  1.00  0.00    -0.315 C  
BRANCH   3   4
HETATM    4  C   UNL     1     -11.631  12.420  66.186  1.00  0.00    -0.452 C  
BRANCH   4   5
HETATM    5  C   UNL     1     -11.834  13.147  67.517  1.00  0.00    -0.409 C  
BRANCH   5   6
HETATM    6  C   UNL     1     -11.936  12.192  68.718  1.00  0.00    -0.239 C  
HETATM    7  O   UNL     1     -11.164  12.755  69.774  1.00  0.00    -0.473 OA 
HETATM    8  H   UNL     1     -11.227  12.164  70.516  1.00  0.00     0.000 HD 
BRANCH   6   9
HETATM    9  C   UNL     1     -11.468  10.789  68.397  1.00  0.00    -0.358 C  
HETATM   10  C   UNL     1     -10.606  10.039  69.102  1.00  0.00    -0.240 C  
BRANCH  10  11
HETATM   11  C   UNL     1     -10.060   8.705  68.639  1.00  0.00    -0.207 C  
HETATM   12  C   UNL     1     -10.571   7.578  69.561  1.00  0.00    -0.236 C  
HETATM   13  O   UNL     1      -9.831   7.502  70.772  1.00  0.00    -0.179 OA 
HETATM   14  C   UNL     1     -10.420   6.301  68.762  1.00  0.00    -0.279 C  
HETATM   15  H   UNL     1     -10.145   6.808  71.340  1.00  0.00     0.000 HD 
HETATM   16  C   UNL     1     -10.707   6.791  67.377  1.00  0.00    -0.335 C  
HETATM   17  O   UNL     1     -11.067   6.040  66.479  1.00  0.00    -0.209 OA 
HETATM   18  C   UNL     1     -10.495   8.289  67.212  1.00  0.00    -0.373 C  
BRANCH  18  19
HETATM   19  C   UNL     1      -9.404   8.618  66.175  1.00  0.00    -0.291 C  
BRANCH  19  20
HETATM   20  C   UNL     1      -7.993   8.180  66.590  1.00  0.00    -0.102 C  
BRANCH  20  21
HETATM   21  C   UNL     1      -6.921   9.161  66.108  1.00  0.00    -0.086 C  
BRANCH  21  22
HETATM   22  C   UNL     1      -7.503  10.567  65.934  1.00  0.00    -0.147 C  
BRANCH  22  23
HETATM   23  C   UNL     1      -7.129  11.474  67.107  1.00  0.00    -0.140 C  
BRANCH  23  24
HETATM   24  C   UNL     1      -8.302  12.357  67.535  1.00  0.00    -0.173 C  
HETATM   25  C   UNL     1      -7.845  13.506  68.406  1.00  0.00    -0.143 C  
HETATM   26  O   UNL     1      -6.693  13.727  68.741  1.00  0.00    -0.091 OA 
HETATM   27  O   UNL     1      -8.875  14.290  68.796  1.00  0.00    -0.168 OA 
ENDBRANCH  23  24
ENDBRANCH  22  23
ENDBRANCH  21  22
ENDBRANCH  20  21
ENDBRANCH  19  20
ENDBRANCH  18  19
ENDBRANCH  10  11
ENDBRANCH   6   9
ENDBRANCH   5   6
ENDBRANCH   4   5
ENDBRANCH   3   4
ENDBRANCH   2   3
TORSDOF 12
ENDMDL
MODEL      186
REMARK 921   NORMALIZED FREE ENERGY PREDICTED BY IDOCK:   -4.28 KCAL/MOL
REMARK 922        TOTAL FREE ENERGY PREDICTED BY IDOCK:   -9.24 KCAL/MOL
REMARK 923 INTER-LIGAND FREE ENERGY PREDICTED BY IDOCK:   -7.66 KCAL/MOL
REMARK 924 INTRA-LIGAND FREE ENERGY PREDICTED BY IDOCK:   -1.58 KCAL/MOL
REMARK 927      BINDING AFFINITY PREDICTED BY RF-SCORE:    0.00 PKD
ROOT
HETATM    1  C   UNL     1     -10.219  14.575  66.714  1.00  0.00    -0.266 C  
HETATM    2  C   UNL     1     -11.588  13.930  66.586  1.00  0.00    -0.392 C  
ENDROOT
BRANCH   2   3
HETATM    3  C   UNL     1     -11.855  12.924  67.707  1.00  0.00    -0.391 C  
BRANCH   3   4
HETATM    4  C   UNL     1     -11.138  13.359  68.984  1.00  0.00    -0.293 C  
BRANCH   4   5
HETATM    5  C   UNL     1     -11.982  14.309  69.838  1.00  0.00    -0.397 C  
BRANCH   5   6
HETATM    6  C   UNL     1     -12.740  13.592  70.969  1.00  0.00    -0.332 C  
HETATM    7  O   UNL     1     -12.513  14.331  72.165  1.00  0.00    -0.302 OA 
HETATM    8  H   UNL     1     -12.981  13.888  72.864  1.00  0.00     0.000 HD 
BRANCH   6   9
HETATM    9  C   UNL     1     -12.319  12.149  71.138  1.00  0.00    -0.265 C  
HETATM   10  C   UNL     1     -13.073  11.129  71.580  1.00  0.00    -0.489 C  
BRANCH  10  11
HETATM   11  C   UNL     1     -12.542   9.742  71.874  1.00  0.00    -0.479 C  
HETATM   12  C   UNL     1     -13.716   8.768  72.110  1.00  0.00    -0.447 C  
HETATM   13  O   UNL     1     -14.250   8.883  73.422  1.00  0.00    -1.241 OA 
HETATM   14  C   UNL     1     -13.145   7.385  71.885  1.00  0.00    -0.289 C  
HETATM   15  H   UNL     1     -14.973   8.284  73.567  1.00  0.00     0.000 HD 
HETATM   16  C   UNL     1     -12.154   7.654  70.797  1.00  0.00    -0.124 C  
HETATM   17  O   UNL     1     -11.743   6.771  70.052  1.00  0.00    -0.337 OA 
HETATM   18  C   UNL     1     -11.715   9.109  70.729  1.00  0.00    -0.308 C  
BRANCH  18  19
HETATM   19  C   UNL     1     -10.202   9.280  70.968  1.00  0.00    -0.384 C  
BRANCH  19  20
HETATM   20  C   UNL     1      -9.713   8.714  72.308  1.00  0.00    -0.357 C  
BRANCH  20  21
HETATM   21  C   UNL     1      -8.608   7.671  72.123  1.00  0.00    -0.148 C  
BRANCH  21  22
HETATM   22  C   UNL     1      -7.223   8.302  72.296  1.00  0.00    -0.121 C  
BRANCH  22  23
HETATM   23  C   UNL     1      -6.331   8.030  71.085  1.00  0.00    -0.034 C  
BRANCH  23  24
HETATM   24  C   UNL     1      -6.734   8.885  69.882  1.00  0.00    -0.045 C  
HETATM   25  C   UNL     1      -6.980   8.038  68.654  1.00  0.00    -0.071 C  
HETATM   26  O   UNL     1      -6.879   6.825  68.598  1.00  0.00    -0.061 OA 
HETATM   27  O   UNL     1      -7.331   8.785  67.583  1.00  0.00    -0.083 OA 
ENDBRANCH  23  24
ENDBRANCH  22  23
ENDBRANCH  21  22
ENDBRANCH  20  21
ENDBRANCH  19  20
ENDBRANCH  18  19
ENDBRANCH  10  11
ENDBRANCH   6   9
ENDBRANCH   5   6
ENDBRANCH   4   5
ENDBRANCH   3   4
ENDBRANCH   2   3
TORSDOF 12
ENDMDL
MODEL      187
REMARK 921   NORMALIZED FREE ENERGY PREDICTED BY IDOCK:   -4.26 KCAL/MOL
REMARK 922        TOTAL FREE ENERGY PREDICTED BY IDOCK:   -9.20 KCAL/MOL
REMARK 923 INTER-LIGAND FREE ENERGY PREDICTED BY IDOCK:   -6.93 KCAL/MOL
REMARK 924 INTRA-LIGAND FREE ENERGY PREDICTED BY IDOCK:   -2.27 KCAL/MOL
REMARK 927      BINDING AFFINITY PREDICTED BY RF-SCORE:    0.00 PKD
ROOT
HETATM    1  C   UNL     1      -7.052   6.557  69.657  1.00  0.00    -0.072 C  
HETATM    2  C   UNL     1      -7.983   7.749  69.793  1.00  0.00    -0.115 C  
ENDROOT
BRANCH   2   3
HETATM    3  C   UNL     1      -8.338   8.035  71.253  1.00  0.00    -0.130 C  
BRANCH   3   4
HETATM    4  C   UNL     1      -9.492   9.034  71.326  1.00  0.00    -0.339 C  
BRANCH   4   5
HETATM    5  C   UNL     1      -9.627   9.871  70.052  1.00  0.00    -0.260 C  
BRANCH   5   6
HETATM    6  C   UNL     1     -11.038   9.821  69.443  1.00  0.00    -0.170 C  
HETATM    7  O   UNL     1     -11.393   8.449  69.307  1.00  0.00    -0.405 OA 
HETATM    8  H   UNL     1     -12.265   8.418  68.931  1.00  0.00     0.000 HD 
BRANCH   6   9
HETATM    9  C   UNL     1     -11.132  10.536  68.113  1.00  0.00    -0.346 C  
HETATM   10  C   UNL     1     -10.116  11.002  67.368  1.00  0.00    -0.216 C  
BRANCH  10  11
HETATM   11  C   UNL     1     -10.290  11.847  66.124  1.00  0.00    -0.261 C  
HETATM   12  C   UNL     1      -9.739  11.094  64.895  1.00  0.00    -0.251 C  
HETATM   13  O   UNL     1      -8.323  11.184  64.803  1.00  0.00    -0.372 OA 
HETATM   14  C   UNL     1     -10.393  11.745  63.695  1.00  0.00    -0.476 C  
HETATM   15  H   UNL     1      -7.984  10.720  64.046  1.00  0.00     0.000 HD 
HETATM   16  C   UNL     1     -11.740  12.087  64.250  1.00  0.00    -0.344 C  
HETATM   17  O   UNL     1     -12.716  12.277  63.533  1.00  0.00    -0.729 OA 
HETATM   18  C   UNL     1     -11.759  12.182  65.769  1.00  0.00    -0.391 C  
BRANCH  18  19
HETATM   19  C   UNL     1     -12.151  13.586  66.267  1.00  0.00    -0.476 C  
BRANCH  19  20
HETATM   20  C   UNL     1     -11.477  14.732  65.500  1.00  0.00    -0.329 C  
BRANCH  20  21
HETATM   21  C   UNL     1     -10.704  15.670  66.430  1.00  0.00    -0.291 C  
BRANCH  21  22
HETATM   22  C   UNL     1     -10.501  15.032  67.807  1.00  0.00    -0.249 C  
BRANCH  22  23
HETATM   23  C   UNL     1      -9.053  15.170  68.278  1.00  0.00    -0.183 C  
BRANCH  23  24
HETATM   24  C   UNL     1      -8.069  14.594  67.258  1.00  0.00    -0.230 C  
HETATM   25  C   UNL     1      -7.415  13.329  67.767  1.00  0.00    -0.154 C  
HETATM   26  O   UNL     1      -7.626  12.809  68.849  1.00  0.00    -0.062 OA 
HETATM   27  O   UNL     1      -6.539  12.815  66.875  1.00  0.00    -0.078 OA 
ENDBRANCH  23  24
ENDBRANCH  22  23
ENDBRANCH  21  22
ENDBRANCH  20  21
ENDBRANCH  19  20
ENDBRANCH  18  19
ENDBRANCH  10  11
ENDBRANCH   6   9
ENDBRANCH   5   6
ENDBRANCH   4   5
ENDBRANCH   3   4
ENDBRANCH   2   3
TORSDOF 12
ENDMDL
MODEL      188
REMARK 921   NORMALIZED FREE ENERGY PREDICTED BY IDOCK:   -4.26 KCAL/MOL
REMARK 922        TOTAL FREE ENERGY PREDICTED BY IDOCK:   -9.20 KCAL/MOL
REMARK 923 INTER-LIGAND FREE ENERGY PREDICTED BY IDOCK:   -6.55 KCAL/MOL
REMARK 924 INTRA-LIGAND FREE ENERGY PREDICTED BY IDOCK:   -2.65 KCAL/MOL
REMARK 927      BINDING AFFINITY PREDICTED BY RF-SCORE:    0.00 PKD
ROOT
HETATM    1  C   UNL     1      -9.089  11.213  65.998  1.00  0.00    -0.217 C  
HETATM    2  C   UNL     1      -9.602   9.885  65.470  1.00  0.00    -0.341 C  
ENDROOT
BRANCH   2   3
HETATM    3  C   UNL     1      -8.462   8.929  65.115  1.00  0.00    -0.190 C  
BRANCH   3   4
HETATM    4  C   UNL     1      -8.602   7.630  65.907  1.00  0.00    -0.164 C  
BRANCH   4   5
HETATM    5  C   UNL     1     -10.035   7.382  66.382  1.00  0.00    -0.107 C  
BRANCH   5   6
HETATM    6  C   UNL     1     -10.271   5.941  66.865  1.00  0.00    -0.214 C  
HETATM    7  O   UNL     1     -11.175   5.330  65.949  1.00  0.00    -0.796 OA 
HETATM    8  H   UNL     1     -11.321   4.440  66.247  1.00  0.00     0.000 HD 
BRANCH   6   9
HETATM    9  C   UNL     1     -10.809   5.873  68.278  1.00  0.00    -0.325 C  
HETATM   10  C   UNL     1     -10.099   5.752  69.412  1.00  0.00    -0.277 C  
BRANCH  10  11
HETATM   11  C   UNL     1     -10.710   5.531  70.779  1.00  0.00    -0.294 C  
HETATM   12  C   UNL     1      -9.762   4.676  71.647  1.00  0.00    -0.172 C  
HETATM   13  O   UNL     1      -9.859   3.292  71.339  1.00  0.00    -0.171 OA 
HETATM   14  C   UNL     1     -10.181   4.935  73.078  1.00  0.00    -0.216 C  
HETATM   15  H   UNL     1      -9.276   2.766  71.874  1.00  0.00     0.000 HD 
HETATM   16  C   UNL     1     -10.592   6.373  73.004  1.00  0.00    -0.242 C  
HETATM   17  O   UNL     1     -10.636   7.093  73.994  1.00  0.00    -0.317 OA 
HETATM   18  C   UNL     1     -10.951   6.824  71.596  1.00  0.00    -0.267 C  
BRANCH  18  19
HETATM   19  C   UNL     1     -12.414   7.294  71.483  1.00  0.00    -0.408 C  
BRANCH  19  20
HETATM   20  C   UNL     1     -12.571   8.800  71.232  1.00  0.00    -0.285 C  
BRANCH  20  21
HETATM   21  C   UNL     1     -11.218   9.507  71.121  1.00  0.00    -0.446 C  
BRANCH  21  22
HETATM   22  C   UNL     1     -10.843   9.748  69.656  1.00  0.00    -0.274 C  
BRANCH  22  23
HETATM   23  C   UNL     1      -9.380  10.169  69.516  1.00  0.00    -0.230 C  
BRANCH  23  24
HETATM   24  C   UNL     1      -8.468   8.969  69.258  1.00  0.00    -0.128 C  
HETATM   25  C   UNL     1      -7.799   8.495  70.529  1.00  0.00    -0.086 C  
HETATM   26  O   UNL     1      -7.950   8.986  71.635  1.00  0.00    -0.326 OA 
HETATM   27  O   UNL     1      -6.985   7.437  70.312  1.00  0.00    -0.057 OA 
ENDBRANCH  23  24
ENDBRANCH  22  23
ENDBRANCH  21  22
ENDBRANCH  20  21
ENDBRANCH  19  20
ENDBRANCH  18  19
ENDBRANCH  10  11
ENDBRANCH   6   9
ENDBRANCH   5   6
ENDBRANCH   4   5
ENDBRANCH   3   4
ENDBRANCH   2   3
TORSDOF 12
ENDMDL
MODEL      189
REMARK 921   NORMALIZED FREE ENERGY PREDICTED BY IDOCK:   -4.26 KCAL/MOL
REMARK 922        TOTAL FREE ENERGY PREDICTED BY IDOCK:   -9.20 KCAL/MOL
REMARK 923 INTER-LIGAND FREE ENERGY PREDICTED BY IDOCK:   -7.20 KCAL/MOL
REMARK 924 INTRA-LIGAND FREE ENERGY PREDICTED BY IDOCK:   -1.99 KCAL/MOL
REMARK 927      BINDING AFFINITY PREDICTED BY RF-SCORE:    0.00 PKD
ROOT
HETATM    1  C   UNL     1      -5.732  13.129  70.849  1.00  0.00    -0.150 C  
HETATM    2  C   UNL     1      -5.303  14.557  70.565  1.00  0.00    -0.125 C  
ENDROOT
BRANCH   2   3
HETATM    3  C   UNL     1      -5.891  15.084  69.255  1.00  0.00    -0.103 C  
BRANCH   3   4
HETATM    4  C   UNL     1      -7.098  14.241  68.845  1.00  0.00    -0.113 C  
BRANCH   4   5
HETATM    5  C   UNL     1      -8.332  15.090  68.536  1.00  0.00    -0.161 C  
BRANCH   5   6
HETATM    6  C   UNL     1      -9.599  14.251  68.295  1.00  0.00    -0.221 C  
HETATM    7  O   UNL     1     -10.480  14.493  69.387  1.00  0.00    -0.350 OA 
HETATM    8  H   UNL     1     -11.263  13.974  69.238  1.00  0.00     0.000 HD 
BRANCH   6   9
HETATM    9  C   UNL     1      -9.308  12.773  68.154  1.00  0.00    -0.214 C  
HETATM   10  C   UNL     1     -10.182  11.759  68.264  1.00  0.00    -0.209 C  
BRANCH  10  11
HETATM   11  C   UNL     1      -9.793  10.296  68.267  1.00  0.00    -0.161 C  
HETATM   12  C   UNL     1     -10.669   9.521  69.274  1.00  0.00    -0.222 C  
HETATM   13  O   UNL     1     -10.216   9.683  70.612  1.00  0.00    -0.276 OA 
HETATM   14  C   UNL     1     -10.582   8.070  68.853  1.00  0.00    -0.160 C  
HETATM   15  H   UNL     1     -10.755   9.205  71.231  1.00  0.00     0.000 HD 
HETATM   16  C   UNL     1     -10.491   8.206  67.365  1.00  0.00    -0.285 C  
HETATM   17  O   UNL     1     -10.785   7.290  66.605  1.00  0.00    -0.243 OA 
HETATM   18  C   UNL     1      -9.993   9.571  66.914  1.00  0.00    -0.278 C  
BRANCH  18  19
HETATM   19  C   UNL     1      -8.674   9.485  66.123  1.00  0.00    -0.162 C  
BRANCH  19  20
HETATM   20  C   UNL     1      -8.759  10.055  64.700  1.00  0.00    -0.210 C  
BRANCH  20  21
HETATM   21  C   UNL     1     -10.149  10.617  64.388  1.00  0.00    -0.418 C  
BRANCH  21  22
HETATM   22  C   UNL     1     -10.062  12.077  63.934  1.00  0.00    -0.394 C  
BRANCH  22  23
HETATM   23  C   UNL     1     -11.035  12.963  64.713  1.00  0.00    -0.344 C  
BRANCH  23  24
HETATM   24  C   UNL     1     -10.524  14.400  64.826  1.00  0.00    -0.394 C  
HETATM   25  C   UNL     1     -11.561  15.397  64.360  1.00  0.00    -0.264 C  
HETATM   26  O   UNL     1     -12.673  15.121  63.944  1.00  0.00    -0.759 OA 
HETATM   27  O   UNL     1     -11.117  16.672  64.451  1.00  0.00    -0.985 OA 
ENDBRANCH  23  24
ENDBRANCH  22  23
ENDBRANCH  21  22
ENDBRANCH  20  21
ENDBRANCH  19  20
ENDBRANCH  18  19
ENDBRANCH  10  11
ENDBRANCH   6   9
ENDBRANCH   5   6
ENDBRANCH   4   5
ENDBRANCH   3   4
ENDBRANCH   2   3
TORSDOF 12
ENDMDL
MODEL      190
REMARK 921   NORMALIZED FREE ENERGY PREDICTED BY IDOCK:   -4.26 KCAL/MOL
REMARK 922        TOTAL FREE ENERGY PREDICTED BY IDOCK:   -9.19 KCAL/MOL
REMARK 923 INTER-LIGAND FREE ENERGY PREDICTED BY IDOCK:   -7.75 KCAL/MOL
REMARK 924 INTRA-LIGAND FREE ENERGY PREDICTED BY IDOCK:   -1.44 KCAL/MOL
REMARK 927      BINDING AFFINITY PREDICTED BY RF-SCORE:    0.00 PKD
ROOT
HETATM    1  C   UNL     1     -11.807  14.599  64.540  1.00  0.00    -0.442 C  
HETATM    2  C   UNL     1     -10.823  15.702  64.885  1.00  0.00    -0.438 C  
ENDROOT
BRANCH   2   3
HETATM    3  C   UNL     1     -10.503  15.738  66.381  1.00  0.00    -0.307 C  
BRANCH   3   4
HETATM    4  C   UNL     1     -11.471  14.838  67.146  1.00  0.00    -0.375 C  
BRANCH   4   5
HETATM    5  C   UNL     1     -10.755  13.893  68.114  1.00  0.00    -0.260 C  
BRANCH   5   6
HETATM    6  C   UNL     1     -10.874  12.413  67.714  1.00  0.00    -0.225 C  
HETATM    7  O   UNL     1     -12.089  12.268  66.985  1.00  0.00    -0.575 OA 
HETATM    8  H   UNL     1     -12.163  11.353  66.738  1.00  0.00     0.000 HD 
BRANCH   6   9
HETATM    9  C   UNL     1     -10.844  11.477  68.902  1.00  0.00    -0.263 C  
HETATM   10  C   UNL     1     -11.893  11.038  69.618  1.00  0.00    -0.414 C  
BRANCH  10  11
HETATM   11  C   UNL     1     -11.776  10.228  70.891  1.00  0.00    -0.472 C  
HETATM   12  C   UNL     1     -13.159  10.103  71.564  1.00  0.00    -0.429 C  
HETATM   13  O   UNL     1     -13.506  11.272  72.294  1.00  0.00    -0.604 OA 
HETATM   14  C   UNL     1     -13.054   8.908  72.488  1.00  0.00    -0.426 C  
HETATM   15  H   UNL     1     -14.358  11.195  72.709  1.00  0.00     0.000 HD 
HETATM   16  C   UNL     1     -12.136   8.020  71.707  1.00  0.00    -0.305 C  
HETATM   17  O   UNL     1     -12.082   6.809  71.893  1.00  0.00    -0.315 OA 
HETATM   18  C   UNL     1     -11.290   8.772  70.691  1.00  0.00    -0.289 C  
BRANCH  18  19
HETATM   19  C   UNL     1      -9.780   8.641  70.968  1.00  0.00    -0.266 C  
BRANCH  19  20
HETATM   20  C   UNL     1      -8.968   8.116  69.776  1.00  0.00    -0.144 C  
BRANCH  20  21
HETATM   21  C   UNL     1      -9.858   7.451  68.722  1.00  0.00    -0.164 C  
BRANCH  21  22
HETATM   22  C   UNL     1      -9.468   7.902  67.311  1.00  0.00    -0.188 C  
BRANCH  22  23
HETATM   23  C   UNL     1      -8.715   6.802  66.563  1.00  0.00    -0.139 C  
BRANCH  23  24
HETATM   24  C   UNL     1      -8.750   5.475  67.322  1.00  0.00    -0.107 C  
HETATM   25  C   UNL     1      -9.594   4.445  66.604  1.00  0.00    -0.198 C  
HETATM   26  O   UNL     1     -10.181   4.620  65.550  1.00  0.00    -0.219 OA 
HETATM   27  O   UNL     1      -9.637   3.269  67.270  1.00  0.00    -0.193 OA 
ENDBRANCH  23  24
ENDBRANCH  22  23
ENDBRANCH  21  22
ENDBRANCH  20  21
ENDBRANCH  19  20
ENDBRANCH  18  19
ENDBRANCH  10  11
ENDBRANCH   6   9
ENDBRANCH   5   6
ENDBRANCH   4   5
ENDBRANCH   3   4
ENDBRANCH   2   3
TORSDOF 12
ENDMDL
MODEL      191
REMARK 921   NORMALIZED FREE ENERGY PREDICTED BY IDOCK:   -4.25 KCAL/MOL
REMARK 922        TOTAL FREE ENERGY PREDICTED BY IDOCK:   -9.19 KCAL/MOL
REMARK 923 INTER-LIGAND FREE ENERGY PREDICTED BY IDOCK:   -7.99 KCAL/MOL
REMARK 924 INTRA-LIGAND FREE ENERGY PREDICTED BY IDOCK:   -1.20 KCAL/MOL
REMARK 927      BINDING AFFINITY PREDICTED BY RF-SCORE:    0.00 PKD
ROOT
HETATM    1  C   UNL     1     -12.473  15.867  73.538  1.00  0.00    -0.683 C  
HETATM    2  C   UNL     1     -12.330  15.579  72.054  1.00  0.00    -0.478 C  
ENDROOT
BRANCH   2   3
HETATM    3  C   UNL     1     -13.095  14.322  71.637  1.00  0.00    -0.417 C  
BRANCH   3   4
HETATM    4  C   UNL     1     -12.293  13.541  70.597  1.00  0.00    -0.432 C  
BRANCH   4   5
HETATM    5  C   UNL     1     -12.358  12.028  70.819  1.00  0.00    -0.403 C  
BRANCH   5   6
HETATM    6  C   UNL     1     -12.033  11.217  69.553  1.00  0.00    -0.351 C  
HETATM    7  O   UNL     1     -11.050  10.251  69.910  1.00  0.00    -0.261 OA 
HETATM    8  H   UNL     1     -10.849   9.750  69.128  1.00  0.00     0.000 HD 
BRANCH   6   9
HETATM    9  C   UNL     1     -11.549  12.080  68.409  1.00  0.00    -0.368 C  
HETATM   10  C   UNL     1     -10.481  11.865  67.624  1.00  0.00    -0.232 C  
BRANCH  10  11
HETATM   11  C   UNL     1      -9.964  12.852  66.599  1.00  0.00    -0.251 C  
HETATM   12  C   UNL     1     -10.233  12.322  65.175  1.00  0.00    -0.279 C  
HETATM   13  O   UNL     1      -9.275  11.349  64.777  1.00  0.00    -0.368 OA 
HETATM   14  C   UNL     1     -10.169  13.535  64.272  1.00  0.00    -0.036 C  
HETATM   15  H   UNL     1      -9.441  11.023  63.900  1.00  0.00     0.000 HD 
HETATM   16  C   UNL     1     -10.736  14.592  65.168  1.00  0.00    -0.406 C  
HETATM   17  O   UNL     1     -11.219  15.630  64.731  1.00  0.00    -0.430 OA 
HETATM   18  C   UNL     1     -10.636  14.246  66.646  1.00  0.00    -0.278 C  
BRANCH  18  19
HETATM   19  C   UNL     1      -9.779  15.256  67.432  1.00  0.00    -0.208 C  
BRANCH  19  20
HETATM   20  C   UNL     1      -8.704  15.955  66.587  1.00  0.00    -0.324 C  
BRANCH  20  21
HETATM   21  C   UNL     1      -7.336  15.943  67.274  1.00  0.00    -0.251 C  
BRANCH  21  22
HETATM   22  C   UNL     1      -7.485  16.041  68.795  1.00  0.00    -0.176 C  
BRANCH  22  23
HETATM   23  C   UNL     1      -6.964  17.378  69.322  1.00  0.00    -0.175 C  
BRANCH  23  24
HETATM   24  C   UNL     1      -7.180  18.506  68.312  1.00  0.00    -0.279 C  
HETATM   25  C   UNL     1      -6.745  19.843  68.869  1.00  0.00    -0.322 C  
HETATM   26  O   UNL     1      -6.276  20.029  69.979  1.00  0.00    -0.330 OA 
HETATM   27  O   UNL     1      -6.937  20.849  67.986  1.00  0.00    -0.252 OA 
ENDBRANCH  23  24
ENDBRANCH  22  23
ENDBRANCH  21  22
ENDBRANCH  20  21
ENDBRANCH  19  20
ENDBRANCH  18  19
ENDBRANCH  10  11
ENDBRANCH   6   9
ENDBRANCH   5   6
ENDBRANCH   4   5
ENDBRANCH   3   4
ENDBRANCH   2   3
TORSDOF 12
ENDMDL
MODEL      192
REMARK 921   NORMALIZED FREE ENERGY PREDICTED BY IDOCK:   -4.24 KCAL/MOL
REMARK 922        TOTAL FREE ENERGY PREDICTED BY IDOCK:   -9.17 KCAL/MOL
REMARK 923 INTER-LIGAND FREE ENERGY PREDICTED BY IDOCK:   -7.16 KCAL/MOL
REMARK 924 INTRA-LIGAND FREE ENERGY PREDICTED BY IDOCK:   -2.01 KCAL/MOL
REMARK 927      BINDING AFFINITY PREDICTED BY RF-SCORE:    0.00 PKD
ROOT
HETATM    1  C   UNL     1     -10.168  16.983  67.141  1.00  0.00    -0.306 C  
HETATM    2  C   UNL     1     -10.244  16.018  65.971  1.00  0.00    -0.360 C  
ENDROOT
BRANCH   2   3
HETATM    3  C   UNL     1     -11.055  14.766  66.312  1.00  0.00    -0.341 C  
BRANCH   3   4
HETATM    4  C   UNL     1     -11.603  14.868  67.734  1.00  0.00    -0.358 C  
BRANCH   4   5
HETATM    5  C   UNL     1     -10.869  13.951  68.715  1.00  0.00    -0.282 C  
BRANCH   5   6
HETATM    6  C   UNL     1     -11.658  12.675  69.056  1.00  0.00    -0.317 C  
HETATM    7  O   UNL     1     -11.424  12.388  70.431  1.00  0.00    -0.490 OA 
HETATM    8  H   UNL     1     -11.911  11.599  70.642  1.00  0.00     0.000 HD 
BRANCH   6   9
HETATM    9  C   UNL     1     -11.276  11.497  68.187  1.00  0.00    -0.335 C  
HETATM   10  C   UNL     1     -10.125  11.319  67.519  1.00  0.00    -0.207 C  
BRANCH  10  11
HETATM   11  C   UNL     1      -9.873  10.191  66.541  1.00  0.00    -0.268 C  
HETATM   12  C   UNL     1      -9.598  10.765  65.135  1.00  0.00    -0.245 C  
HETATM   13  O   UNL     1     -10.796  11.129  64.463  1.00  0.00    -0.326 OA 
HETATM   14  C   UNL     1      -8.877   9.666  64.384  1.00  0.00    -0.263 C  
HETATM   15  H   UNL     1     -10.626  11.482  63.597  1.00  0.00     0.000 HD 
HETATM   16  C   UNL     1      -8.075   9.042  65.483  1.00  0.00    -0.110 C  
HETATM   17  O   UNL     1      -7.072   8.373  65.263  1.00  0.00    -0.073 OA 
HETATM   18  C   UNL     1      -8.639   9.314  66.869  1.00  0.00    -0.132 C  
BRANCH  18  19
HETATM   19  C   UNL     1      -9.049   8.023  67.603  1.00  0.00    -0.144 C  
BRANCH  19  20
HETATM   20  C   UNL     1     -10.246   7.298  66.974  1.00  0.00    -0.348 C  
BRANCH  20  21
HETATM   21  C   UNL     1     -10.910   6.327  67.954  1.00  0.00    -0.417 C  
BRANCH  21  22
HETATM   22  C   UNL     1     -10.140   6.271  69.277  1.00  0.00    -0.213 C  
BRANCH  22  23
HETATM   23  C   UNL     1     -11.036   6.638  70.460  1.00  0.00    -0.359 C  
BRANCH  23  24
HETATM   24  C   UNL     1     -11.534   8.081  70.365  1.00  0.00    -0.140 C  
HETATM   25  C   UNL     1     -11.711   8.700  71.733  1.00  0.00    -0.331 C  
HETATM   26  O   UNL     1     -11.491   8.145  72.796  1.00  0.00    -0.408 OA 
HETATM   27  O   UNL     1     -12.157   9.975  71.661  1.00  0.00    -0.387 OA 
ENDBRANCH  23  24
ENDBRANCH  22  23
ENDBRANCH  21  22
ENDBRANCH  20  21
ENDBRANCH  19  20
ENDBRANCH  18  19
ENDBRANCH  10  11
ENDBRANCH   6   9
ENDBRANCH   5   6
ENDBRANCH   4   5
ENDBRANCH   3   4
ENDBRANCH   2   3
TORSDOF 12
ENDMDL
MODEL      193
REMARK 921   NORMALIZED FREE ENERGY PREDICTED BY IDOCK:   -4.23 KCAL/MOL
REMARK 922        TOTAL FREE ENERGY PREDICTED BY IDOCK:   -9.15 KCAL/MOL
REMARK 923 INTER-LIGAND FREE ENERGY PREDICTED BY IDOCK:   -7.32 KCAL/MOL
REMARK 924 INTRA-LIGAND FREE ENERGY PREDICTED BY IDOCK:   -1.83 KCAL/MOL
REMARK 927      BINDING AFFINITY PREDICTED BY RF-SCORE:    0.00 PKD
ROOT
HETATM    1  C   UNL     1     -11.512  12.676  63.667  1.00  0.00    -0.563 C  
HETATM    2  C   UNL     1     -10.596  11.465  63.686  1.00  0.00    -0.476 C  
ENDROOT
BRANCH   2   3
HETATM    3  C   UNL     1     -10.479  10.855  65.084  1.00  0.00    -0.316 C  
BRANCH   3   4
HETATM    4  C   UNL     1      -9.450  11.626  65.908  1.00  0.00    -0.246 C  
BRANCH   4   5
HETATM    5  C   UNL     1      -9.908  11.864  67.349  1.00  0.00    -0.192 C  
BRANCH   5   6
HETATM    6  C   UNL     1     -11.421  11.668  67.542  1.00  0.00    -0.289 C  
HETATM    7  O   UNL     1     -12.036  12.942  67.385  1.00  0.00    -0.333 OA 
HETATM    8  H   UNL     1     -12.972  12.821  67.505  1.00  0.00     0.000 HD 
BRANCH   6   9
HETATM    9  C   UNL     1     -11.770  11.062  68.884  1.00  0.00    -0.400 C  
HETATM   10  C   UNL     1     -10.917  10.604  69.815  1.00  0.00    -0.340 C  
BRANCH  10  11
HETATM   11  C   UNL     1     -11.339   9.866  71.068  1.00  0.00    -0.460 C  
HETATM   12  C   UNL     1     -12.865   9.994  71.265  1.00  0.00    -0.402 C  
HETATM   13  O   UNL     1     -13.227  11.245  71.835  1.00  0.00    -0.482 OA 
HETATM   14  C   UNL     1     -13.250   8.857  72.187  1.00  0.00    -0.478 C  
HETATM   15  H   UNL     1     -14.166  11.324  71.956  1.00  0.00     0.000 HD 
HETATM   16  C   UNL     1     -12.293   7.793  71.749  1.00  0.00    -0.317 C  
HETATM   17  O   UNL     1     -12.498   6.602  71.954  1.00  0.00    -0.344 OA 
HETATM   18  C   UNL     1     -11.060   8.343  71.048  1.00  0.00    -0.298 C  
BRANCH  18  19
HETATM   19  C   UNL     1      -9.756   8.002  71.794  1.00  0.00    -0.233 C  
BRANCH  19  20
HETATM   20  C   UNL     1      -9.074   6.716  71.307  1.00  0.00    -0.151 C  
BRANCH  20  21
HETATM   21  C   UNL     1      -7.622   6.959  70.885  1.00  0.00    -0.087 C  
BRANCH  21  22
HETATM   22  C   UNL     1      -7.388   6.511  69.440  1.00  0.00    -0.092 C  
BRANCH  22  23
HETATM   23  C   UNL     1      -7.224   7.708  68.504  1.00  0.00    -0.086 C  
BRANCH  23  24
HETATM   24  C   UNL     1      -8.556   8.416  68.251  1.00  0.00    -0.139 C  
HETATM   25  C   UNL     1      -9.393   7.680  67.229  1.00  0.00    -0.144 C  
HETATM   26  O   UNL     1      -9.073   6.650  66.661  1.00  0.00    -0.135 OA 
HETATM   27  O   UNL     1     -10.571   8.300  66.993  1.00  0.00    -0.321 OA 
ENDBRANCH  23  24
ENDBRANCH  22  23
ENDBRANCH  21  22
ENDBRANCH  20  21
ENDBRANCH  19  20
ENDBRANCH  18  19
ENDBRANCH  10  11
ENDBRANCH   6   9
ENDBRANCH   5   6
ENDBRANCH   4   5
ENDBRANCH   3   4
ENDBRANCH   2   3
TORSDOF 12
ENDMDL
MODEL      194
REMARK 921   NORMALIZED FREE ENERGY PREDICTED BY IDOCK:   -4.23 KCAL/MOL
REMARK 922        TOTAL FREE ENERGY PREDICTED BY IDOCK:   -9.14 KCAL/MOL
REMARK 923 INTER-LIGAND FREE ENERGY PREDICTED BY IDOCK:   -7.95 KCAL/MOL
REMARK 924 INTRA-LIGAND FREE ENERGY PREDICTED BY IDOCK:   -1.20 KCAL/MOL
REMARK 927      BINDING AFFINITY PREDICTED BY RF-SCORE:    0.00 PKD
ROOT
HETATM    1  C   UNL     1     -10.085   4.345  65.985  1.00  0.00    -0.260 C  
HETATM    2  C   UNL     1      -9.032   5.349  65.551  1.00  0.00    -0.149 C  
ENDROOT
BRANCH   2   3
HETATM    3  C   UNL     1      -9.155   6.673  66.308  1.00  0.00    -0.168 C  
BRANCH   3   4
HETATM    4  C   UNL     1     -10.577   6.844  66.838  1.00  0.00    -0.372 C  
BRANCH   4   5
HETATM    5  C   UNL     1     -10.645   7.773  68.052  1.00  0.00    -0.201 C  
BRANCH   5   6
HETATM    6  C   UNL     1      -9.700   8.982  67.942  1.00  0.00    -0.155 C  
HETATM    7  O   UNL     1      -9.402   9.408  69.267  1.00  0.00    -0.156 OA 
HETATM    8  H   UNL     1      -8.818  10.155  69.199  1.00  0.00     0.000 HD 
BRANCH   6   9
HETATM    9  C   UNL     1     -10.286  10.116  67.129  1.00  0.00    -0.295 C  
HETATM   10  C   UNL     1      -9.891  10.535  65.916  1.00  0.00    -0.291 C  
BRANCH  10  11
HETATM   11  C   UNL     1     -10.419  11.776  65.230  1.00  0.00    -0.320 C  
HETATM   12  C   UNL     1     -11.200  11.383  63.958  1.00  0.00    -0.269 C  
HETATM   13  O   UNL     1     -10.335  11.102  62.865  1.00  0.00    -0.649 OA 
HETATM   14  C   UNL     1     -12.088  12.569  63.645  1.00  0.00    -0.642 C  
HETATM   15  H   UNL     1     -10.816  10.860  62.083  1.00  0.00     0.000 HD 
HETATM   16  C   UNL     1     -12.419  13.053  65.022  1.00  0.00    -0.477 C  
HETATM   17  O   UNL     1     -13.403  13.747  65.253  1.00  0.00    -0.710 OA 
HETATM   18  C   UNL     1     -11.414  12.609  66.075  1.00  0.00    -0.414 C  
BRANCH  18  19
HETATM   19  C   UNL     1     -10.712  13.798  66.758  1.00  0.00    -0.276 C  
BRANCH  19  20
HETATM   20  C   UNL     1      -9.194  13.630  66.901  1.00  0.00    -0.257 C  
BRANCH  20  21
HETATM   21  C   UNL     1      -8.477  14.975  67.041  1.00  0.00    -0.258 C  
BRANCH  21  22
HETATM   22  C   UNL     1      -9.125  16.038  66.148  1.00  0.00    -0.387 C  
BRANCH  22  23
HETATM   23  C   UNL     1      -8.709  17.448  66.567  1.00  0.00    -0.290 C  
BRANCH  23  24
HETATM   24  C   UNL     1      -8.104  17.465  67.971  1.00  0.00    -0.227 C  
HETATM   25  C   UNL     1      -7.164  18.635  68.158  1.00  0.00    -0.252 C  
HETATM   26  O   UNL     1      -6.903  19.476  67.315  1.00  0.00    -0.201 OA 
HETATM   27  O   UNL     1      -6.619  18.656  69.395  1.00  0.00    -0.269 OA 
ENDBRANCH  23  24
ENDBRANCH  22  23
ENDBRANCH  21  22
ENDBRANCH  20  21
ENDBRANCH  19  20
ENDBRANCH  18  19
ENDBRANCH  10  11
ENDBRANCH   6   9
ENDBRANCH   5   6
ENDBRANCH   4   5
ENDBRANCH   3   4
ENDBRANCH   2   3
TORSDOF 12
ENDMDL
MODEL      195
REMARK 921   NORMALIZED FREE ENERGY PREDICTED BY IDOCK:   -4.22 KCAL/MOL
REMARK 922        TOTAL FREE ENERGY PREDICTED BY IDOCK:   -9.13 KCAL/MOL
REMARK 923 INTER-LIGAND FREE ENERGY PREDICTED BY IDOCK:   -7.93 KCAL/MOL
REMARK 924 INTRA-LIGAND FREE ENERGY PREDICTED BY IDOCK:   -1.20 KCAL/MOL
REMARK 927      BINDING AFFINITY PREDICTED BY RF-SCORE:    0.00 PKD
ROOT
HETATM    1  C   UNL     1     -10.803   4.644  74.042  1.00  0.00    -0.328 C  
HETATM    2  C   UNL     1     -10.682   4.862  72.545  1.00  0.00    -0.258 C  
ENDROOT
BRANCH   2   3
HETATM    3  C   UNL     1      -9.351   4.346  71.995  1.00  0.00    -0.180 C  
BRANCH   3   4
HETATM    4  C   UNL     1      -8.490   5.517  71.523  1.00  0.00    -0.127 C  
BRANCH   4   5
HETATM    5  C   UNL     1      -8.024   6.407  72.677  1.00  0.00    -0.104 C  
BRANCH   5   6
HETATM    6  C   UNL     1      -8.145   7.909  72.368  1.00  0.00    -0.130 C  
HETATM    7  O   UNL     1      -7.522   8.613  73.438  1.00  0.00    -0.357 OA 
HETATM    8  H   UNL     1      -7.597   9.541  73.247  1.00  0.00     0.000 HD 
BRANCH   6   9
HETATM    9  C   UNL     1      -9.578   8.360  72.189  1.00  0.00    -0.367 C  
HETATM   10  C   UNL     1     -10.269   8.432  71.039  1.00  0.00    -0.245 C  
BRANCH  10  11
HETATM   11  C   UNL     1     -11.649   9.043  70.912  1.00  0.00    -0.344 C  
HETATM   12  C   UNL     1     -12.453   8.802  72.207  1.00  0.00    -0.386 C  
HETATM   13  O   UNL     1     -12.997   7.490  72.262  1.00  0.00    -0.500 OA 
HETATM   14  C   UNL     1     -13.557   9.838  72.197  1.00  0.00    -0.432 C  
HETATM   15  H   UNL     1     -13.492   7.342  73.059  1.00  0.00     0.000 HD 
HETATM   16  C   UNL     1     -12.864  10.991  71.542  1.00  0.00    -0.450 C  
HETATM   17  O   UNL     1     -13.251  12.147  71.672  1.00  0.00    -0.406 OA 
HETATM   18  C   UNL     1     -11.662  10.577  70.707  1.00  0.00    -0.454 C  
BRANCH  18  19
HETATM   19  C   UNL     1     -11.823  10.943  69.219  1.00  0.00    -0.395 C  
BRANCH  19  20
HETATM   20  C   UNL     1     -11.096  12.231  68.809  1.00  0.00    -0.295 C  
BRANCH  20  21
HETATM   21  C   UNL     1     -11.415  12.638  67.368  1.00  0.00    -0.397 C  
BRANCH  21  22
HETATM   22  C   UNL     1     -10.308  13.524  66.790  1.00  0.00    -0.264 C  
BRANCH  22  23
HETATM   23  C   UNL     1     -10.062  14.753  67.666  1.00  0.00    -0.227 C  
BRANCH  23  24
HETATM   24  C   UNL     1     -10.404  16.050  66.930  1.00  0.00    -0.289 C  
HETATM   25  C   UNL     1     -10.665  17.184  67.894  1.00  0.00    -0.355 C  
HETATM   26  O   UNL     1     -10.616  17.107  69.110  1.00  0.00    -0.324 OA 
HETATM   27  O   UNL     1     -10.974  18.335  67.254  1.00  0.00    -0.312 OA 
ENDBRANCH  23  24
ENDBRANCH  22  23
ENDBRANCH  21  22
ENDBRANCH  20  21
ENDBRANCH  19  20
ENDBRANCH  18  19
ENDBRANCH  10  11
ENDBRANCH   6   9
ENDBRANCH   5   6
ENDBRANCH   4   5
ENDBRANCH   3   4
ENDBRANCH   2   3
TORSDOF 12
ENDMDL
MODEL      196
REMARK 921   NORMALIZED FREE ENERGY PREDICTED BY IDOCK:   -4.20 KCAL/MOL
REMARK 922        TOTAL FREE ENERGY PREDICTED BY IDOCK:   -9.09 KCAL/MOL
REMARK 923 INTER-LIGAND FREE ENERGY PREDICTED BY IDOCK:   -6.57 KCAL/MOL
REMARK 924 INTRA-LIGAND FREE ENERGY PREDICTED BY IDOCK:   -2.52 KCAL/MOL
REMARK 927      BINDING AFFINITY PREDICTED BY RF-SCORE:    0.00 PKD
ROOT
HETATM    1  C   UNL     1     -12.530  11.968  63.594  1.00  0.00    -0.637 C  
HETATM    2  C   UNL     1     -11.096  12.439  63.761  1.00  0.00    -0.506 C  
ENDROOT
BRANCH   2   3
HETATM    3  C   UNL     1     -10.896  13.221  65.060  1.00  0.00    -0.335 C  
BRANCH   3   4
HETATM    4  C   UNL     1     -11.619  12.521  66.210  1.00  0.00    -0.449 C  
BRANCH   4   5
HETATM    5  C   UNL     1     -11.861  13.448  67.404  1.00  0.00    -0.418 C  
BRANCH   5   6
HETATM    6  C   UNL     1     -11.631  12.759  68.760  1.00  0.00    -0.312 C  
HETATM    7  O   UNL     1     -10.926  13.679  69.587  1.00  0.00    -0.453 OA 
HETATM    8  H   UNL     1     -10.784  13.254  70.425  1.00  0.00     0.000 HD 
BRANCH   6   9
HETATM    9  C   UNL     1     -10.873  11.455  68.637  1.00  0.00    -0.249 C  
HETATM   10  C   UNL     1     -11.007  10.362  69.406  1.00  0.00    -0.296 C  
BRANCH  10  11
HETATM   11  C   UNL     1     -10.105   9.149  69.327  1.00  0.00    -0.196 C  
HETATM   12  C   UNL     1      -9.472   8.872  70.707  1.00  0.00    -0.228 C  
HETATM   13  O   UNL     1      -8.365   9.725  70.967  1.00  0.00    -0.352 OA 
HETATM   14  C   UNL     1      -9.034   7.424  70.668  1.00  0.00    -0.155 C  
HETATM   15  H   UNL     1      -7.976   9.554  71.817  1.00  0.00     0.000 HD 
HETATM   16  C   UNL     1     -10.109   6.819  69.820  1.00  0.00    -0.183 C  
HETATM   17  O   UNL     1     -10.364   5.620  69.842  1.00  0.00    -0.226 OA 
HETATM   18  C   UNL     1     -10.824   7.833  68.939  1.00  0.00    -0.022 C  
BRANCH  18  19
HETATM   19  C   UNL     1     -10.663   7.527  67.438  1.00  0.00    -0.331 C  
BRANCH  19  20
HETATM   20  C   UNL     1      -9.210   7.296  66.999  1.00  0.00    -0.170 C  
BRANCH  20  21
HETATM   21  C   UNL     1      -8.851   8.108  65.751  1.00  0.00    -0.173 C  
BRANCH  21  22
HETATM   22  C   UNL     1      -9.370   9.545  65.864  1.00  0.00    -0.285 C  
BRANCH  22  23
HETATM   23  C   UNL     1      -8.253  10.562  65.629  1.00  0.00    -0.161 C  
BRANCH  23  24
HETATM   24  C   UNL     1      -7.352  10.706  66.857  1.00  0.00    -0.114 C  
HETATM   25  C   UNL     1      -5.941  11.087  66.470  1.00  0.00    -0.131 C  
HETATM   26  O   UNL     1      -5.541  11.265  65.332  1.00  0.00    -0.149 OA 
HETATM   27  O   UNL     1      -5.134  11.211  67.548  1.00  0.00    -0.037 OA 
ENDBRANCH  23  24
ENDBRANCH  22  23
ENDBRANCH  21  22
ENDBRANCH  20  21
ENDBRANCH  19  20
ENDBRANCH  18  19
ENDBRANCH  10  11
ENDBRANCH   6   9
ENDBRANCH   5   6
ENDBRANCH   4   5
ENDBRANCH   3   4
ENDBRANCH   2   3
TORSDOF 12
ENDMDL
MODEL      197
REMARK 921   NORMALIZED FREE ENERGY PREDICTED BY IDOCK:   -4.20 KCAL/MOL
REMARK 922        TOTAL FREE ENERGY PREDICTED BY IDOCK:   -9.09 KCAL/MOL
REMARK 923 INTER-LIGAND FREE ENERGY PREDICTED BY IDOCK:   -6.55 KCAL/MOL
REMARK 924 INTRA-LIGAND FREE ENERGY PREDICTED BY IDOCK:   -2.54 KCAL/MOL
REMARK 927      BINDING AFFINITY PREDICTED BY RF-SCORE:    0.00 PKD
ROOT
HETATM    1  C   UNL     1      -6.006  11.703  69.159  1.00  0.00    -0.064 C  
HETATM    2  C   UNL     1      -7.317  11.043  68.773  1.00  0.00    -0.111 C  
ENDROOT
BRANCH   2   3
HETATM    3  C   UNL     1      -8.296  12.037  68.143  1.00  0.00    -0.165 C  
BRANCH   3   4
HETATM    4  C   UNL     1      -9.684  11.408  68.034  1.00  0.00    -0.190 C  
BRANCH   4   5
HETATM    5  C   UNL     1     -10.783  12.306  68.608  1.00  0.00    -0.261 C  
BRANCH   5   6
HETATM    6  C   UNL     1     -11.803  11.538  69.466  1.00  0.00    -0.351 C  
HETATM    7  O   UNL     1     -12.023  12.302  70.647  1.00  0.00    -0.491 OA 
HETATM    8  H   UNL     1     -12.654  11.828  71.177  1.00  0.00     0.000 HD 
BRANCH   6   9
HETATM    9  C   UNL     1     -11.350  10.136  69.808  1.00  0.00    -0.312 C  
HETATM   10  C   UNL     1     -11.016   9.663  71.019  1.00  0.00    -0.431 C  
BRANCH  10  11
HETATM   11  C   UNL     1     -10.420   8.293  71.264  1.00  0.00    -0.262 C  
HETATM   12  C   UNL     1      -9.629   8.292  72.590  1.00  0.00    -0.282 C  
HETATM   13  O   UNL     1      -8.339   8.869  72.442  1.00  0.00    -0.386 OA 
HETATM   14  C   UNL     1      -9.521   6.838  72.996  1.00  0.00    -0.159 C  
HETATM   15  H   UNL     1      -7.852   8.868  73.258  1.00  0.00     0.000 HD 
HETATM   16  C   UNL     1     -10.831   6.303  72.507  1.00  0.00    -0.240 C  
HETATM   17  O   UNL     1     -11.326   5.275  72.954  1.00  0.00    -0.294 OA 
HETATM   18  C   UNL     1     -11.457   7.152  71.411  1.00  0.00    -0.303 C  
BRANCH  18  19
HETATM   19  C   UNL     1     -11.629   6.377  70.090  1.00  0.00    -0.449 C  
BRANCH  19  20
HETATM   20  C   UNL     1     -10.388   5.579  69.667  1.00  0.00    -0.359 C  
BRANCH  20  21
HETATM   21  C   UNL     1     -10.033   5.805  68.195  1.00  0.00    -0.181 C  
BRANCH  21  22
HETATM   22  C   UNL     1     -11.069   6.703  67.513  1.00  0.00    -0.374 C  
BRANCH  22  23
HETATM   23  C   UNL     1     -10.414   7.933  66.884  1.00  0.00    -0.388 C  
BRANCH  23  24
HETATM   24  C   UNL     1      -8.932   8.033  67.248  1.00  0.00    -0.148 C  
HETATM   25  C   UNL     1      -8.087   8.392  66.047  1.00  0.00    -0.104 C  
HETATM   26  O   UNL     1      -8.505   8.586  64.918  1.00  0.00    -0.173 OA 
HETATM   27  O   UNL     1      -6.773   8.477  66.356  1.00  0.00    -0.067 OA 
ENDBRANCH  23  24
ENDBRANCH  22  23
ENDBRANCH  21  22
ENDBRANCH  20  21
ENDBRANCH  19  20
ENDBRANCH  18  19
ENDBRANCH  10  11
ENDBRANCH   6   9
ENDBRANCH   5   6
ENDBRANCH   4   5
ENDBRANCH   3   4
ENDBRANCH   2   3
TORSDOF 12
ENDMDL
MODEL      198
REMARK 921   NORMALIZED FREE ENERGY PREDICTED BY IDOCK:   -4.19 KCAL/MOL
REMARK 922        TOTAL FREE ENERGY PREDICTED BY IDOCK:   -9.08 KCAL/MOL
REMARK 923 INTER-LIGAND FREE ENERGY PREDICTED BY IDOCK:   -7.52 KCAL/MOL
REMARK 924 INTRA-LIGAND FREE ENERGY PREDICTED BY IDOCK:   -1.55 KCAL/MOL
REMARK 927      BINDING AFFINITY PREDICTED BY RF-SCORE:    0.00 PKD
ROOT
HETATM    1  C   UNL     1     -13.644  13.159  72.272  1.00  0.00    -0.677 C  
HETATM    2  C   UNL     1     -12.667  12.930  71.133  1.00  0.00    -0.366 C  
ENDROOT
BRANCH   2   3
HETATM    3  C   UNL     1     -12.519  11.445  70.793  1.00  0.00    -0.460 C  
BRANCH   3   4
HETATM    4  C   UNL     1     -13.398  10.606  71.718  1.00  0.00    -0.437 C  
BRANCH   4   5
HETATM    5  C   UNL     1     -12.622   9.480  72.406  1.00  0.00    -0.261 C  
BRANCH   5   6
HETATM    6  C   UNL     1     -12.697   8.144  71.648  1.00  0.00    -0.321 C  
HETATM    7  O   UNL     1     -12.586   7.103  72.614  1.00  0.00    -0.411 OA 
HETATM    8  H   UNL     1     -12.633   6.277  72.145  1.00  0.00     0.000 HD 
BRANCH   6   9
HETATM    9  C   UNL     1     -11.628   8.009  70.585  1.00  0.00    -0.203 C  
HETATM   10  C   UNL     1     -10.446   8.643  70.537  1.00  0.00    -0.237 C  
BRANCH  10  11
HETATM   11  C   UNL     1      -9.492   8.580  69.363  1.00  0.00    -0.161 C  
HETATM   12  C   UNL     1      -8.543   7.373  69.519  1.00  0.00    -0.134 C  
HETATM   13  O   UNL     1      -7.477   7.645  70.419  1.00  0.00    -0.076 OA 
HETATM   14  C   UNL     1      -8.012   7.093  68.130  1.00  0.00    -0.119 C  
HETATM   15  H   UNL     1      -6.893   6.902  70.515  1.00  0.00     0.000 HD 
HETATM   16  C   UNL     1      -9.200   7.444  67.290  1.00  0.00    -0.131 C  
HETATM   17  O   UNL     1      -9.348   7.013  66.152  1.00  0.00    -0.138 OA 
HETATM   18  C   UNL     1     -10.173   8.383  67.986  1.00  0.00    -0.263 C  
BRANCH  18  19
HETATM   19  C   UNL     1     -10.333   9.723  67.243  1.00  0.00    -0.308 C  
BRANCH  19  20
HETATM   20  C   UNL     1      -9.592  10.896  67.900  1.00  0.00    -0.175 C  
BRANCH  20  21
HETATM   21  C   UNL     1     -10.472  12.143  68.011  1.00  0.00    -0.227 C  
BRANCH  21  22
HETATM   22  C   UNL     1     -10.590  12.853  66.659  1.00  0.00    -0.273 C  
BRANCH  22  23
HETATM   23  C   UNL     1     -11.501  14.078  66.749  1.00  0.00    -0.379 C  
BRANCH  23  24
HETATM   24  C   UNL     1     -11.562  14.836  65.422  1.00  0.00    -0.316 C  
HETATM   25  C   UNL     1     -11.051  16.252  65.567  1.00  0.00    -0.033 C  
HETATM   26  O   UNL     1     -10.635  16.754  66.597  1.00  0.00    -0.286 OA 
HETATM   27  O   UNL     1     -11.106  16.934  64.400  1.00  0.00    -1.128 OA 
ENDBRANCH  23  24
ENDBRANCH  22  23
ENDBRANCH  21  22
ENDBRANCH  20  21
ENDBRANCH  19  20
ENDBRANCH  18  19
ENDBRANCH  10  11
ENDBRANCH   6   9
ENDBRANCH   5   6
ENDBRANCH   4   5
ENDBRANCH   3   4
ENDBRANCH   2   3
TORSDOF 12
ENDMDL
MODEL      199
REMARK 921   NORMALIZED FREE ENERGY PREDICTED BY IDOCK:   -4.17 KCAL/MOL
REMARK 922        TOTAL FREE ENERGY PREDICTED BY IDOCK:   -9.05 KCAL/MOL
REMARK 923 INTER-LIGAND FREE ENERGY PREDICTED BY IDOCK:   -7.50 KCAL/MOL
REMARK 924 INTRA-LIGAND FREE ENERGY PREDICTED BY IDOCK:   -1.55 KCAL/MOL
REMARK 927      BINDING AFFINITY PREDICTED BY RF-SCORE:    0.00 PKD
ROOT
HETATM    1  C   UNL     1     -10.253  19.925  68.025  1.00  0.00    -0.572 C  
HETATM    2  C   UNL     1      -9.901  18.456  67.872  1.00  0.00    -0.348 C  
ENDROOT
BRANCH   2   3
HETATM    3  C   UNL     1      -8.552  18.120  68.510  1.00  0.00    -0.307 C  
BRANCH   3   4
HETATM    4  C   UNL     1      -7.630  17.474  67.476  1.00  0.00    -0.209 C  
BRANCH   4   5
HETATM    5  C   UNL     1      -7.269  16.030  67.830  1.00  0.00    -0.147 C  
BRANCH   5   6
HETATM    6  C   UNL     1      -8.305  15.355  68.745  1.00  0.00    -0.182 C  
HETATM    7  O   UNL     1      -7.585  14.633  69.739  1.00  0.00    -0.376 OA 
HETATM    8  H   UNL     1      -8.226  14.215  70.304  1.00  0.00     0.000 HD 
BRANCH   6   9
HETATM    9  C   UNL     1      -9.248  14.441  67.992  1.00  0.00    -0.193 C  
HETATM   10  C   UNL     1      -9.597  14.523  66.698  1.00  0.00    -0.291 C  
BRANCH  10  11
HETATM   11  C   UNL     1     -10.668  13.671  66.049  1.00  0.00    -0.280 C  
HETATM   12  C   UNL     1     -12.063  14.253  66.359  1.00  0.00    -0.419 C  
HETATM   13  O   UNL     1     -12.514  13.897  67.659  1.00  0.00    -0.449 OA 
HETATM   14  C   UNL     1     -12.983  13.685  65.300  1.00  0.00    -0.315 C  
HETATM   15  H   UNL     1     -13.373  14.255  67.849  1.00  0.00     0.000 HD 
HETATM   16  C   UNL     1     -12.064  13.625  64.120  1.00  0.00    -0.435 C  
HETATM   17  O   UNL     1     -12.479  13.589  62.968  1.00  0.00    -0.709 OA 
HETATM   18  C   UNL     1     -10.592  13.602  64.504  1.00  0.00    -0.428 C  
BRANCH  18  19
HETATM   19  C   UNL     1      -9.880  12.318  64.035  1.00  0.00    -0.194 C  
BRANCH  19  20
HETATM   20  C   UNL     1     -10.402  11.036  64.696  1.00  0.00    -0.410 C  
BRANCH  20  21
HETATM   21  C   UNL     1      -9.264  10.108  65.129  1.00  0.00    -0.262 C  
BRANCH  21  22
HETATM   22  C   UNL     1      -8.950  10.282  66.618  1.00  0.00    -0.156 C  
BRANCH  22  23
HETATM   23  C   UNL     1      -9.258   9.008  67.405  1.00  0.00    -0.158 C  
BRANCH  23  24
HETATM   24  C   UNL     1      -9.442   7.803  66.482  1.00  0.00    -0.262 C  
HETATM   25  C   UNL     1      -9.574   6.516  67.265  1.00  0.00    -0.126 C  
HETATM   26  O   UNL     1      -9.544   6.420  68.480  1.00  0.00    -0.124 OA 
HETATM   27  O   UNL     1      -9.731   5.443  66.457  1.00  0.00    -0.145 OA 
ENDBRANCH  23  24
ENDBRANCH  22  23
ENDBRANCH  21  22
ENDBRANCH  20  21
ENDBRANCH  19  20
ENDBRANCH  18  19
ENDBRANCH  10  11
ENDBRANCH   6   9
ENDBRANCH   5   6
ENDBRANCH   4   5
ENDBRANCH   3   4
ENDBRANCH   2   3
TORSDOF 12
ENDMDL
MODEL      200
REMARK 921   NORMALIZED FREE ENERGY PREDICTED BY IDOCK:   -4.17 KCAL/MOL
REMARK 922        TOTAL FREE ENERGY PREDICTED BY IDOCK:   -9.05 KCAL/MOL
REMARK 923 INTER-LIGAND FREE ENERGY PREDICTED BY IDOCK:   -8.11 KCAL/MOL
REMARK 924 INTRA-LIGAND FREE ENERGY PREDICTED BY IDOCK:   -0.94 KCAL/MOL
REMARK 927      BINDING AFFINITY PREDICTED BY RF-SCORE:    0.00 PKD
ROOT
HETATM    1  C   UNL     1      -9.447   5.067  73.304  1.00  0.00    -0.143 C  
HETATM    2  C   UNL     1     -10.617   6.018  73.483  1.00  0.00    -0.284 C  
ENDROOT
BRANCH   2   3
HETATM    3  C   UNL     1     -10.157   7.461  73.695  1.00  0.00    -0.376 C  
BRANCH   3   4
HETATM    4  C   UNL     1     -10.422   8.286  72.437  1.00  0.00    -0.404 C  
BRANCH   4   5
HETATM    5  C   UNL     1     -11.915   8.457  72.150  1.00  0.00    -0.438 C  
BRANCH   5   6
HETATM    6  C   UNL     1     -12.212   9.581  71.142  1.00  0.00    -0.338 C  
HETATM    7  O   UNL     1     -13.540   9.383  70.666  1.00  0.00    -0.556 OA 
HETATM    8  H   UNL     1     -13.723  10.078  70.044  1.00  0.00     0.000 HD 
BRANCH   6   9
HETATM    9  C   UNL     1     -11.228   9.617  69.993  1.00  0.00    -0.271 C  
HETATM   10  C   UNL     1     -10.606  10.696  69.490  1.00  0.00    -0.265 C  
BRANCH  10  11
HETATM   11  C   UNL     1      -9.755  10.682  68.238  1.00  0.00    -0.169 C  
HETATM   12  C   UNL     1     -10.241   9.571  67.283  1.00  0.00    -0.234 C  
HETATM   13  O   UNL     1      -9.763   8.289  67.668  1.00  0.00    -0.148 OA 
HETATM   14  C   UNL     1      -9.711   9.951  65.917  1.00  0.00    -0.326 C  
HETATM   15  H   UNL     1     -10.062   7.605  67.080  1.00  0.00     0.000 HD 
HETATM   16  C   UNL     1      -9.788  11.444  65.982  1.00  0.00    -0.223 C  
HETATM   17  O   UNL     1      -9.821  12.143  64.976  1.00  0.00    -0.239 OA 
HETATM   18  C   UNL     1      -9.809  11.985  67.404  1.00  0.00    -0.191 C  
BRANCH  18  19
HETATM   19  C   UNL     1      -8.603  12.895  67.706  1.00  0.00    -0.185 C  
BRANCH  19  20
HETATM   20  C   UNL     1      -8.909  14.036  68.686  1.00  0.00    -0.104 C  
BRANCH  20  21
HETATM   21  C   UNL     1      -8.599  15.409  68.085  1.00  0.00    -0.152 C  
BRANCH  21  22
HETATM   22  C   UNL     1      -8.457  15.322  66.562  1.00  0.00    -0.202 C  
BRANCH  22  23
HETATM   23  C   UNL     1      -9.628  16.004  65.853  1.00  0.00    -0.370 C  
BRANCH  23  24
HETATM   24  C   UNL     1     -10.774  15.027  65.587  1.00  0.00    -0.365 C  
HETATM   25  C   UNL     1     -11.735  15.565  64.550  1.00  0.00    -0.253 C  
HETATM   26  O   UNL     1     -11.634  16.638  63.980  1.00  0.00    -1.197 OA 
HETATM   27  O   UNL     1     -12.756  14.711  64.311  1.00  0.00    -0.679 OA 
ENDBRANCH  23  24
ENDBRANCH  22  23
ENDBRANCH  21  22
ENDBRANCH  20  21
ENDBRANCH  19  20
ENDBRANCH  18  19
ENDBRANCH  10  11
ENDBRANCH   6   9
ENDBRANCH   5   6
ENDBRANCH   4   5
ENDBRANCH   3   4
ENDBRANCH   2   3
TORSDOF 12
ENDMDL
MODEL      201
REMARK 921   NORMALIZED FREE ENERGY PREDICTED BY IDOCK:   -4.17 KCAL/MOL
REMARK 922        TOTAL FREE ENERGY PREDICTED BY IDOCK:   -9.05 KCAL/MOL
REMARK 923 INTER-LIGAND FREE ENERGY PREDICTED BY IDOCK:   -7.79 KCAL/MOL
REMARK 924 INTRA-LIGAND FREE ENERGY PREDICTED BY IDOCK:   -1.26 KCAL/MOL
REMARK 927      BINDING AFFINITY PREDICTED BY RF-SCORE:    0.00 PKD
ROOT
HETATM    1  C   UNL     1      -7.151  10.161  66.342  1.00  0.00    -0.107 C  
HETATM    2  C   UNL     1      -6.570   8.825  65.915  1.00  0.00    -0.057 C  
ENDROOT
BRANCH   2   3
HETATM    3  C   UNL     1      -7.234   7.652  66.638  1.00  0.00    -0.087 C  
BRANCH   3   4
HETATM    4  C   UNL     1      -8.165   8.171  67.733  1.00  0.00    -0.128 C  
BRANCH   4   5
HETATM    5  C   UNL     1      -9.344   7.232  67.996  1.00  0.00    -0.130 C  
BRANCH   5   6
HETATM    6  C   UNL     1     -10.697   7.825  67.567  1.00  0.00    -0.195 C  
HETATM    7  O   UNL     1     -11.364   6.838  66.786  1.00  0.00    -0.721 OA 
HETATM    8  H   UNL     1     -12.199   7.205  66.521  1.00  0.00     0.000 HD 
BRANCH   6   9
HETATM    9  C   UNL     1     -10.555   9.118  66.794  1.00  0.00    -0.207 C  
HETATM   10  C   UNL     1     -10.859  10.356  67.218  1.00  0.00    -0.324 C  
BRANCH  10  11
HETATM   11  C   UNL     1     -10.840  11.587  66.337  1.00  0.00    -0.334 C  
HETATM   12  C   UNL     1     -11.136  11.192  64.875  1.00  0.00    -0.047 C  
HETATM   13  O   UNL     1      -9.991  10.662  64.222  1.00  0.00    -0.308 OA 
HETATM   14  C   UNL     1     -11.595  12.466  64.197  1.00  0.00    -0.458 C  
HETATM   15  H   UNL     1     -10.173  10.419  63.322  1.00  0.00     0.000 HD 
HETATM   16  C   UNL     1     -12.328  13.140  65.315  1.00  0.00    -0.481 C  
HETATM   17  O   UNL     1     -13.175  14.003  65.115  1.00  0.00    -0.768 OA 
HETATM   18  C   UNL     1     -11.905  12.653  66.693  1.00  0.00    -0.449 C  
BRANCH  18  19
HETATM   19  C   UNL     1     -11.305  13.779  67.557  1.00  0.00    -0.334 C  
BRANCH  19  20
HETATM   20  C   UNL     1     -10.043  14.419  66.962  1.00  0.00    -0.256 C  
BRANCH  20  21
HETATM   21  C   UNL     1     -10.265  15.887  66.589  1.00  0.00    -0.293 C  
BRANCH  21  22
HETATM   22  C   UNL     1     -10.701  16.704  67.809  1.00  0.00    -0.327 C  
BRANCH  22  23
HETATM   23  C   UNL     1     -10.498  18.202  67.580  1.00  0.00    -0.432 C  
BRANCH  23  24
HETATM   24  C   UNL     1      -9.635  18.829  68.676  1.00  0.00    -0.432 C  
HETATM   25  C   UNL     1      -8.249  19.162  68.172  1.00  0.00    -0.318 C  
HETATM   26  O   UNL     1      -7.841  18.968  67.039  1.00  0.00    -0.236 OA 
HETATM   27  O   UNL     1      -7.475  19.712  69.135  1.00  0.00    -0.357 OA 
ENDBRANCH  23  24
ENDBRANCH  22  23
ENDBRANCH  21  22
ENDBRANCH  20  21
ENDBRANCH  19  20
ENDBRANCH  18  19
ENDBRANCH  10  11
ENDBRANCH   6   9
ENDBRANCH   5   6
ENDBRANCH   4   5
ENDBRANCH   3   4
ENDBRANCH   2   3
TORSDOF 12
ENDMDL
MODEL      202
REMARK 921   NORMALIZED FREE ENERGY PREDICTED BY IDOCK:   -4.17 KCAL/MOL
REMARK 922        TOTAL FREE ENERGY PREDICTED BY IDOCK:   -9.05 KCAL/MOL
REMARK 923 INTER-LIGAND FREE ENERGY PREDICTED BY IDOCK:   -6.82 KCAL/MOL
REMARK 924 INTRA-LIGAND FREE ENERGY PREDICTED BY IDOCK:   -2.22 KCAL/MOL
REMARK 927      BINDING AFFINITY PREDICTED BY RF-SCORE:    0.00 PKD
ROOT
HETATM    1  C   UNL     1      -6.933  15.872  68.951  1.00  0.00    -0.143 C  
HETATM    2  C   UNL     1      -6.905  14.663  69.869  1.00  0.00    -0.136 C  
ENDROOT
BRANCH   2   3
HETATM    3  C   UNL     1      -5.842  13.647  69.446  1.00  0.00    -0.093 C  
BRANCH   3   4
HETATM    4  C   UNL     1      -6.509  12.354  68.978  1.00  0.00    -0.097 C  
BRANCH   4   5
HETATM    5  C   UNL     1      -6.573  12.244  67.453  1.00  0.00    -0.154 C  
BRANCH   5   6
HETATM    6  C   UNL     1      -8.010  12.151  66.914  1.00  0.00    -0.089 C  
HETATM    7  O   UNL     1      -8.492  13.482  66.761  1.00  0.00    -0.418 OA 
HETATM    8  H   UNL     1      -9.381  13.424  66.428  1.00  0.00     0.000 HD 
BRANCH   6   9
HETATM    9  C   UNL     1      -8.925  11.345  67.810  1.00  0.00    -0.147 C  
HETATM   10  C   UNL     1      -9.515  10.173  67.526  1.00  0.00    -0.172 C  
BRANCH  10  11
HETATM   11  C   UNL     1     -10.544   9.500  68.410  1.00  0.00    -0.261 C  
HETATM   12  C   UNL     1     -10.039   8.106  68.839  1.00  0.00    -0.202 C  
HETATM   13  O   UNL     1     -10.224   7.134  67.819  1.00  0.00    -0.161 OA 
HETATM   14  C   UNL     1     -10.841   7.747  70.072  1.00  0.00    -0.243 C  
HETATM   15  H   UNL     1      -9.914   6.276  68.084  1.00  0.00     0.000 HD 
HETATM   16  C   UNL     1     -11.007   9.091  70.710  1.00  0.00    -0.258 C  
HETATM   17  O   UNL     1     -11.257   9.223  71.902  1.00  0.00    -0.370 OA 
HETATM   18  C   UNL     1     -10.847  10.246  69.732  1.00  0.00    -0.332 C  
BRANCH  18  19
HETATM   19  C   UNL     1     -12.124  11.100  69.615  1.00  0.00    -0.406 C  
BRANCH  19  20
HETATM   20  C   UNL     1     -12.061  12.429  70.379  1.00  0.00    -0.381 C  
BRANCH  20  21
HETATM   21  C   UNL     1     -11.349  13.521  69.576  1.00  0.00    -0.265 C  
BRANCH  21  22
HETATM   22  C   UNL     1     -12.276  14.108  68.507  1.00  0.00    -0.204 C  
BRANCH  22  23
HETATM   23  C   UNL     1     -11.594  14.151  67.140  1.00  0.00    -0.400 C  
BRANCH  23  24
HETATM   24  C   UNL     1     -12.519  13.649  66.030  1.00  0.00    -0.477 C  
HETATM   25  C   UNL     1     -11.761  13.387  64.749  1.00  0.00    -0.361 C  
HETATM   26  O   UNL     1     -10.562  13.545  64.589  1.00  0.00    -0.387 OA 
HETATM   27  O   UNL     1     -12.571  12.948  63.759  1.00  0.00    -0.663 OA 
ENDBRANCH  23  24
ENDBRANCH  22  23
ENDBRANCH  21  22
ENDBRANCH  20  21
ENDBRANCH  19  20
ENDBRANCH  18  19
ENDBRANCH  10  11
ENDBRANCH   6   9
ENDBRANCH   5   6
ENDBRANCH   4   5
ENDBRANCH   3   4
ENDBRANCH   2   3
TORSDOF 12
ENDMDL
MODEL      203
REMARK 921   NORMALIZED FREE ENERGY PREDICTED BY IDOCK:   -4.15 KCAL/MOL
REMARK 922        TOTAL FREE ENERGY PREDICTED BY IDOCK:   -9.02 KCAL/MOL
REMARK 923 INTER-LIGAND FREE ENERGY PREDICTED BY IDOCK:   -7.87 KCAL/MOL
REMARK 924 INTRA-LIGAND FREE ENERGY PREDICTED BY IDOCK:   -1.14 KCAL/MOL
REMARK 927      BINDING AFFINITY PREDICTED BY RF-SCORE:    0.00 PKD
ROOT
HETATM    1  C   UNL     1     -12.099  14.943  71.496  1.00  0.00    -0.406 C  
HETATM    2  C   UNL     1     -11.772  15.054  70.017  1.00  0.00    -0.345 C  
ENDROOT
BRANCH   2   3
HETATM    3  C   UNL     1     -10.788  16.189  69.730  1.00  0.00    -0.333 C  
BRANCH   3   4
HETATM    4  C   UNL     1     -10.891  16.616  68.267  1.00  0.00    -0.356 C  
BRANCH   4   5
HETATM    5  C   UNL     1      -9.534  16.622  67.559  1.00  0.00    -0.229 C  
BRANCH   5   6
HETATM    6  C   UNL     1      -9.653  16.614  66.025  1.00  0.00    -0.266 C  
HETATM    7  O   UNL     1     -10.449  17.736  65.657  1.00  0.00    -0.613 OA 
HETATM    8  H   UNL     1     -10.522  17.731  64.709  1.00  0.00     0.000 HD 
BRANCH   6   9
HETATM    9  C   UNL     1     -10.248  15.331  65.487  1.00  0.00    -0.417 C  
HETATM   10  C   UNL     1     -10.478  14.195  66.165  1.00  0.00    -0.297 C  
BRANCH  10  11
HETATM   11  C   UNL     1     -10.929  12.899  65.526  1.00  0.00    -0.301 C  
HETATM   12  C   UNL     1     -12.045  13.179  64.498  1.00  0.00    -0.404 C  
HETATM   13  O   UNL     1     -13.311  13.357  65.119  1.00  0.00    -0.611 OA 
HETATM   14  C   UNL     1     -12.065  11.973  63.583  1.00  0.00    -0.627 C  
HETATM   15  H   UNL     1     -13.998  13.530  64.486  1.00  0.00     0.000 HD 
HETATM   16  C   UNL     1     -10.612  11.616  63.545  1.00  0.00    -0.435 C  
HETATM   17  O   UNL     1     -10.125  10.949  62.639  1.00  0.00    -0.154 OA 
HETATM   18  C   UNL     1      -9.829  12.149  64.736  1.00  0.00    -0.157 C  
BRANCH  18  19
HETATM   19  C   UNL     1      -9.199  11.024  65.579  1.00  0.00    -0.235 C  
BRANCH  19  20
HETATM   20  C   UNL     1     -10.108  10.498  66.698  1.00  0.00    -0.275 C  
BRANCH  20  21
HETATM   21  C   UNL     1      -9.586   9.188  67.295  1.00  0.00    -0.200 C  
BRANCH  21  22
HETATM   22  C   UNL     1     -10.238   8.905  68.652  1.00  0.00    -0.221 C  
BRANCH  22  23
HETATM   23  C   UNL     1     -10.681   7.447  68.765  1.00  0.00    -0.145 C  
BRANCH  23  24
HETATM   24  C   UNL     1     -10.672   6.746  67.405  1.00  0.00    -0.405 C  
HETATM   25  C   UNL     1      -9.868   5.466  67.444  1.00  0.00    -0.154 C  
HETATM   26  O   UNL     1      -9.291   5.021  68.421  1.00  0.00    -0.115 OA 
HETATM   27  O   UNL     1      -9.849   4.841  66.244  1.00  0.00    -0.175 OA 
ENDBRANCH  23  24
ENDBRANCH  22  23
ENDBRANCH  21  22
ENDBRANCH  20  21
ENDBRANCH  19  20
ENDBRANCH  18  19
ENDBRANCH  10  11
ENDBRANCH   6   9
ENDBRANCH   5   6
ENDBRANCH   4   5
ENDBRANCH   3   4
ENDBRANCH   2   3
TORSDOF 12
ENDMDL
MODEL      204
REMARK 921   NORMALIZED FREE ENERGY PREDICTED BY IDOCK:   -4.15 KCAL/MOL
REMARK 922        TOTAL FREE ENERGY PREDICTED BY IDOCK:   -9.01 KCAL/MOL
REMARK 923 INTER-LIGAND FREE ENERGY PREDICTED BY IDOCK:   -7.74 KCAL/MOL
REMARK 924 INTRA-LIGAND FREE ENERGY PREDICTED BY IDOCK:   -1.27 KCAL/MOL
REMARK 927      BINDING AFFINITY PREDICTED BY RF-SCORE:    0.00 PKD
ROOT
HETATM    1  C   UNL     1      -6.781   6.436  70.050  1.00  0.00    -0.053 C  
HETATM    2  C   UNL     1      -7.458   7.731  70.462  1.00  0.00    -0.074 C  
ENDROOT
BRANCH   2   3
HETATM    3  C   UNL     1      -8.593   7.492  71.460  1.00  0.00    -0.123 C  
BRANCH   3   4
HETATM    4  C   UNL     1      -9.478   8.733  71.555  1.00  0.00    -0.341 C  
BRANCH   4   5
HETATM    5  C   UNL     1      -9.608   9.467  70.219  1.00  0.00    -0.294 C  
BRANCH   5   6
HETATM    6  C   UNL     1     -11.023   9.386  69.621  1.00  0.00    -0.197 C  
HETATM    7  O   UNL     1     -11.251   8.029  69.253  1.00  0.00    -0.439 OA 
HETATM    8  H   UNL     1     -12.125   7.979  68.884  1.00  0.00     0.000 HD 
BRANCH   6   9
HETATM    9  C   UNL     1     -11.215  10.305  68.434  1.00  0.00    -0.284 C  
HETATM   10  C   UNL     1     -10.330  10.567  67.458  1.00  0.00    -0.265 C  
BRANCH  10  11
HETATM   11  C   UNL     1     -10.529  11.618  66.387  1.00  0.00    -0.283 C  
HETATM   12  C   UNL     1     -10.749  10.940  65.019  1.00  0.00    -0.146 C  
HETATM   13  O   UNL     1      -9.526  10.517  64.429  1.00  0.00    -0.229 OA 
HETATM   14  C   UNL     1     -11.426  11.981  64.154  1.00  0.00    -0.460 C  
HETATM   15  H   UNL     1      -9.662  10.100  63.587  1.00  0.00     0.000 HD 
HETATM   16  C   UNL     1     -12.268  12.693  65.166  1.00  0.00    -0.481 C  
HETATM   17  O   UNL     1     -13.255  13.349  64.852  1.00  0.00    -0.679 OA 
HETATM   18  C   UNL     1     -11.767  12.525  66.593  1.00  0.00    -0.453 C  
BRANCH  18  19
HETATM   19  C   UNL     1     -11.378  13.867  67.243  1.00  0.00    -0.344 C  
BRANCH  19  20
HETATM   20  C   UNL     1     -10.101  14.493  66.668  1.00  0.00    -0.275 C  
BRANCH  20  21
HETATM   21  C   UNL     1     -10.065  16.011  66.866  1.00  0.00    -0.266 C  
BRANCH  21  22
HETATM   22  C   UNL     1     -10.739  16.408  68.183  1.00  0.00    -0.336 C  
BRANCH  22  23
HETATM   23  C   UNL     1     -10.150  17.703  68.743  1.00  0.00    -0.377 C  
BRANCH  23  24
HETATM   24  C   UNL     1     -10.616  18.925  67.951  1.00  0.00    -0.425 C  
HETATM   25  C   UNL     1      -9.461  19.615  67.261  1.00  0.00    -0.341 C  
HETATM   26  O   UNL     1      -8.295  19.263  67.309  1.00  0.00    -0.274 OA 
HETATM   27  O   UNL     1      -9.861  20.701  66.562  1.00  0.00    -0.303 OA 
ENDBRANCH  23  24
ENDBRANCH  22  23
ENDBRANCH  21  22
ENDBRANCH  20  21
ENDBRANCH  19  20
ENDBRANCH  18  19
ENDBRANCH  10  11
ENDBRANCH   6   9
ENDBRANCH   5   6
ENDBRANCH   4   5
ENDBRANCH   3   4
ENDBRANCH   2   3
TORSDOF 12
ENDMDL
MODEL      205
REMARK 921   NORMALIZED FREE ENERGY PREDICTED BY IDOCK:   -4.14 KCAL/MOL
REMARK 922        TOTAL FREE ENERGY PREDICTED BY IDOCK:   -9.00 KCAL/MOL
REMARK 923 INTER-LIGAND FREE ENERGY PREDICTED BY IDOCK:   -8.25 KCAL/MOL
REMARK 924 INTRA-LIGAND FREE ENERGY PREDICTED BY IDOCK:   -0.74 KCAL/MOL
REMARK 927      BINDING AFFINITY PREDICTED BY RF-SCORE:    0.00 PKD
ROOT
HETATM    1  C   UNL     1      -9.402   2.164  68.264  1.00  0.00    -0.260 C  
HETATM    2  C   UNL     1      -8.586   3.399  67.926  1.00  0.00    -0.119 C  
ENDROOT
BRANCH   2   3
HETATM    3  C   UNL     1      -9.313   4.690  68.310  1.00  0.00    -0.182 C  
BRANCH   3   4
HETATM    4  C   UNL     1      -9.260   5.685  67.152  1.00  0.00    -0.114 C  
BRANCH   4   5
HETATM    5  C   UNL     1      -9.191   7.138  67.628  1.00  0.00    -0.127 C  
BRANCH   5   6
HETATM    6  C   UNL     1     -10.528   7.885  67.485  1.00  0.00    -0.262 C  
HETATM    7  O   UNL     1     -11.507   6.930  67.090  1.00  0.00    -0.703 OA 
HETATM    8  H   UNL     1     -12.333   7.391  67.001  1.00  0.00     0.000 HD 
BRANCH   6   9
HETATM    9  C   UNL     1     -10.461   9.029  66.497  1.00  0.00    -0.192 C  
HETATM   10  C   UNL     1     -10.379  10.340  66.776  1.00  0.00    -0.288 C  
BRANCH  10  11
HETATM   11  C   UNL     1     -10.476  11.440  65.740  1.00  0.00    -0.314 C  
HETATM   12  C   UNL     1     -10.036  10.903  64.361  1.00  0.00    -0.339 C  
HETATM   13  O   UNL     1      -8.622  10.854  64.233  1.00  0.00    -0.350 OA 
HETATM   14  C   UNL     1     -10.632  11.857  63.348  1.00  0.00    -0.485 C  
HETATM   15  H   UNL     1      -8.352  10.524  63.384  1.00  0.00     0.000 HD 
HETATM   16  C   UNL     1     -11.921  12.221  64.016  1.00  0.00    -0.462 C  
HETATM   17  O   UNL     1     -12.880  12.662  63.393  1.00  0.00    -0.689 OA 
HETATM   18  C   UNL     1     -11.902  12.000  65.521  1.00  0.00    -0.250 C  
BRANCH  18  19
HETATM   19  C   UNL     1     -12.120  13.304  66.311  1.00  0.00    -0.472 C  
BRANCH  19  20
HETATM   20  C   UNL     1     -11.603  14.561  65.599  1.00  0.00    -0.344 C  
BRANCH  20  21
HETATM   21  C   UNL     1     -10.361  15.139  66.283  1.00  0.00    -0.303 C  
BRANCH  21  22
HETATM   22  C   UNL     1     -10.503  16.649  66.495  1.00  0.00    -0.262 C  
BRANCH  22  23
HETATM   23  C   UNL     1     -10.459  17.011  67.980  1.00  0.00    -0.353 C  
BRANCH  23  24
HETATM   24  C   UNL     1      -9.144  17.696  68.356  1.00  0.00    -0.277 C  
HETATM   25  C   UNL     1      -9.286  19.201  68.375  1.00  0.00    -0.363 C  
HETATM   26  O   UNL     1     -10.307  19.820  68.128  1.00  0.00    -0.437 OA 
HETATM   27  O   UNL     1      -8.127  19.817  68.700  1.00  0.00    -0.308 OA 
ENDBRANCH  23  24
ENDBRANCH  22  23
ENDBRANCH  21  22
ENDBRANCH  20  21
ENDBRANCH  19  20
ENDBRANCH  18  19
ENDBRANCH  10  11
ENDBRANCH   6   9
ENDBRANCH   5   6
ENDBRANCH   4   5
ENDBRANCH   3   4
ENDBRANCH   2   3
TORSDOF 12
ENDMDL
MODEL      206
REMARK 921   NORMALIZED FREE ENERGY PREDICTED BY IDOCK:   -4.14 KCAL/MOL
REMARK 922        TOTAL FREE ENERGY PREDICTED BY IDOCK:   -8.99 KCAL/MOL
REMARK 923 INTER-LIGAND FREE ENERGY PREDICTED BY IDOCK:   -6.66 KCAL/MOL
REMARK 924 INTRA-LIGAND FREE ENERGY PREDICTED BY IDOCK:   -2.33 KCAL/MOL
REMARK 927      BINDING AFFINITY PREDICTED BY RF-SCORE:    0.00 PKD
ROOT
HETATM    1  C   UNL     1      -8.799   7.658  74.430  1.00  0.00    -0.163 C  
HETATM    2  C   UNL     1      -9.021   6.590  73.373  1.00  0.00    -0.135 C  
ENDROOT
BRANCH   2   3
HETATM    3  C   UNL     1     -10.144   5.626  73.760  1.00  0.00    -0.220 C  
BRANCH   3   4
HETATM    4  C   UNL     1     -10.828   5.087  72.505  1.00  0.00    -0.257 C  
BRANCH   4   5
HETATM    5  C   UNL     1      -9.830   4.700  71.411  1.00  0.00    -0.264 C  
BRANCH   5   6
HETATM    6  C   UNL     1      -9.990   5.531  70.126  1.00  0.00    -0.221 C  
HETATM    7  O   UNL     1      -8.759   6.212  69.907  1.00  0.00    -0.133 OA 
HETATM    8  H   UNL     1      -8.857   6.726  69.113  1.00  0.00     0.000 HD 
BRANCH   6   9
HETATM    9  C   UNL     1     -11.142   6.509  70.196  1.00  0.00    -0.410 C  
HETATM   10  C   UNL     1     -11.091   7.800  70.564  1.00  0.00    -0.265 C  
BRANCH  10  11
HETATM   11  C   UNL     1     -12.308   8.678  70.763  1.00  0.00     0.032 C  
HETATM   12  C   UNL     1     -12.971   8.359  72.119  1.00  0.00    -0.337 C  
HETATM   13  O   UNL     1     -13.777   7.190  72.059  1.00  0.00    -0.533 OA 
HETATM   14  C   UNL     1     -13.813   9.572  72.453  1.00  0.00    -0.355 C  
HETATM   15  H   UNL     1     -14.186   6.994  72.894  1.00  0.00     0.000 HD 
HETATM   16  C   UNL     1     -12.975  10.672  71.881  1.00  0.00    -0.437 C  
HETATM   17  O   UNL     1     -13.079  11.835  72.252  1.00  0.00    -0.378 OA 
HETATM   18  C   UNL     1     -12.010  10.197  70.804  1.00  0.00    -0.442 C  
BRANCH  18  19
HETATM   19  C   UNL     1     -12.279  10.858  69.439  1.00  0.00    -0.293 C  
BRANCH  19  20
HETATM   20  C   UNL     1     -11.011  11.326  68.711  1.00  0.00    -0.270 C  
BRANCH  20  21
HETATM   21  C   UNL     1     -10.956  10.817  67.268  1.00  0.00    -0.359 C  
BRANCH  21  22
HETATM   22  C   UNL     1      -9.545  10.341  66.907  1.00  0.00    -0.211 C  
BRANCH  22  23
HETATM   23  C   UNL     1      -9.312   8.898  67.355  1.00  0.00    -0.165 C  
BRANCH  23  24
HETATM   24  C   UNL     1     -10.481   7.990  66.969  1.00  0.00    -0.410 C  
HETATM   25  C   UNL     1     -10.024   6.571  66.718  1.00  0.00    -0.166 C  
HETATM   26  O   UNL     1      -8.876   6.170  66.805  1.00  0.00    -0.117 OA 
HETATM   27  O   UNL     1     -11.049   5.761  66.370  1.00  0.00    -0.151 OA 
ENDBRANCH  23  24
ENDBRANCH  22  23
ENDBRANCH  21  22
ENDBRANCH  20  21
ENDBRANCH  19  20
ENDBRANCH  18  19
ENDBRANCH  10  11
ENDBRANCH   6   9
ENDBRANCH   5   6
ENDBRANCH   4   5
ENDBRANCH   3   4
ENDBRANCH   2   3
TORSDOF 12
ENDMDL
MODEL      207
REMARK 921   NORMALIZED FREE ENERGY PREDICTED BY IDOCK:   -4.12 KCAL/MOL
REMARK 922        TOTAL FREE ENERGY PREDICTED BY IDOCK:   -8.97 KCAL/MOL
REMARK 923 INTER-LIGAND FREE ENERGY PREDICTED BY IDOCK:   -7.55 KCAL/MOL
REMARK 924 INTRA-LIGAND FREE ENERGY PREDICTED BY IDOCK:   -1.41 KCAL/MOL
REMARK 927      BINDING AFFINITY PREDICTED BY RF-SCORE:    0.00 PKD
ROOT
HETATM    1  C   UNL     1      -8.553  16.931  67.798  1.00  0.00    -0.208 C  
HETATM    2  C   UNL     1      -9.701  15.947  67.936  1.00  0.00    -0.216 C  
ENDROOT
BRANCH   2   3
HETATM    3  C   UNL     1     -10.735  16.412  68.963  1.00  0.00    -0.322 C  
BRANCH   3   4
HETATM    4  C   UNL     1     -10.864  15.380  70.082  1.00  0.00    -0.328 C  
BRANCH   4   5
HETATM    5  C   UNL     1     -11.314  14.010  69.570  1.00  0.00    -0.298 C  
BRANCH   5   6
HETATM    6  C   UNL     1     -12.426  13.380  70.426  1.00  0.00    -0.252 C  
HETATM    7  O   UNL     1     -12.497  14.122  71.640  1.00  0.00    -0.335 OA 
HETATM    8  H   UNL     1     -13.184  13.732  72.169  1.00  0.00     0.000 HD 
BRANCH   6   9
HETATM    9  C   UNL     1     -12.194  11.911  70.705  1.00  0.00    -0.424 C  
HETATM   10  C   UNL     1     -12.917  11.113  71.508  1.00  0.00    -0.542 C  
BRANCH  10  11
HETATM   11  C   UNL     1     -12.535   9.692  71.864  1.00  0.00    -0.459 C  
HETATM   12  C   UNL     1     -13.806   8.847  72.095  1.00  0.00    -0.473 C  
HETATM   13  O   UNL     1     -14.362   9.061  73.385  1.00  0.00    -1.143 OA 
HETATM   14  C   UNL     1     -13.370   7.407  71.932  1.00  0.00    -0.292 C  
HETATM   15  H   UNL     1     -15.144   8.541  73.527  1.00  0.00     0.000 HD 
HETATM   16  C   UNL     1     -12.327   7.539  70.867  1.00  0.00    -0.167 C  
HETATM   17  O   UNL     1     -11.986   6.595  70.164  1.00  0.00    -0.367 OA 
HETATM   18  C   UNL     1     -11.744   8.940  70.765  1.00  0.00    -0.269 C  
BRANCH  18  19
HETATM   19  C   UNL     1     -10.229   8.970  71.046  1.00  0.00    -0.347 C  
BRANCH  19  20
HETATM   20  C   UNL     1      -9.370   9.272  69.811  1.00  0.00    -0.199 C  
BRANCH  20  21
HETATM   21  C   UNL     1     -10.222   9.634  68.591  1.00  0.00    -0.209 C  
BRANCH  21  22
HETATM   22  C   UNL     1     -10.085   8.575  67.492  1.00  0.00    -0.282 C  
BRANCH  22  23
HETATM   23  C   UNL     1      -9.225   7.399  67.956  1.00  0.00    -0.132 C  
BRANCH  23  24
HETATM   24  C   UNL     1      -8.096   7.100  66.967  1.00  0.00    -0.117 C  
HETATM   25  C   UNL     1      -7.228   5.957  67.444  1.00  0.00    -0.076 C  
HETATM   26  O   UNL     1      -7.383   5.333  68.479  1.00  0.00    -0.069 OA 
HETATM   27  O   UNL     1      -6.223   5.688  66.580  1.00  0.00    -0.029 OA 
ENDBRANCH  23  24
ENDBRANCH  22  23
ENDBRANCH  21  22
ENDBRANCH  20  21
ENDBRANCH  19  20
ENDBRANCH  18  19
ENDBRANCH  10  11
ENDBRANCH   6   9
ENDBRANCH   5   6
ENDBRANCH   4   5
ENDBRANCH   3   4
ENDBRANCH   2   3
TORSDOF 12
ENDMDL
MODEL      208
REMARK 921   NORMALIZED FREE ENERGY PREDICTED BY IDOCK:   -4.12 KCAL/MOL
REMARK 922        TOTAL FREE ENERGY PREDICTED BY IDOCK:   -8.96 KCAL/MOL
REMARK 923 INTER-LIGAND FREE ENERGY PREDICTED BY IDOCK:   -7.62 KCAL/MOL
REMARK 924 INTRA-LIGAND FREE ENERGY PREDICTED BY IDOCK:   -1.35 KCAL/MOL
REMARK 927      BINDING AFFINITY PREDICTED BY RF-SCORE:    0.00 PKD
ROOT
HETATM    1  C   UNL     1     -11.575  13.593  67.328  1.00  0.00    -0.387 C  
HETATM    2  C   UNL     1     -12.309  13.964  66.052  1.00  0.00    -0.511 C  
ENDROOT
BRANCH   2   3
HETATM    3  C   UNL     1     -12.563  12.746  65.162  1.00  0.00    -0.513 C  
BRANCH   3   4
HETATM    4  C   UNL     1     -11.834  12.909  63.829  1.00  0.00    -0.571 C  
BRANCH   4   5
HETATM    5  C   UNL     1     -10.321  12.717  63.959  1.00  0.00    -0.414 C  
BRANCH   5   6
HETATM    6  C   UNL     1      -9.842  11.342  63.462  1.00  0.00    -0.375 C  
HETATM    7  O   UNL     1     -10.899  10.779  62.692  1.00  0.00    -0.629 OA 
HETATM    8  H   UNL     1     -10.603   9.930  62.384  1.00  0.00     0.000 HD 
BRANCH   6   9
HETATM    9  C   UNL     1      -9.442  10.415  64.588  1.00  0.00    -0.336 C  
HETATM   10  C   UNL     1      -9.576  10.633  65.906  1.00  0.00    -0.253 C  
BRANCH  10  11
HETATM   11  C   UNL     1      -9.009   9.729  66.981  1.00  0.00    -0.152 C  
HETATM   12  C   UNL     1      -7.594  10.202  67.375  1.00  0.00    -0.094 C  
HETATM   13  O   UNL     1      -6.609   9.774  66.443  1.00  0.00    -0.069 OA 
HETATM   14  C   UNL     1      -7.333   9.604  68.741  1.00  0.00    -0.074 C  
HETATM   15  H   UNL     1      -5.738  10.066  66.686  1.00  0.00     0.000 HD 
HETATM   16  C   UNL     1      -8.703   9.646  69.341  1.00  0.00    -0.171 C  
HETATM   17  O   UNL     1      -8.888   9.617  70.553  1.00  0.00    -0.225 OA 
HETATM   18  C   UNL     1      -9.814   9.714  68.304  1.00  0.00    -0.169 C  
BRANCH  18  19
HETATM   19  C   UNL     1     -10.759   8.498  68.372  1.00  0.00    -0.084 C  
BRANCH  19  20
HETATM   20  C   UNL     1     -10.069   7.154  68.104  1.00  0.00    -0.195 C  
BRANCH  20  21
HETATM   21  C   UNL     1      -9.823   6.367  69.394  1.00  0.00    -0.170 C  
BRANCH  21  22
HETATM   22  C   UNL     1     -11.142   5.869  69.993  1.00  0.00    -0.411 C  
BRANCH  22  23
HETATM   23  C   UNL     1     -11.401   6.491  71.366  1.00  0.00    -0.344 C  
BRANCH  23  24
HETATM   24  C   UNL     1     -12.683   7.325  71.376  1.00  0.00    -0.427 C  
HETATM   25  C   UNL     1     -12.384   8.803  71.487  1.00  0.00    -0.328 C  
HETATM   26  O   UNL     1     -11.272   9.298  71.558  1.00  0.00    -0.337 OA 
HETATM   27  O   UNL     1     -13.511   9.550  71.503  1.00  0.00    -0.376 OA 
ENDBRANCH  23  24
ENDBRANCH  22  23
ENDBRANCH  21  22
ENDBRANCH  20  21
ENDBRANCH  19  20
ENDBRANCH  18  19
ENDBRANCH  10  11
ENDBRANCH   6   9
ENDBRANCH   5   6
ENDBRANCH   4   5
ENDBRANCH   3   4
ENDBRANCH   2   3
TORSDOF 12
ENDMDL
MODEL      209
REMARK 921   NORMALIZED FREE ENERGY PREDICTED BY IDOCK:   -4.11 KCAL/MOL
REMARK 922        TOTAL FREE ENERGY PREDICTED BY IDOCK:   -8.95 KCAL/MOL
REMARK 923 INTER-LIGAND FREE ENERGY PREDICTED BY IDOCK:   -7.01 KCAL/MOL
REMARK 924 INTRA-LIGAND FREE ENERGY PREDICTED BY IDOCK:   -1.94 KCAL/MOL
REMARK 927      BINDING AFFINITY PREDICTED BY RF-SCORE:    0.00 PKD
ROOT
HETATM    1  C   UNL     1      -5.564  10.227  63.917  1.00  0.00    -0.143 C  
HETATM    2  C   UNL     1      -6.628   9.145  63.862  1.00  0.00    -0.089 C  
ENDROOT
BRANCH   2   3
HETATM    3  C   UNL     1      -7.955   9.615  64.460  1.00  0.00    -0.140 C  
BRANCH   3   4
HETATM    4  C   UNL     1      -7.706  10.356  65.773  1.00  0.00    -0.146 C  
BRANCH   4   5
HETATM    5  C   UNL     1      -8.790  10.085  66.818  1.00  0.00    -0.144 C  
BRANCH   5   6
HETATM    6  C   UNL     1      -8.305   9.196  67.975  1.00  0.00    -0.120 C  
HETATM    7  O   UNL     1      -8.434   7.842  67.552  1.00  0.00    -0.122 OA 
HETATM    8  H   UNL     1      -8.134   7.293  68.268  1.00  0.00     0.000 HD 
BRANCH   6   9
HETATM    9  C   UNL     1      -9.067   9.434  69.261  1.00  0.00    -0.152 C  
HETATM   10  C   UNL     1     -10.391   9.610  69.399  1.00  0.00    -0.226 C  
BRANCH  10  11
HETATM   11  C   UNL     1     -11.067  10.001  70.696  1.00  0.00    -0.408 C  
HETATM   12  C   UNL     1     -12.109  11.109  70.433  1.00  0.00    -0.385 C  
HETATM   13  O   UNL     1     -11.507  12.391  70.317  1.00  0.00    -0.518 OA 
HETATM   14  C   UNL     1     -13.052  11.066  71.617  1.00  0.00    -0.543 C  
HETATM   15  H   UNL     1     -12.149  13.073  70.155  1.00  0.00     0.000 HD 
HETATM   16  C   UNL     1     -13.071   9.601  71.918  1.00  0.00    -0.436 C  
HETATM   17  O   UNL     1     -13.984   9.073  72.544  1.00  0.00    -0.478 OA 
HETATM   18  C   UNL     1     -11.855   8.859  71.384  1.00  0.00    -0.383 C  
BRANCH  18  19
HETATM   19  C   UNL     1     -11.026   8.202  72.505  1.00  0.00    -0.439 C  
BRANCH  19  20
HETATM   20  C   UNL     1     -11.396   6.739  72.781  1.00  0.00    -0.227 C  
BRANCH  20  21
HETATM   21  C   UNL     1     -10.188   5.807  72.655  1.00  0.00    -0.212 C  
BRANCH  21  22
HETATM   22  C   UNL     1      -9.476   6.010  71.314  1.00  0.00    -0.180 C  
BRANCH  22  23
HETATM   23  C   UNL     1     -10.106   5.157  70.213  1.00  0.00    -0.338 C  
BRANCH  23  24
HETATM   24  C   UNL     1     -10.923   6.007  69.238  1.00  0.00    -0.436 C  
HETATM   25  C   UNL     1     -10.488   5.784  67.807  1.00  0.00    -0.226 C  
HETATM   26  O   UNL     1      -9.603   5.028  67.444  1.00  0.00    -0.131 OA 
HETATM   27  O   UNL     1     -11.200   6.535  66.936  1.00  0.00    -0.387 OA 
ENDBRANCH  23  24
ENDBRANCH  22  23
ENDBRANCH  21  22
ENDBRANCH  20  21
ENDBRANCH  19  20
ENDBRANCH  18  19
ENDBRANCH  10  11
ENDBRANCH   6   9
ENDBRANCH   5   6
ENDBRANCH   4   5
ENDBRANCH   3   4
ENDBRANCH   2   3
TORSDOF 12
ENDMDL
MODEL      210
REMARK 921   NORMALIZED FREE ENERGY PREDICTED BY IDOCK:   -4.11 KCAL/MOL
REMARK 922        TOTAL FREE ENERGY PREDICTED BY IDOCK:   -8.94 KCAL/MOL
REMARK 923 INTER-LIGAND FREE ENERGY PREDICTED BY IDOCK:   -7.29 KCAL/MOL
REMARK 924 INTRA-LIGAND FREE ENERGY PREDICTED BY IDOCK:   -1.65 KCAL/MOL
REMARK 927      BINDING AFFINITY PREDICTED BY RF-SCORE:    0.00 PKD
ROOT
HETATM    1  C   UNL     1      -7.102   8.214  66.257  1.00  0.00    -0.073 C  
HETATM    2  C   UNL     1      -8.239   7.382  65.691  1.00  0.00    -0.137 C  
ENDROOT
BRANCH   2   3
HETATM    3  C   UNL     1      -9.040   6.682  66.790  1.00  0.00    -0.154 C  
BRANCH   3   4
HETATM    4  C   UNL     1     -10.439   7.288  66.886  1.00  0.00    -0.369 C  
BRANCH   4   5
HETATM    5  C   UNL     1     -10.849   7.599  68.327  1.00  0.00    -0.023 C  
BRANCH   5   6
HETATM    6  C   UNL     1     -10.567   9.055  68.735  1.00  0.00    -0.169 C  
HETATM    7  O   UNL     1     -11.648   9.480  69.558  1.00  0.00    -0.442 OA 
HETATM    8  H   UNL     1     -11.474  10.380  69.810  1.00  0.00     0.000 HD 
BRANCH   6   9
HETATM    9  C   UNL     1     -10.399   9.977  67.547  1.00  0.00    -0.282 C  
HETATM   10  C   UNL     1     -10.852  11.236  67.426  1.00  0.00    -0.311 C  
BRANCH  10  11
HETATM   11  C   UNL     1     -10.785  12.046  66.149  1.00  0.00    -0.312 C  
HETATM   12  C   UNL     1      -9.967  11.284  65.084  1.00  0.00    -0.264 C  
HETATM   13  O   UNL     1      -8.567  11.419  65.288  1.00  0.00    -0.387 OA 
HETATM   14  C   UNL     1     -10.374  11.884  63.755  1.00  0.00    -0.451 C  
HETATM   15  H   UNL     1      -8.064  10.950  64.632  1.00  0.00     0.000 HD 
HETATM   16  C   UNL     1     -11.817  12.193  64.007  1.00  0.00    -0.434 C  
HETATM   17  O   UNL     1     -12.625  12.334  63.097  1.00  0.00    -0.578 OA 
HETATM   18  C   UNL     1     -12.156  12.323  65.485  1.00  0.00    -0.326 C  
BRANCH  18  19
HETATM   19  C   UNL     1     -12.683  13.724  65.848  1.00  0.00    -0.452 C  
BRANCH  19  20
HETATM   20  C   UNL     1     -11.641  14.630  66.518  1.00  0.00    -0.350 C  
BRANCH  20  21
HETATM   21  C   UNL     1     -10.844  15.443  65.494  1.00  0.00    -0.384 C  
BRANCH  21  22
HETATM   22  C   UNL     1      -9.437  15.753  66.015  1.00  0.00    -0.392 C  
BRANCH  22  23
HETATM   23  C   UNL     1      -9.394  15.745  67.543  1.00  0.00    -0.210 C  
BRANCH  23  24
HETATM   24  C   UNL     1      -8.688  16.985  68.095  1.00  0.00    -0.233 C  
HETATM   25  C   UNL     1      -7.341  16.641  68.689  1.00  0.00    -0.203 C  
HETATM   26  O   UNL     1      -6.851  15.525  68.736  1.00  0.00    -0.109 OA 
HETATM   27  O   UNL     1      -6.710  17.729  69.186  1.00  0.00    -0.242 OA 
ENDBRANCH  23  24
ENDBRANCH  22  23
ENDBRANCH  21  22
ENDBRANCH  20  21
ENDBRANCH  19  20
ENDBRANCH  18  19
ENDBRANCH  10  11
ENDBRANCH   6   9
ENDBRANCH   5   6
ENDBRANCH   4   5
ENDBRANCH   3   4
ENDBRANCH   2   3
TORSDOF 12
ENDMDL
MODEL      211
REMARK 921   NORMALIZED FREE ENERGY PREDICTED BY IDOCK:   -4.11 KCAL/MOL
REMARK 922        TOTAL FREE ENERGY PREDICTED BY IDOCK:   -8.94 KCAL/MOL
REMARK 923 INTER-LIGAND FREE ENERGY PREDICTED BY IDOCK:   -6.54 KCAL/MOL
REMARK 924 INTRA-LIGAND FREE ENERGY PREDICTED BY IDOCK:   -2.40 KCAL/MOL
REMARK 927      BINDING AFFINITY PREDICTED BY RF-SCORE:    0.00 PKD
ROOT
HETATM    1  C   UNL     1     -11.575  14.572  69.653  1.00  0.00    -0.346 C  
HETATM    2  C   UNL     1     -11.910  14.522  68.173  1.00  0.00    -0.348 C  
ENDROOT
BRANCH   2   3
HETATM    3  C   UNL     1     -10.984  15.414  67.344  1.00  0.00    -0.312 C  
BRANCH   3   4
HETATM    4  C   UNL     1     -11.025  14.994  65.876  1.00  0.00    -0.343 C  
BRANCH   4   5
HETATM    5  C   UNL     1     -12.270  14.171  65.535  1.00  0.00    -0.443 C  
BRANCH   5   6
HETATM    6  C   UNL     1     -11.953  12.902  64.725  1.00  0.00    -0.396 C  
HETATM    7  O   UNL     1     -13.195  12.288  64.398  1.00  0.00    -0.806 OA 
HETATM    8  H   UNL     1     -12.999  11.503  63.897  1.00  0.00     0.000 HD 
BRANCH   6   9
HETATM    9  C   UNL     1     -11.053  11.939  65.468  1.00  0.00    -0.356 C  
HETATM   10  C   UNL     1     -11.269  11.392  66.675  1.00  0.00    -0.298 C  
BRANCH  10  11
HETATM   11  C   UNL     1     -10.253  10.559  67.427  1.00  0.00    -0.253 C  
HETATM   12  C   UNL     1      -9.985  11.182  68.814  1.00  0.00    -0.198 C  
HETATM   13  O   UNL     1      -9.087  12.281  68.742  1.00  0.00    -0.378 OA 
HETATM   14  C   UNL     1      -9.398  10.066  69.652  1.00  0.00    -0.242 C  
HETATM   15  H   UNL     1      -8.922  12.664  69.595  1.00  0.00     0.000 HD 
HETATM   16  C   UNL     1     -10.136   8.881  69.113  1.00  0.00    -0.197 C  
HETATM   17  O   UNL     1     -10.256   7.840  69.749  1.00  0.00    -0.201 OA 
HETATM   18  C   UNL     1     -10.695   9.104  67.716  1.00  0.00    -0.243 C  
BRANCH  18  19
HETATM   19  C   UNL     1     -10.108   8.124  66.682  1.00  0.00    -0.344 C  
BRANCH  19  20
HETATM   20  C   UNL     1      -8.587   8.238  66.506  1.00  0.00    -0.141 C  
BRANCH  20  21
HETATM   21  C   UNL     1      -8.147   7.904  65.078  1.00  0.00    -0.144 C  
BRANCH  21  22
HETATM   22  C   UNL     1      -6.716   8.385  64.819  1.00  0.00    -0.068 C  
BRANCH  22  23
HETATM   23  C   UNL     1      -6.134   9.091  66.044  1.00  0.00    -0.052 C  
BRANCH  23  24
HETATM   24  C   UNL     1      -6.262  10.611  65.934  1.00  0.00    -0.134 C  
HETATM   25  C   UNL     1      -6.429  11.256  67.292  1.00  0.00    -0.085 C  
HETATM   26  O   UNL     1      -6.461  10.665  68.357  1.00  0.00    -0.054 OA 
HETATM   27  O   UNL     1      -6.549  12.600  67.205  1.00  0.00    -0.160 OA 
ENDBRANCH  23  24
ENDBRANCH  22  23
ENDBRANCH  21  22
ENDBRANCH  20  21
ENDBRANCH  19  20
ENDBRANCH  18  19
ENDBRANCH  10  11
ENDBRANCH   6   9
ENDBRANCH   5   6
ENDBRANCH   4   5
ENDBRANCH   3   4
ENDBRANCH   2   3
TORSDOF 12
ENDMDL
MODEL      212
REMARK 921   NORMALIZED FREE ENERGY PREDICTED BY IDOCK:   -4.10 KCAL/MOL
REMARK 922        TOTAL FREE ENERGY PREDICTED BY IDOCK:   -8.93 KCAL/MOL
REMARK 923 INTER-LIGAND FREE ENERGY PREDICTED BY IDOCK:   -7.44 KCAL/MOL
REMARK 924 INTRA-LIGAND FREE ENERGY PREDICTED BY IDOCK:   -1.49 KCAL/MOL
REMARK 927      BINDING AFFINITY PREDICTED BY RF-SCORE:    0.00 PKD
ROOT
HETATM    1  C   UNL     1     -10.071  11.218  63.371  1.00  0.00    -0.445 C  
HETATM    2  C   UNL     1      -9.442  10.110  64.196  1.00  0.00    -0.353 C  
ENDROOT
BRANCH   2   3
HETATM    3  C   UNL     1      -9.897  10.153  65.656  1.00  0.00    -0.347 C  
BRANCH   3   4
HETATM    4  C   UNL     1      -9.039  11.141  66.444  1.00  0.00    -0.198 C  
BRANCH   4   5
HETATM    5  C   UNL     1      -9.840  11.902  67.502  1.00  0.00    -0.194 C  
BRANCH   5   6
HETATM    6  C   UNL     1     -11.344  11.576  67.473  1.00  0.00    -0.299 C  
HETATM    7  O   UNL     1     -12.033  12.786  67.177  1.00  0.00    -0.372 OA 
HETATM    8  H   UNL     1     -12.962  12.585  67.159  1.00  0.00     0.000 HD 
BRANCH   6   9
HETATM    9  C   UNL     1     -11.842  10.975  68.769  1.00  0.00    -0.352 C  
HETATM   10  C   UNL     1     -11.108  10.631  69.840  1.00  0.00    -0.364 C  
BRANCH  10  11
HETATM   11  C   UNL     1     -11.651   9.888  71.042  1.00  0.00    -0.470 C  
HETATM   12  C   UNL     1     -13.103  10.329  71.321  1.00  0.00    -0.398 C  
HETATM   13  O   UNL     1     -13.161  11.569  72.014  1.00  0.00    -0.509 OA 
HETATM   14  C   UNL     1     -13.709   9.222  72.157  1.00  0.00    -0.517 C  
HETATM   15  H   UNL     1     -14.055  11.841  72.186  1.00  0.00     0.000 HD 
HETATM   16  C   UNL     1     -13.026   8.020  71.583  1.00  0.00    -0.328 C  
HETATM   17  O   UNL     1     -13.487   6.890  71.694  1.00  0.00    -0.330 OA 
HETATM   18  C   UNL     1     -11.720   8.350  70.876  1.00  0.00    -0.269 C  
BRANCH  18  19
HETATM   19  C   UNL     1     -10.506   7.660  71.527  1.00  0.00    -0.231 C  
BRANCH  19  20
HETATM   20  C   UNL     1     -10.489   7.741  73.060  1.00  0.00    -0.432 C  
BRANCH  20  21
HETATM   21  C   UNL     1     -10.521   6.354  73.708  1.00  0.00    -0.319 C  
BRANCH  21  22
HETATM   22  C   UNL     1      -9.198   6.049  74.417  1.00  0.00    -0.148 C  
BRANCH  22  23
HETATM   23  C   UNL     1      -8.550   4.779  73.867  1.00  0.00    -0.103 C  
BRANCH  23  24
HETATM   24  C   UNL     1      -9.298   4.247  72.643  1.00  0.00    -0.152 C  
HETATM   25  C   UNL     1      -8.612   4.645  71.355  1.00  0.00    -0.111 C  
HETATM   26  O   UNL     1      -7.590   5.303  71.271  1.00  0.00    -0.093 OA 
HETATM   27  O   UNL     1      -9.269   4.185  70.266  1.00  0.00    -0.107 OA 
ENDBRANCH  23  24
ENDBRANCH  22  23
ENDBRANCH  21  22
ENDBRANCH  20  21
ENDBRANCH  19  20
ENDBRANCH  18  19
ENDBRANCH  10  11
ENDBRANCH   6   9
ENDBRANCH   5   6
ENDBRANCH   4   5
ENDBRANCH   3   4
ENDBRANCH   2   3
TORSDOF 12
ENDMDL
MODEL      213
REMARK 921   NORMALIZED FREE ENERGY PREDICTED BY IDOCK:   -4.10 KCAL/MOL
REMARK 922        TOTAL FREE ENERGY PREDICTED BY IDOCK:   -8.92 KCAL/MOL
REMARK 923 INTER-LIGAND FREE ENERGY PREDICTED BY IDOCK:   -7.76 KCAL/MOL
REMARK 924 INTRA-LIGAND FREE ENERGY PREDICTED BY IDOCK:   -1.16 KCAL/MOL
REMARK 927      BINDING AFFINITY PREDICTED BY RF-SCORE:    0.00 PKD
ROOT
HETATM    1  C   UNL     1     -10.372  20.015  65.885  1.00  0.00    -0.529 C  
HETATM    2  C   UNL     1     -10.151  18.589  66.354  1.00  0.00    -0.430 C  
ENDROOT
BRANCH   2   3
HETATM    3  C   UNL     1      -9.964  18.505  67.870  1.00  0.00    -0.374 C  
BRANCH   3   4
HETATM    4  C   UNL     1      -9.067  17.319  68.223  1.00  0.00    -0.262 C  
BRANCH   4   5
HETATM    5  C   UNL     1      -9.835  16.183  68.903  1.00  0.00    -0.239 C  
BRANCH   5   6
HETATM    6  C   UNL     1     -11.171  15.859  68.212  1.00  0.00    -0.354 C  
HETATM    7  O   UNL     1     -12.138  15.651  69.237  1.00  0.00    -0.490 OA 
HETATM    8  H   UNL     1     -12.963  15.450  68.810  1.00  0.00     0.000 HD 
BRANCH   6   9
HETATM    9  C   UNL     1     -11.085  14.654  67.301  1.00  0.00    -0.331 C  
HETATM   10  C   UNL     1     -11.995  13.678  67.157  1.00  0.00    -0.434 C  
BRANCH  10  11
HETATM   11  C   UNL     1     -11.775  12.420  66.344  1.00  0.00    -0.453 C  
HETATM   12  C   UNL     1     -11.784  12.758  64.838  1.00  0.00    -0.352 C  
HETATM   13  O   UNL     1     -13.105  12.899  64.331  1.00  0.00    -0.686 OA 
HETATM   14  C   UNL     1     -11.072  11.607  64.160  1.00  0.00    -0.435 C  
HETATM   15  H   UNL     1     -13.110  13.107  63.404  1.00  0.00     0.000 HD 
HETATM   16  C   UNL     1     -10.047  11.254  65.192  1.00  0.00    -0.275 C  
HETATM   17  O   UNL     1      -9.022  10.641  64.914  1.00  0.00    -0.189 OA 
HETATM   18  C   UNL     1     -10.417  11.718  66.593  1.00  0.00    -0.259 C  
BRANCH  18  19
HETATM   19  C   UNL     1     -10.564  10.547  67.583  1.00  0.00    -0.295 C  
BRANCH  19  20
HETATM   20  C   UNL     1      -9.423  10.445  68.604  1.00  0.00    -0.167 C  
BRANCH  20  21
HETATM   21  C   UNL     1      -8.861   9.023  68.698  1.00  0.00    -0.137 C  
BRANCH  21  22
HETATM   22  C   UNL     1      -9.732   8.036  67.915  1.00  0.00    -0.189 C  
BRANCH  22  23
HETATM   23  C   UNL     1      -8.909   7.259  66.888  1.00  0.00    -0.138 C  
BRANCH  23  24
HETATM   24  C   UNL     1      -8.750   5.791  67.285  1.00  0.00    -0.108 C  
HETATM   25  C   UNL     1      -9.912   4.953  66.801  1.00  0.00    -0.224 C  
HETATM   26  O   UNL     1     -10.869   5.367  66.170  1.00  0.00    -0.217 OA 
HETATM   27  O   UNL     1      -9.784   3.654  67.153  1.00  0.00    -0.199 OA 
ENDBRANCH  23  24
ENDBRANCH  22  23
ENDBRANCH  21  22
ENDBRANCH  20  21
ENDBRANCH  19  20
ENDBRANCH  18  19
ENDBRANCH  10  11
ENDBRANCH   6   9
ENDBRANCH   5   6
ENDBRANCH   4   5
ENDBRANCH   3   4
ENDBRANCH   2   3
TORSDOF 12
ENDMDL
MODEL      214
REMARK 921   NORMALIZED FREE ENERGY PREDICTED BY IDOCK:   -4.09 KCAL/MOL
REMARK 922        TOTAL FREE ENERGY PREDICTED BY IDOCK:   -8.91 KCAL/MOL
REMARK 923 INTER-LIGAND FREE ENERGY PREDICTED BY IDOCK:   -6.89 KCAL/MOL
REMARK 924 INTRA-LIGAND FREE ENERGY PREDICTED BY IDOCK:   -2.02 KCAL/MOL
REMARK 927      BINDING AFFINITY PREDICTED BY RF-SCORE:    0.00 PKD
ROOT
HETATM    1  C   UNL     1      -9.096   8.673  71.475  1.00  0.00    -0.308 C  
HETATM    2  C   UNL     1     -10.585   8.842  71.719  1.00  0.00    -0.432 C  
ENDROOT
BRANCH   2   3
HETATM    3  C   UNL     1     -11.123   7.817  72.719  1.00  0.00    -0.457 C  
BRANCH   3   4
HETATM    4  C   UNL     1     -11.560   6.550  71.987  1.00  0.00    -0.354 C  
BRANCH   4   5
HETATM    5  C   UNL     1     -12.102   6.837  70.585  1.00  0.00    -0.371 C  
BRANCH   5   6
HETATM    6  C   UNL     1     -11.322   6.111  69.476  1.00  0.00    -0.356 C  
HETATM    7  O   UNL     1     -10.281   5.372  70.104  1.00  0.00    -0.226 OA 
HETATM    8  H   UNL     1      -9.799   4.923  69.419  1.00  0.00     0.000 HD 
BRANCH   6   9
HETATM    9  C   UNL     1     -10.761   7.056  68.436  1.00  0.00    -0.224 C  
HETATM   10  C   UNL     1      -9.467   7.322  68.194  1.00  0.00    -0.134 C  
BRANCH  10  11
HETATM   11  C   UNL     1      -8.981   8.397  67.245  1.00  0.00    -0.142 C  
HETATM   12  C   UNL     1      -8.485   7.754  65.932  1.00  0.00    -0.142 C  
HETATM   13  O   UNL     1      -7.174   7.221  66.059  1.00  0.00    -0.071 OA 
HETATM   14  C   UNL     1      -8.513   8.864  64.903  1.00  0.00    -0.195 C  
HETATM   15  H   UNL     1      -6.870   6.826  65.251  1.00  0.00     0.000 HD 
HETATM   16  C   UNL     1      -9.708   9.645  65.352  1.00  0.00    -0.295 C  
HETATM   17  O   UNL     1     -10.320  10.396  64.601  1.00  0.00    -0.314 OA 
HETATM   18  C   UNL     1     -10.062   9.417  66.814  1.00  0.00    -0.325 C  
BRANCH  18  19
HETATM   19  C   UNL     1      -9.979  10.709  67.650  1.00  0.00    -0.197 C  
BRANCH  19  20
HETATM   20  C   UNL     1     -11.345  11.284  68.050  1.00  0.00    -0.372 C  
BRANCH  20  21
HETATM   21  C   UNL     1     -11.771  12.439  67.140  1.00  0.00    -0.415 C  
BRANCH  21  22
HETATM   22  C   UNL     1     -11.826  13.758  67.918  1.00  0.00    -0.413 C  
BRANCH  22  23
HETATM   23  C   UNL     1     -11.004  14.847  67.228  1.00  0.00    -0.323 C  
BRANCH  23  24
HETATM   24  C   UNL     1      -9.646  14.320  66.763  1.00  0.00    -0.290 C  
HETATM   25  C   UNL     1      -8.560  14.608  67.776  1.00  0.00    -0.173 C  
HETATM   26  O   UNL     1      -8.718  15.182  68.839  1.00  0.00    -0.181 OA 
HETATM   27  O   UNL     1      -7.354  14.151  67.371  1.00  0.00    -0.180 OA 
ENDBRANCH  23  24
ENDBRANCH  22  23
ENDBRANCH  21  22
ENDBRANCH  20  21
ENDBRANCH  19  20
ENDBRANCH  18  19
ENDBRANCH  10  11
ENDBRANCH   6   9
ENDBRANCH   5   6
ENDBRANCH   4   5
ENDBRANCH   3   4
ENDBRANCH   2   3
TORSDOF 12
ENDMDL
MODEL      215
REMARK 921   NORMALIZED FREE ENERGY PREDICTED BY IDOCK:   -4.08 KCAL/MOL
REMARK 922        TOTAL FREE ENERGY PREDICTED BY IDOCK:   -8.89 KCAL/MOL
REMARK 923 INTER-LIGAND FREE ENERGY PREDICTED BY IDOCK:   -7.34 KCAL/MOL
REMARK 924 INTRA-LIGAND FREE ENERGY PREDICTED BY IDOCK:   -1.55 KCAL/MOL
REMARK 927      BINDING AFFINITY PREDICTED BY RF-SCORE:    0.00 PKD
ROOT
HETATM    1  C   UNL     1     -10.507  20.452  68.302  1.00  0.00    -0.156 C  
HETATM    2  C   UNL     1     -10.178  19.034  67.869  1.00  0.00    -0.479 C  
ENDROOT
BRANCH   2   3
HETATM    3  C   UNL     1      -8.675  18.830  67.667  1.00  0.00    -0.300 C  
BRANCH   3   4
HETATM    4  C   UNL     1      -8.378  18.539  66.197  1.00  0.00    -0.166 C  
BRANCH   4   5
HETATM    5  C   UNL     1      -7.059  17.789  66.000  1.00  0.00    -0.335 C  
BRANCH   5   6
HETATM    6  C   UNL     1      -6.808  16.716  67.074  1.00  0.00    -0.209 C  
HETATM    7  O   UNL     1      -5.435  16.350  66.993  1.00  0.00    -0.292 OA 
HETATM    8  H   UNL     1      -5.280  15.687  67.656  1.00  0.00     0.000 HD 
BRANCH   6   9
HETATM    9  C   UNL     1      -7.699  15.503  66.914  1.00  0.00    -0.200 C  
HETATM   10  C   UNL     1      -8.761  15.171  67.667  1.00  0.00    -0.177 C  
BRANCH  10  11
HETATM   11  C   UNL     1      -9.512  13.862  67.549  1.00  0.00    -0.216 C  
HETATM   12  C   UNL     1      -8.705  12.730  68.220  1.00  0.00    -0.168 C  
HETATM   13  O   UNL     1      -7.661  12.250  67.383  1.00  0.00    -0.146 OA 
HETATM   14  C   UNL     1      -9.708  11.633  68.506  1.00  0.00    -0.187 C  
HETATM   15  H   UNL     1      -7.165  11.553  67.797  1.00  0.00     0.000 HD 
HETATM   16  C   UNL     1     -10.932  12.435  68.822  1.00  0.00    -0.246 C  
HETATM   17  O   UNL     1     -11.864  11.978  69.473  1.00  0.00    -0.304 OA 
HETATM   18  C   UNL     1     -10.894  13.844  68.248  1.00  0.00    -0.263 C  
BRANCH  18  19
HETATM   19  C   UNL     1     -12.034  14.102  67.244  1.00  0.00    -0.449 C  
BRANCH  19  20
HETATM   20  C   UNL     1     -12.076  13.107  66.076  1.00  0.00    -0.495 C  
BRANCH  20  21
HETATM   21  C   UNL     1     -12.799  13.684  64.856  1.00  0.00    -0.256 C  
BRANCH  21  22
HETATM   22  C   UNL     1     -12.138  13.215  63.555  1.00  0.00    -0.585 C  
BRANCH  22  23
HETATM   23  C   UNL     1     -11.756  11.736  63.625  1.00  0.00    -0.517 C  
BRANCH  23  24
HETATM   24  C   UNL     1     -10.252  11.532  63.433  1.00  0.00    -0.462 C  
HETATM   25  C   UNL     1      -9.674  10.619  64.491  1.00  0.00    -0.309 C  
HETATM   26  O   UNL     1     -10.303  10.095  65.395  1.00  0.00    -0.257 OA 
HETATM   27  O   UNL     1      -8.344  10.436  64.334  1.00  0.00    -0.165 OA 
ENDBRANCH  23  24
ENDBRANCH  22  23
ENDBRANCH  21  22
ENDBRANCH  20  21
ENDBRANCH  19  20
ENDBRANCH  18  19
ENDBRANCH  10  11
ENDBRANCH   6   9
ENDBRANCH   5   6
ENDBRANCH   4   5
ENDBRANCH   3   4
ENDBRANCH   2   3
TORSDOF 12
ENDMDL
MODEL      216
REMARK 921   NORMALIZED FREE ENERGY PREDICTED BY IDOCK:   -4.08 KCAL/MOL
REMARK 922        TOTAL FREE ENERGY PREDICTED BY IDOCK:   -8.89 KCAL/MOL
REMARK 923 INTER-LIGAND FREE ENERGY PREDICTED BY IDOCK:   -7.41 KCAL/MOL
REMARK 924 INTRA-LIGAND FREE ENERGY PREDICTED BY IDOCK:   -1.48 KCAL/MOL
REMARK 927      BINDING AFFINITY PREDICTED BY RF-SCORE:    0.00 PKD
ROOT
HETATM    1  C   UNL     1     -10.787  11.829  63.237  1.00  0.00    -0.400 C  
HETATM    2  C   UNL     1     -12.044  12.587  63.623  1.00  0.00    -0.642 C  
ENDROOT
BRANCH   2   3
HETATM    3  C   UNL     1     -11.733  13.813  64.484  1.00  0.00    -0.432 C  
BRANCH   3   4
HETATM    4  C   UNL     1     -10.432  13.597  65.254  1.00  0.00    -0.362 C  
BRANCH   4   5
HETATM    5  C   UNL     1     -10.573  13.903  66.747  1.00  0.00    -0.277 C  
BRANCH   5   6
HETATM    6  C   UNL     1     -11.791  13.220  67.391  1.00  0.00    -0.366 C  
HETATM    7  O   UNL     1     -11.952  13.780  68.690  1.00  0.00    -0.351 OA 
HETATM    8  H   UNL     1     -12.705  13.358  69.089  1.00  0.00     0.000 HD 
BRANCH   6   9
HETATM    9  C   UNL     1     -11.650  11.715  67.467  1.00  0.00    -0.345 C  
HETATM   10  C   UNL     1     -10.620  11.020  67.976  1.00  0.00    -0.241 C  
BRANCH  10  11
HETATM   11  C   UNL     1     -10.475   9.516  67.877  1.00  0.00    -0.293 C  
HETATM   12  C   UNL     1      -9.517   9.155  66.722  1.00  0.00    -0.175 C  
HETATM   13  O   UNL     1     -10.159   9.215  65.456  1.00  0.00    -0.391 OA 
HETATM   14  C   UNL     1      -9.043   7.747  67.015  1.00  0.00    -0.162 C  
HETATM   15  H   UNL     1      -9.568   8.992  64.745  1.00  0.00     0.000 HD 
HETATM   16  C   UNL     1      -8.991   7.765  68.511  1.00  0.00    -0.133 C  
HETATM   17  O   UNL     1      -8.307   6.976  69.152  1.00  0.00    -0.123 OA 
HETATM   18  C   UNL     1      -9.871   8.840  69.132  1.00  0.00    -0.181 C  
BRANCH  18  19
HETATM   19  C   UNL     1     -10.971   8.251  70.036  1.00  0.00    -0.197 C  
BRANCH  19  20
HETATM   20  C   UNL     1     -10.770   8.533  71.531  1.00  0.00    -0.330 C  
BRANCH  20  21
HETATM   21  C   UNL     1      -9.291   8.705  71.889  1.00  0.00    -0.357 C  
BRANCH  21  22
HETATM   22  C   UNL     1      -8.960   7.995  73.205  1.00  0.00    -0.338 C  
BRANCH  22  23
HETATM   23  C   UNL     1     -10.192   7.308  73.794  1.00  0.00    -0.370 C  
BRANCH  23  24
HETATM   24  C   UNL     1      -9.909   5.848  74.152  1.00  0.00    -0.216 C  
HETATM   25  C   UNL     1     -10.981   4.926  73.617  1.00  0.00    -0.318 C  
HETATM   26  O   UNL     1     -11.959   5.273  72.976  1.00  0.00    -0.220 OA 
HETATM   27  O   UNL     1     -10.744   3.633  73.932  1.00  0.00    -0.190 OA 
ENDBRANCH  23  24
ENDBRANCH  22  23
ENDBRANCH  21  22
ENDBRANCH  20  21
ENDBRANCH  19  20
ENDBRANCH  18  19
ENDBRANCH  10  11
ENDBRANCH   6   9
ENDBRANCH   5   6
ENDBRANCH   4   5
ENDBRANCH   3   4
ENDBRANCH   2   3
TORSDOF 12
ENDMDL
MODEL      217
REMARK 921   NORMALIZED FREE ENERGY PREDICTED BY IDOCK:   -4.08 KCAL/MOL
REMARK 922        TOTAL FREE ENERGY PREDICTED BY IDOCK:   -8.89 KCAL/MOL
REMARK 923 INTER-LIGAND FREE ENERGY PREDICTED BY IDOCK:   -7.39 KCAL/MOL
REMARK 924 INTRA-LIGAND FREE ENERGY PREDICTED BY IDOCK:   -1.49 KCAL/MOL
REMARK 927      BINDING AFFINITY PREDICTED BY RF-SCORE:    0.00 PKD
ROOT
HETATM    1  C   UNL     1     -13.486  15.774  73.085  1.00  0.00    -0.652 C  
HETATM    2  C   UNL     1     -14.392  15.011  72.135  1.00  0.00    -0.622 C  
ENDROOT
BRANCH   2   3
HETATM    3  C   UNL     1     -13.675  13.824  71.489  1.00  0.00    -0.286 C  
BRANCH   3   4
HETATM    4  C   UNL     1     -12.167  14.064  71.479  1.00  0.00    -0.285 C  
BRANCH   4   5
HETATM    5  C   UNL     1     -11.650  14.510  70.110  1.00  0.00    -0.334 C  
BRANCH   5   6
HETATM    6  C   UNL     1     -11.751  16.029  69.892  1.00  0.00    -0.271 C  
HETATM    7  O   UNL     1     -13.017  16.288  69.294  1.00  0.00    -0.046 OA 
HETATM    8  H   UNL     1     -13.079  17.227  69.159  1.00  0.00     0.000 HD 
BRANCH   6   9
HETATM    9  C   UNL     1     -10.629  16.578  69.038  1.00  0.00    -0.324 C  
HETATM   10  C   UNL     1     -10.259  17.863  68.909  1.00  0.00    -0.331 C  
BRANCH  10  11
HETATM   11  C   UNL     1      -9.230  18.357  67.915  1.00  0.00    -0.294 C  
HETATM   12  C   UNL     1      -9.930  19.094  66.754  1.00  0.00    -0.361 C  
HETATM   13  O   UNL     1     -10.473  18.192  65.799  1.00  0.00    -0.584 OA 
HETATM   14  C   UNL     1      -8.863  19.961  66.122  1.00  0.00    -0.358 C  
HETATM   15  H   UNL     1     -10.904  18.646  65.084  1.00  0.00     0.000 HD 
HETATM   16  C   UNL     1      -8.051  20.339  67.321  1.00  0.00    -0.338 C  
HETATM   17  O   UNL     1      -7.324  21.326  67.335  1.00  0.00    -0.484 OA 
HETATM   18  C   UNL     1      -8.215  19.377  68.488  1.00  0.00    -0.392 C  
BRANCH  18  19
HETATM   19  C   UNL     1      -6.892  18.692  68.879  1.00  0.00    -0.304 C  
BRANCH  19  20
HETATM   20  C   UNL     1      -6.770  17.242  68.393  1.00  0.00    -0.181 C  
BRANCH  20  21
HETATM   21  C   UNL     1      -6.567  16.262  69.551  1.00  0.00    -0.202 C  
BRANCH  21  22
HETATM   22  C   UNL     1      -7.140  14.882  69.210  1.00  0.00    -0.160 C  
BRANCH  22  23
HETATM   23  C   UNL     1      -6.318  14.191  68.122  1.00  0.00    -0.132 C  
BRANCH  23  24
HETATM   24  C   UNL     1      -6.221  12.683  68.358  1.00  0.00    -0.067 C  
HETATM   25  C   UNL     1      -7.348  11.940  67.677  1.00  0.00    -0.123 C  
HETATM   26  O   UNL     1      -8.236  12.450  67.014  1.00  0.00    -0.178 OA 
HETATM   27  O   UNL     1      -7.276  10.606  67.884  1.00  0.00    -0.085 OA 
ENDBRANCH  23  24
ENDBRANCH  22  23
ENDBRANCH  21  22
ENDBRANCH  20  21
ENDBRANCH  19  20
ENDBRANCH  18  19
ENDBRANCH  10  11
ENDBRANCH   6   9
ENDBRANCH   5   6
ENDBRANCH   4   5
ENDBRANCH   3   4
ENDBRANCH   2   3
TORSDOF 12
ENDMDL
MODEL      218
REMARK 921   NORMALIZED FREE ENERGY PREDICTED BY IDOCK:   -4.07 KCAL/MOL
REMARK 922        TOTAL FREE ENERGY PREDICTED BY IDOCK:   -8.87 KCAL/MOL
REMARK 923 INTER-LIGAND FREE ENERGY PREDICTED BY IDOCK:   -7.22 KCAL/MOL
REMARK 924 INTRA-LIGAND FREE ENERGY PREDICTED BY IDOCK:   -1.65 KCAL/MOL
REMARK 927      BINDING AFFINITY PREDICTED BY RF-SCORE:    0.00 PKD
ROOT
HETATM    1  C   UNL     1     -10.755   4.653  74.111  1.00  0.00    -0.329 C  
HETATM    2  C   UNL     1     -10.576   4.834  72.614  1.00  0.00    -0.271 C  
ENDROOT
BRANCH   2   3
HETATM    3  C   UNL     1      -9.190   4.390  72.144  1.00  0.00    -0.164 C  
BRANCH   3   4
HETATM    4  C   UNL     1      -8.429   5.577  71.557  1.00  0.00    -0.127 C  
BRANCH   4   5
HETATM    5  C   UNL     1      -7.935   6.549  72.631  1.00  0.00    -0.103 C  
BRANCH   5   6
HETATM    6  C   UNL     1      -8.101   8.025  72.233  1.00  0.00    -0.138 C  
HETATM    7  O   UNL     1      -7.440   8.807  73.223  1.00  0.00    -0.367 OA 
HETATM    8  H   UNL     1      -7.542   9.720  72.977  1.00  0.00     0.000 HD 
BRANCH   6   9
HETATM    9  C   UNL     1      -9.550   8.440  72.097  1.00  0.00    -0.367 C  
HETATM   10  C   UNL     1     -10.260   8.552  70.963  1.00  0.00    -0.255 C  
BRANCH  10  11
HETATM   11  C   UNL     1     -11.659   9.125  70.887  1.00  0.00    -0.350 C  
HETATM   12  C   UNL     1     -12.493   8.638  72.091  1.00  0.00    -0.389 C  
HETATM   13  O   UNL     1     -12.983   7.317  71.902  1.00  0.00    -0.431 OA 
HETATM   14  C   UNL     1     -13.639   9.620  72.213  1.00  0.00    -0.449 C  
HETATM   15  H   UNL     1     -13.496   7.017  72.644  1.00  0.00     0.000 HD 
HETATM   16  C   UNL     1     -12.975  10.892  71.789  1.00  0.00    -0.451 C  
HETATM   17  O   UNL     1     -13.415  11.994  72.098  1.00  0.00    -0.476 OA 
HETATM   18  C   UNL     1     -11.730  10.670  70.943  1.00  0.00    -0.387 C  
BRANCH  18  19
HETATM   19  C   UNL     1     -11.860  11.278  69.533  1.00  0.00    -0.427 C  
BRANCH  19  20
HETATM   20  C   UNL     1     -11.347  10.367  68.410  1.00  0.00    -0.292 C  
BRANCH  20  21
HETATM   21  C   UNL     1      -9.973  10.805  67.896  1.00  0.00    -0.196 C  
BRANCH  21  22
HETATM   22  C   UNL     1      -9.708  10.243  66.495  1.00  0.00    -0.243 C  
BRANCH  22  23
HETATM   23  C   UNL     1     -10.126   8.777  66.394  1.00  0.00    -0.313 C  
BRANCH  23  24
HETATM   24  C   UNL     1      -8.914   7.843  66.375  1.00  0.00    -0.200 C  
HETATM   25  C   UNL     1      -9.327   6.393  66.491  1.00  0.00    -0.155 C  
HETATM   26  O   UNL     1     -10.473   5.988  66.586  1.00  0.00    -0.232 OA 
HETATM   27  O   UNL     1      -8.263   5.559  66.481  1.00  0.00    -0.105 OA 
ENDBRANCH  23  24
ENDBRANCH  22  23
ENDBRANCH  21  22
ENDBRANCH  20  21
ENDBRANCH  19  20
ENDBRANCH  18  19
ENDBRANCH  10  11
ENDBRANCH   6   9
ENDBRANCH   5   6
ENDBRANCH   4   5
ENDBRANCH   3   4
ENDBRANCH   2   3
TORSDOF 12
ENDMDL
MODEL      219
REMARK 921   NORMALIZED FREE ENERGY PREDICTED BY IDOCK:   -4.04 KCAL/MOL
REMARK 922        TOTAL FREE ENERGY PREDICTED BY IDOCK:   -8.82 KCAL/MOL
REMARK 923 INTER-LIGAND FREE ENERGY PREDICTED BY IDOCK:   -6.80 KCAL/MOL
REMARK 924 INTRA-LIGAND FREE ENERGY PREDICTED BY IDOCK:   -2.01 KCAL/MOL
REMARK 927      BINDING AFFINITY PREDICTED BY RF-SCORE:    0.00 PKD
ROOT
HETATM    1  C   UNL     1      -8.863   9.289  70.727  1.00  0.00    -0.282 C  
HETATM    2  C   UNL     1      -7.496   9.111  70.090  1.00  0.00    -0.082 C  
ENDROOT
BRANCH   2   3
HETATM    3  C   UNL     1      -6.691  10.412  70.087  1.00  0.00    -0.150 C  
BRANCH   3   4
HETATM    4  C   UNL     1      -7.055  11.251  68.863  1.00  0.00    -0.104 C  
BRANCH   4   5
HETATM    5  C   UNL     1      -6.465  12.662  68.920  1.00  0.00    -0.091 C  
BRANCH   5   6
HETATM    6  C   UNL     1      -7.280  13.691  68.119  1.00  0.00    -0.117 C  
HETATM    7  O   UNL     1      -7.536  14.793  68.983  1.00  0.00    -0.126 OA 
HETATM    8  H   UNL     1      -8.040  15.429  68.489  1.00  0.00     0.000 HD 
BRANCH   6   9
HETATM    9  C   UNL     1      -8.573  13.123  67.574  1.00  0.00    -0.196 C  
HETATM   10  C   UNL     1      -9.464  13.745  66.785  1.00  0.00    -0.281 C  
BRANCH  10  11
HETATM   11  C   UNL     1     -10.812  13.170  66.406  1.00  0.00    -0.299 C  
HETATM   12  C   UNL     1     -11.858  14.301  66.307  1.00  0.00    -0.406 C  
HETATM   13  O   UNL     1     -12.343  14.694  67.584  1.00  0.00    -0.597 OA 
HETATM   14  C   UNL     1     -12.980  13.742  65.458  1.00  0.00    -0.363 C  
HETATM   15  H   UNL     1     -12.986  15.390  67.523  1.00  0.00     0.000 HD 
HETATM   16  C   UNL     1     -12.218  12.875  64.506  1.00  0.00    -0.426 C  
HETATM   17  O   UNL     1     -12.674  12.536  63.420  1.00  0.00    -0.710 OA 
HETATM   18  C   UNL     1     -10.850  12.462  65.029  1.00  0.00    -0.331 C  
BRANCH  18  19
HETATM   19  C   UNL     1     -10.713  10.935  65.180  1.00  0.00    -0.209 C  
BRANCH  19  20
HETATM   20  C   UNL     1      -9.642  10.310  64.275  1.00  0.00    -0.375 C  
BRANCH  20  21
HETATM   21  C   UNL     1      -8.475   9.732  65.080  1.00  0.00    -0.161 C  
BRANCH  21  22
HETATM   22  C   UNL     1      -8.939   9.271  66.465  1.00  0.00    -0.178 C  
BRANCH  22  23
HETATM   23  C   UNL     1      -9.543   7.867  66.412  1.00  0.00    -0.251 C  
BRANCH  23  24
HETATM   24  C   UNL     1     -10.595   7.663  67.503  1.00  0.00    -0.323 C  
HETATM   25  C   UNL     1     -10.477   6.297  68.141  1.00  0.00    -0.226 C  
HETATM   26  O   UNL     1      -9.657   5.445  67.846  1.00  0.00    -0.120 OA 
HETATM   27  O   UNL     1     -11.407   6.103  69.104  1.00  0.00    -0.399 OA 
ENDBRANCH  23  24
ENDBRANCH  22  23
ENDBRANCH  21  22
ENDBRANCH  20  21
ENDBRANCH  19  20
ENDBRANCH  18  19
ENDBRANCH  10  11
ENDBRANCH   6   9
ENDBRANCH   5   6
ENDBRANCH   4   5
ENDBRANCH   3   4
ENDBRANCH   2   3
TORSDOF 12
ENDMDL
MODEL      220
REMARK 921   NORMALIZED FREE ENERGY PREDICTED BY IDOCK:   -4.02 KCAL/MOL
REMARK 922        TOTAL FREE ENERGY PREDICTED BY IDOCK:   -8.78 KCAL/MOL
REMARK 923 INTER-LIGAND FREE ENERGY PREDICTED BY IDOCK:   -7.17 KCAL/MOL
REMARK 924 INTRA-LIGAND FREE ENERGY PREDICTED BY IDOCK:   -1.62 KCAL/MOL
REMARK 927      BINDING AFFINITY PREDICTED BY RF-SCORE:    0.00 PKD
ROOT
HETATM    1  C   UNL     1      -8.544   9.299  70.345  1.00  0.00    -0.250 C  
HETATM    2  C   UNL     1      -8.282   8.482  71.597  1.00  0.00    -0.209 C  
ENDROOT
BRANCH   2   3
HETATM    3  C   UNL     1      -9.390   8.655  72.638  1.00  0.00    -0.165 C  
BRANCH   3   4
HETATM    4  C   UNL     1     -10.706   9.008  71.948  1.00  0.00    -0.401 C  
BRANCH   4   5
HETATM    5  C   UNL     1     -11.890   8.204  72.490  1.00  0.00    -0.438 C  
BRANCH   5   6
HETATM    6  C   UNL     1     -12.157   6.913  71.698  1.00  0.00    -0.353 C  
HETATM    7  O   UNL     1     -12.269   5.853  72.642  1.00  0.00    -0.539 OA 
HETATM    8  H   UNL     1     -12.434   5.055  72.152  1.00  0.00     0.000 HD 
BRANCH   6   9
HETATM    9  C   UNL     1     -11.080   6.614  70.677  1.00  0.00    -0.349 C  
HETATM   10  C   UNL     1     -11.246   6.395  69.363  1.00  0.00    -0.459 C  
BRANCH  10  11
HETATM   11  C   UNL     1     -10.142   5.946  68.428  1.00  0.00    -0.206 C  
HETATM   12  C   UNL     1     -10.123   4.406  68.338  1.00  0.00     0.096 C  
HETATM   13  O   UNL     1      -9.471   3.813  69.454  1.00  0.00    -0.170 OA 
HETATM   14  C   UNL     1      -9.385   4.085  67.056  1.00  0.00    -0.204 C  
HETATM   15  H   UNL     1      -9.459   2.865  69.398  1.00  0.00     0.000 HD 
HETATM   16  C   UNL     1      -9.814   5.223  66.183  1.00  0.00    -0.165 C  
HETATM   17  O   UNL     1      -9.765   5.164  64.960  1.00  0.00     0.055 OA 
HETATM   18  C   UNL     1     -10.292   6.436  66.967  1.00  0.00    -0.307 C  
BRANCH  18  19
HETATM   19  C   UNL     1      -9.432   7.686  66.703  1.00  0.00    -0.255 C  
BRANCH  19  20
HETATM   20  C   UNL     1     -10.244   8.952  66.400  1.00  0.00    -0.273 C  
BRANCH  20  21
HETATM   21  C   UNL     1     -10.759   9.624  67.676  1.00  0.00    -0.324 C  
BRANCH  21  22
HETATM   22  C   UNL     1     -10.885  11.139  67.486  1.00  0.00    -0.303 C  
BRANCH  22  23
HETATM   23  C   UNL     1     -11.145  11.498  66.023  1.00  0.00    -0.289 C  
BRANCH  23  24
HETATM   24  C   UNL     1     -10.631  12.898  65.685  1.00  0.00    -0.295 C  
HETATM   25  C   UNL     1     -11.766  13.847  65.374  1.00  0.00    -0.340 C  
HETATM   26  O   UNL     1     -12.952  13.563  65.385  1.00  0.00    -0.656 OA 
HETATM   27  O   UNL     1     -11.322  15.087  65.067  1.00  0.00    -0.370 OA 
ENDBRANCH  23  24
ENDBRANCH  22  23
ENDBRANCH  21  22
ENDBRANCH  20  21
ENDBRANCH  19  20
ENDBRANCH  18  19
ENDBRANCH  10  11
ENDBRANCH   6   9
ENDBRANCH   5   6
ENDBRANCH   4   5
ENDBRANCH   3   4
ENDBRANCH   2   3
TORSDOF 12
ENDMDL
MODEL      221
REMARK 921   NORMALIZED FREE ENERGY PREDICTED BY IDOCK:   -3.99 KCAL/MOL
REMARK 922        TOTAL FREE ENERGY PREDICTED BY IDOCK:   -8.74 KCAL/MOL
REMARK 923 INTER-LIGAND FREE ENERGY PREDICTED BY IDOCK:   -6.89 KCAL/MOL
REMARK 924 INTRA-LIGAND FREE ENERGY PREDICTED BY IDOCK:   -1.86 KCAL/MOL
REMARK 927      BINDING AFFINITY PREDICTED BY RF-SCORE:    0.00 PKD
ROOT
HETATM    1  C   UNL     1      -9.725  14.520  68.434  1.00  0.00    -0.224 C  
HETATM    2  C   UNL     1     -10.923  14.614  67.506  1.00  0.00    -0.301 C  
ENDROOT
BRANCH   2   3
HETATM    3  C   UNL     1     -10.717  13.810  66.221  1.00  0.00    -0.285 C  
BRANCH   3   4
HETATM    4  C   UNL     1     -11.569  12.542  66.254  1.00  0.00    -0.449 C  
BRANCH   4   5
HETATM    5  C   UNL     1     -10.983  11.463  67.168  1.00  0.00    -0.340 C  
BRANCH   5   6
HETATM    6  C   UNL     1     -10.242  10.356  66.398  1.00  0.00    -0.230 C  
HETATM    7  O   UNL     1     -10.509  10.553  65.013  1.00  0.00    -0.286 OA 
HETATM    8  H   UNL     1     -10.051   9.868  64.538  1.00  0.00     0.000 HD 
BRANCH   6   9
HETATM    9  C   UNL     1     -10.647   8.965  66.833  1.00  0.00    -0.254 C  
HETATM   10  C   UNL     1      -9.864   8.029  67.395  1.00  0.00    -0.244 C  
BRANCH  10  11
HETATM   11  C   UNL     1     -10.297   6.603  67.660  1.00  0.00    -0.248 C  
HETATM   12  C   UNL     1      -9.445   5.629  66.819  1.00  0.00    -0.141 C  
HETATM   13  O   UNL     1      -9.892   5.555  65.472  1.00  0.00    -0.368 OA 
HETATM   14  C   UNL     1      -9.576   4.284  67.501  1.00  0.00    -0.217 C  
HETATM   15  H   UNL     1      -9.368   4.955  64.954  1.00  0.00     0.000 HD 
HETATM   16  C   UNL     1      -9.663   4.695  68.937  1.00  0.00    -0.166 C  
HETATM   17  O   UNL     1      -9.397   3.928  69.855  1.00  0.00    -0.139 OA 
HETATM   18  C   UNL     1     -10.120   6.134  69.125  1.00  0.00    -0.212 C  
BRANCH  18  19
HETATM   19  C   UNL     1     -11.441   6.236  69.910  1.00  0.00    -0.459 C  
BRANCH  19  20
HETATM   20  C   UNL     1     -11.266   6.222  71.435  1.00  0.00    -0.349 C  
BRANCH  20  21
HETATM   21  C   UNL     1     -12.270   7.140  72.137  1.00  0.00    -0.256 C  
BRANCH  21  22
HETATM   22  C   UNL     1     -12.654   8.321  71.241  1.00  0.00    -0.237 C  
BRANCH  22  23
HETATM   23  C   UNL     1     -11.846   9.571  71.587  1.00  0.00    -0.468 C  
BRANCH  23  24
HETATM   24  C   UNL     1     -10.897   9.964  70.453  1.00  0.00    -0.380 C  
HETATM   25  C   UNL     1      -9.483   9.504  70.726  1.00  0.00    -0.168 C  
HETATM   26  O   UNL     1      -9.114   8.894  71.715  1.00  0.00    -0.284 OA 
HETATM   27  O   UNL     1      -8.635   9.852  69.732  1.00  0.00    -0.183 OA 
ENDBRANCH  23  24
ENDBRANCH  22  23
ENDBRANCH  21  22
ENDBRANCH  20  21
ENDBRANCH  19  20
ENDBRANCH  18  19
ENDBRANCH  10  11
ENDBRANCH   6   9
ENDBRANCH   5   6
ENDBRANCH   4   5
ENDBRANCH   3   4
ENDBRANCH   2   3
TORSDOF 12
ENDMDL
MODEL      222
REMARK 921   NORMALIZED FREE ENERGY PREDICTED BY IDOCK:   -3.99 KCAL/MOL
REMARK 922        TOTAL FREE ENERGY PREDICTED BY IDOCK:   -8.73 KCAL/MOL
REMARK 923 INTER-LIGAND FREE ENERGY PREDICTED BY IDOCK:   -7.58 KCAL/MOL
REMARK 924 INTRA-LIGAND FREE ENERGY PREDICTED BY IDOCK:   -1.16 KCAL/MOL
REMARK 927      BINDING AFFINITY PREDICTED BY RF-SCORE:    0.00 PKD
ROOT
HETATM    1  C   UNL     1     -12.625  15.582  70.615  1.00  0.00    -0.493 C  
HETATM    2  C   UNL     1     -12.463  14.768  71.887  1.00  0.00    -0.410 C  
ENDROOT
BRANCH   2   3
HETATM    3  C   UNL     1     -13.803  14.243  72.407  1.00  0.00    -0.619 C  
BRANCH   3   4
HETATM    4  C   UNL     1     -13.845  12.720  72.301  1.00  0.00    -0.395 C  
BRANCH   4   5
HETATM    5  C   UNL     1     -12.764  12.164  71.371  1.00  0.00    -0.368 C  
BRANCH   5   6
HETATM    6  C   UNL     1     -13.012  10.702  70.961  1.00  0.00    -0.363 C  
HETATM    7  O   UNL     1     -12.881   9.906  72.134  1.00  0.00    -0.392 OA 
HETATM    8  H   UNL     1     -13.035   9.002  71.881  1.00  0.00     0.000 HD 
BRANCH   6   9
HETATM    9  C   UNL     1     -12.069  10.226  69.878  1.00  0.00    -0.178 C  
HETATM   10  C   UNL     1     -10.753  10.478  69.778  1.00  0.00    -0.314 C  
BRANCH  10  11
HETATM   11  C   UNL     1      -9.902  10.102  68.584  1.00  0.00    -0.170 C  
HETATM   12  C   UNL     1     -10.755   9.338  67.549  1.00  0.00    -0.203 C  
HETATM   13  O   UNL     1     -10.930   7.973  67.903  1.00  0.00    -0.477 OA 
HETATM   14  C   UNL     1     -10.007   9.459  66.239  1.00  0.00    -0.353 C  
HETATM   15  H   UNL     1     -11.455   7.503  67.266  1.00  0.00     0.000 HD 
HETATM   16  C   UNL     1      -9.417  10.828  66.369  1.00  0.00    -0.171 C  
HETATM   17  O   UNL     1      -9.056  11.481  65.396  1.00  0.00    -0.167 OA 
HETATM   18  C   UNL     1      -9.305  11.303  67.810  1.00  0.00    -0.163 C  
BRANCH  18  19
HETATM   19  C   UNL     1      -7.848  11.573  68.231  1.00  0.00    -0.138 C  
BRANCH  19  20
HETATM   20  C   UNL     1      -7.588  13.012  68.697  1.00  0.00    -0.089 C  
BRANCH  20  21
HETATM   21  C   UNL     1      -7.672  14.014  67.542  1.00  0.00    -0.197 C  
BRANCH  21  22
HETATM   22  C   UNL     1      -8.786  15.038  67.784  1.00  0.00    -0.167 C  
BRANCH  22  23
HETATM   23  C   UNL     1      -9.469  15.439  66.477  1.00  0.00    -0.298 C  
BRANCH  23  24
HETATM   24  C   UNL     1     -10.435  16.607  66.679  1.00  0.00    -0.258 C  
HETATM   25  C   UNL     1      -9.812  17.922  66.265  1.00  0.00    -0.301 C  
HETATM   26  O   UNL     1      -8.685  18.064  65.822  1.00  0.00    -0.482 OA 
HETATM   27  O   UNL     1     -10.656  18.963  66.446  1.00  0.00    -0.410 OA 
ENDBRANCH  23  24
ENDBRANCH  22  23
ENDBRANCH  21  22
ENDBRANCH  20  21
ENDBRANCH  19  20
ENDBRANCH  18  19
ENDBRANCH  10  11
ENDBRANCH   6   9
ENDBRANCH   5   6
ENDBRANCH   4   5
ENDBRANCH   3   4
ENDBRANCH   2   3
TORSDOF 12
ENDMDL
MODEL      223
REMARK 921   NORMALIZED FREE ENERGY PREDICTED BY IDOCK:   -3.98 KCAL/MOL
REMARK 922        TOTAL FREE ENERGY PREDICTED BY IDOCK:   -8.73 KCAL/MOL
REMARK 923 INTER-LIGAND FREE ENERGY PREDICTED BY IDOCK:   -6.94 KCAL/MOL
REMARK 924 INTRA-LIGAND FREE ENERGY PREDICTED BY IDOCK:   -1.79 KCAL/MOL
REMARK 927      BINDING AFFINITY PREDICTED BY RF-SCORE:    0.00 PKD
ROOT
HETATM    1  C   UNL     1      -8.962   9.363  62.344  1.00  0.00    -0.258 C  
HETATM    2  C   UNL     1      -8.500  10.259  63.479  1.00  0.00    -0.182 C  
ENDROOT
BRANCH   2   3
HETATM    3  C   UNL     1      -9.629  10.564  64.466  1.00  0.00    -0.359 C  
BRANCH   3   4
HETATM    4  C   UNL     1      -9.103  11.422  65.615  1.00  0.00    -0.173 C  
BRANCH   4   5
HETATM    5  C   UNL     1     -10.127  12.451  66.097  1.00  0.00    -0.265 C  
BRANCH   5   6
HETATM    6  C   UNL     1     -11.481  11.826  66.475  1.00  0.00    -0.255 C  
HETATM    7  O   UNL     1     -12.489  12.537  65.764  1.00  0.00    -0.626 OA 
HETATM    8  H   UNL     1     -13.325  12.151  65.998  1.00  0.00     0.000 HD 
BRANCH   6   9
HETATM    9  C   UNL     1     -11.748  11.855  67.964  1.00  0.00    -0.382 C  
HETATM   10  C   UNL     1     -10.936  11.425  68.944  1.00  0.00    -0.276 C  
BRANCH  10  11
HETATM   11  C   UNL     1     -11.333  11.339  70.402  1.00  0.00    -0.068 C  
HETATM   12  C   UNL     1     -12.444  12.365  70.707  1.00  0.00    -0.267 C  
HETATM   13  O   UNL     1     -11.926  13.677  70.886  1.00  0.00    -0.474 OA 
HETATM   14  C   UNL     1     -13.110  11.876  71.975  1.00  0.00    -0.441 C  
HETATM   15  H   UNL     1     -12.611  14.308  71.074  1.00  0.00     0.000 HD 
HETATM   16  C   UNL     1     -13.014  10.393  71.799  1.00  0.00    -0.475 C  
HETATM   17  O   UNL     1     -13.753   9.614  72.390  1.00  0.00    -0.414 OA 
HETATM   18  C   UNL     1     -11.915   9.971  70.835  1.00  0.00    -0.453 C  
BRANCH  18  19
HETATM   19  C   UNL     1     -10.844   9.094  71.510  1.00  0.00    -0.436 C  
BRANCH  19  20
HETATM   20  C   UNL     1      -9.519   9.020  70.740  1.00  0.00    -0.308 C  
BRANCH  20  21
HETATM   21  C   UNL     1      -9.067   7.575  70.511  1.00  0.00    -0.156 C  
BRANCH  21  22
HETATM   22  C   UNL     1      -8.096   7.485  69.329  1.00  0.00    -0.126 C  
BRANCH  22  23
HETATM   23  C   UNL     1      -8.461   8.482  68.230  1.00  0.00    -0.135 C  
BRANCH  23  24
HETATM   24  C   UNL     1      -7.522   8.368  67.028  1.00  0.00    -0.088 C  
HETATM   25  C   UNL     1      -8.119   7.512  65.934  1.00  0.00    -0.127 C  
HETATM   26  O   UNL     1      -9.210   6.969  65.974  1.00  0.00    -0.127 OA 
HETATM   27  O   UNL     1      -7.294   7.399  64.868  1.00  0.00    -0.070 OA 
ENDBRANCH  23  24
ENDBRANCH  22  23
ENDBRANCH  21  22
ENDBRANCH  20  21
ENDBRANCH  19  20
ENDBRANCH  18  19
ENDBRANCH  10  11
ENDBRANCH   6   9
ENDBRANCH   5   6
ENDBRANCH   4   5
ENDBRANCH   3   4
ENDBRANCH   2   3
TORSDOF 12
ENDMDL
MODEL      224
REMARK 921   NORMALIZED FREE ENERGY PREDICTED BY IDOCK:   -3.98 KCAL/MOL
REMARK 922        TOTAL FREE ENERGY PREDICTED BY IDOCK:   -8.72 KCAL/MOL
REMARK 923 INTER-LIGAND FREE ENERGY PREDICTED BY IDOCK:   -7.36 KCAL/MOL
REMARK 924 INTRA-LIGAND FREE ENERGY PREDICTED BY IDOCK:   -1.36 KCAL/MOL
REMARK 927      BINDING AFFINITY PREDICTED BY RF-SCORE:    0.00 PKD
ROOT
HETATM    1  C   UNL     1     -11.142  11.525  63.475  1.00  0.00    -0.434 C  
HETATM    2  C   UNL     1     -10.825  12.951  63.886  1.00  0.00    -0.402 C  
ENDROOT
BRANCH   2   3
HETATM    3  C   UNL     1     -11.627  13.385  65.115  1.00  0.00    -0.329 C  
BRANCH   3   4
HETATM    4  C   UNL     1     -11.869  12.188  66.033  1.00  0.00    -0.328 C  
BRANCH   4   5
HETATM    5  C   UNL     1     -11.257  12.379  67.423  1.00  0.00    -0.351 C  
BRANCH   5   6
HETATM    6  C   UNL     1     -10.415  11.177  67.882  1.00  0.00    -0.190 C  
HETATM    7  O   UNL     1     -10.212  10.343  66.746  1.00  0.00    -0.209 OA 
HETATM    8  H   UNL     1      -9.691   9.600  67.030  1.00  0.00     0.000 HD 
BRANCH   6   9
HETATM    9  C   UNL     1     -11.060  10.402  69.011  1.00  0.00    -0.297 C  
HETATM   10  C   UNL     1     -11.421  10.873  70.216  1.00  0.00    -0.391 C  
BRANCH  10  11
HETATM   11  C   UNL     1     -11.917  10.007  71.355  1.00  0.00    -0.470 C  
HETATM   12  C   UNL     1     -13.407  10.299  71.628  1.00  0.00    -0.353 C  
HETATM   13  O   UNL     1     -13.589  11.480  72.397  1.00  0.00    -0.544 OA 
HETATM   14  C   UNL     1     -13.926   9.089  72.376  1.00  0.00    -0.517 C  
HETATM   15  H   UNL     1     -14.506  11.659  72.565  1.00  0.00     0.000 HD 
HETATM   16  C   UNL     1     -13.128   7.993  71.742  1.00  0.00    -0.336 C  
HETATM   17  O   UNL     1     -13.487   6.822  71.769  1.00  0.00    -0.282 OA 
HETATM   18  C   UNL     1     -11.844   8.483  71.088  1.00  0.00    -0.322 C  
BRANCH  18  19
HETATM   19  C   UNL     1     -10.585   7.862  71.722  1.00  0.00    -0.276 C  
BRANCH  19  20
HETATM   20  C   UNL     1      -9.447   7.600  70.726  1.00  0.00    -0.162 C  
BRANCH  20  21
HETATM   21  C   UNL     1      -9.752   6.416  69.804  1.00  0.00    -0.172 C  
BRANCH  21  22
HETATM   22  C   UNL     1     -10.517   5.320  70.553  1.00  0.00    -0.312 C  
BRANCH  22  23
HETATM   23  C   UNL     1      -9.717   4.019  70.607  1.00  0.00    -0.266 C  
BRANCH  23  24
HETATM   24  C   UNL     1      -8.687   4.035  71.737  1.00  0.00    -0.132 C  
HETATM   25  C   UNL     1      -9.133   3.189  72.909  1.00  0.00    -0.087 C  
HETATM   26  O   UNL     1     -10.175   2.561  72.974  1.00  0.00    -0.120 OA 
HETATM   27  O   UNL     1      -8.231   3.202  73.917  1.00  0.00    -0.072 OA 
ENDBRANCH  23  24
ENDBRANCH  22  23
ENDBRANCH  21  22
ENDBRANCH  20  21
ENDBRANCH  19  20
ENDBRANCH  18  19
ENDBRANCH  10  11
ENDBRANCH   6   9
ENDBRANCH   5   6
ENDBRANCH   4   5
ENDBRANCH   3   4
ENDBRANCH   2   3
TORSDOF 12
ENDMDL
MODEL      225
REMARK 921   NORMALIZED FREE ENERGY PREDICTED BY IDOCK:   -3.96 KCAL/MOL
REMARK 922        TOTAL FREE ENERGY PREDICTED BY IDOCK:   -8.69 KCAL/MOL
REMARK 923 INTER-LIGAND FREE ENERGY PREDICTED BY IDOCK:   -7.22 KCAL/MOL
REMARK 924 INTRA-LIGAND FREE ENERGY PREDICTED BY IDOCK:   -1.48 KCAL/MOL
REMARK 927      BINDING AFFINITY PREDICTED BY RF-SCORE:    0.00 PKD
ROOT
HETATM    1  C   UNL     1      -8.977   8.283  72.689  1.00  0.00    -0.316 C  
HETATM    2  C   UNL     1     -10.470   8.005  72.696  1.00  0.00    -0.408 C  
ENDROOT
BRANCH   2   3
HETATM    3  C   UNL     1     -11.237   8.970  71.790  1.00  0.00    -0.448 C  
BRANCH   3   4
HETATM    4  C   UNL     1     -10.318   9.504  70.693  1.00  0.00    -0.369 C  
BRANCH   4   5
HETATM    5  C   UNL     1     -10.465   8.737  69.377  1.00  0.00    -0.228 C  
BRANCH   5   6
HETATM    6  C   UNL     1      -9.518   9.240  68.275  1.00  0.00    -0.138 C  
HETATM    7  O   UNL     1      -8.220   9.351  68.850  1.00  0.00    -0.107 OA 
HETATM    8  H   UNL     1      -7.635   9.662  68.169  1.00  0.00     0.000 HD 
BRANCH   6   9
HETATM    9  C   UNL     1      -9.957  10.559  67.677  1.00  0.00    -0.202 C  
HETATM   10  C   UNL     1     -10.478  10.764  66.456  1.00  0.00    -0.299 C  
BRANCH  10  11
HETATM   11  C   UNL     1     -10.748  12.130  65.864  1.00  0.00    -0.302 C  
HETATM   12  C   UNL     1     -11.122  11.994  64.373  1.00  0.00    -0.342 C  
HETATM   13  O   UNL     1      -9.977  11.822  63.548  1.00  0.00    -0.356 OA 
HETATM   14  C   UNL     1     -11.848  13.274  64.019  1.00  0.00    -0.512 C  
HETATM   15  H   UNL     1     -10.208  11.738  62.631  1.00  0.00     0.000 HD 
HETATM   16  C   UNL     1     -12.565  13.564  65.300  1.00  0.00    -0.468 C  
HETATM   17  O   UNL     1     -13.556  14.283  65.348  1.00  0.00    -0.516 OA 
HETATM   18  C   UNL     1     -11.931  12.893  66.510  1.00  0.00    -0.447 C  
BRANCH  18  19
HETATM   19  C   UNL     1     -11.438  13.909  67.558  1.00  0.00    -0.368 C  
BRANCH  19  20
HETATM   20  C   UNL     1     -10.255  14.767  67.089  1.00  0.00    -0.245 C  
BRANCH  20  21
HETATM   21  C   UNL     1      -9.003  14.533  67.939  1.00  0.00    -0.187 C  
BRANCH  21  22
HETATM   22  C   UNL     1      -7.738  14.926  67.171  1.00  0.00    -0.177 C  
BRANCH  22  23
HETATM   23  C   UNL     1      -6.489  14.778  68.041  1.00  0.00    -0.163 C  
BRANCH  23  24
HETATM   24  C   UNL     1      -6.384  13.378  68.646  1.00  0.00    -0.091 C  
HETATM   25  C   UNL     1      -5.988  13.430  70.105  1.00  0.00    -0.139 C  
HETATM   26  O   UNL     1      -5.775  14.445  70.746  1.00  0.00    -0.155 OA 
HETATM   27  O   UNL     1      -5.886  12.196  70.649  1.00  0.00    -0.236 OA 
ENDBRANCH  23  24
ENDBRANCH  22  23
ENDBRANCH  21  22
ENDBRANCH  20  21
ENDBRANCH  19  20
ENDBRANCH  18  19
ENDBRANCH  10  11
ENDBRANCH   6   9
ENDBRANCH   5   6
ENDBRANCH   4   5
ENDBRANCH   3   4
ENDBRANCH   2   3
TORSDOF 12
ENDMDL
MODEL      226
REMARK 921   NORMALIZED FREE ENERGY PREDICTED BY IDOCK:   -3.96 KCAL/MOL
REMARK 922        TOTAL FREE ENERGY PREDICTED BY IDOCK:   -8.69 KCAL/MOL
REMARK 923 INTER-LIGAND FREE ENERGY PREDICTED BY IDOCK:   -7.22 KCAL/MOL
REMARK 924 INTRA-LIGAND FREE ENERGY PREDICTED BY IDOCK:   -1.47 KCAL/MOL
REMARK 927      BINDING AFFINITY PREDICTED BY RF-SCORE:    0.00 PKD
ROOT
HETATM    1  C   UNL     1      -9.962  19.386  68.540  1.00  0.00    -0.520 C  
HETATM    2  C   UNL     1     -10.191  18.106  67.756  1.00  0.00    -0.395 C  
ENDROOT
BRANCH   2   3
HETATM    3  C   UNL     1      -9.455  18.116  66.415  1.00  0.00    -0.284 C  
BRANCH   3   4
HETATM    4  C   UNL     1      -9.512  16.729  65.775  1.00  0.00    -0.067 C  
BRANCH   4   5
HETATM    5  C   UNL     1     -10.862  16.442  65.114  1.00  0.00    -0.289 C  
BRANCH   5   6
HETATM    6  C   UNL     1     -11.211  14.944  65.077  1.00  0.00    -0.404 C  
HETATM    7  O   UNL     1     -12.581  14.838  64.703  1.00  0.00    -0.519 OA 
HETATM    8  H   UNL     1     -12.796  13.912  64.681  1.00  0.00     0.000 HD 
BRANCH   6   9
HETATM    9  C   UNL     1     -10.955  14.247  66.395  1.00  0.00    -0.311 C  
HETATM   10  C   UNL     1     -11.841  14.023  67.380  1.00  0.00    -0.445 C  
BRANCH  10  11
HETATM   11  C   UNL     1     -11.479  13.460  68.738  1.00  0.00    -0.344 C  
HETATM   12  C   UNL     1     -11.637  14.550  69.819  1.00  0.00    -0.295 C  
HETATM   13  O   UNL     1     -10.526  15.437  69.850  1.00  0.00    -0.276 OA 
HETATM   14  C   UNL     1     -11.761  13.805  71.131  1.00  0.00     0.260 C  
HETATM   15  H   UNL     1     -10.623  16.108  70.515  1.00  0.00     0.000 HD 
HETATM   16  C   UNL     1     -12.508  12.582  70.699  1.00  0.00    -0.238 C  
HETATM   17  O   UNL     1     -13.150  11.895  71.485  1.00  0.00    -0.402 OA 
HETATM   18  C   UNL     1     -12.374  12.288  69.212  1.00  0.00     0.069 C  
BRANCH  18  19
HETATM   19  C   UNL     1     -11.706  10.927  68.938  1.00  0.00    -0.376 C  
BRANCH  19  20
HETATM   20  C   UNL     1     -10.317  11.029  68.293  1.00  0.00    -0.197 C  
BRANCH  20  21
HETATM   21  C   UNL     1      -9.922   9.738  67.571  1.00  0.00    -0.230 C  
BRANCH  21  22
HETATM   22  C   UNL     1      -8.840  10.006  66.520  1.00  0.00    -0.154 C  
BRANCH  22  23
HETATM   23  C   UNL     1      -9.189  11.219  65.658  1.00  0.00    -0.231 C  
BRANCH  23  24
HETATM   24  C   UNL     1     -10.649  11.189  65.203  1.00  0.00    -0.319 C  
HETATM   25  C   UNL     1     -10.793  11.624  63.762  1.00  0.00    -0.424 C  
HETATM   26  O   UNL     1      -9.879  11.962  63.029  1.00  0.00    -0.385 OA 
HETATM   27  O   UNL     1     -12.081  11.607  63.352  1.00  0.00    -0.441 OA 
ENDBRANCH  23  24
ENDBRANCH  22  23
ENDBRANCH  21  22
ENDBRANCH  20  21
ENDBRANCH  19  20
ENDBRANCH  18  19
ENDBRANCH  10  11
ENDBRANCH   6   9
ENDBRANCH   5   6
ENDBRANCH   4   5
ENDBRANCH   3   4
ENDBRANCH   2   3
TORSDOF 12
ENDMDL
MODEL      227
REMARK 921   NORMALIZED FREE ENERGY PREDICTED BY IDOCK:   -3.96 KCAL/MOL
REMARK 922        TOTAL FREE ENERGY PREDICTED BY IDOCK:   -8.69 KCAL/MOL
REMARK 923 INTER-LIGAND FREE ENERGY PREDICTED BY IDOCK:   -7.67 KCAL/MOL
REMARK 924 INTRA-LIGAND FREE ENERGY PREDICTED BY IDOCK:   -1.02 KCAL/MOL
REMARK 927      BINDING AFFINITY PREDICTED BY RF-SCORE:    0.00 PKD
ROOT
HETATM    1  C   UNL     1      -8.678   5.319  73.837  1.00  0.00    -0.118 C  
HETATM    2  C   UNL     1     -10.112   5.692  73.506  1.00  0.00    -0.205 C  
ENDROOT
BRANCH   2   3
HETATM    3  C   UNL     1     -10.353   7.199  73.617  1.00  0.00    -0.411 C  
BRANCH   3   4
HETATM    4  C   UNL     1     -10.738   7.770  72.253  1.00  0.00    -0.325 C  
BRANCH   4   5
HETATM    5  C   UNL     1      -9.537   7.916  71.316  1.00  0.00    -0.186 C  
BRANCH   5   6
HETATM    6  C   UNL     1      -9.908   8.507  69.945  1.00  0.00    -0.186 C  
HETATM    7  O   UNL     1      -8.692   8.862  69.294  1.00  0.00    -0.134 OA 
HETATM    8  H   UNL     1      -8.922   9.227  68.447  1.00  0.00     0.000 HD 
BRANCH   6   9
HETATM    9  C   UNL     1     -10.832   9.701  70.049  1.00  0.00    -0.302 C  
HETATM   10  C   UNL     1     -11.320  10.440  69.039  1.00  0.00    -0.279 C  
BRANCH  10  11
HETATM   11  C   UNL     1     -12.113  11.716  69.224  1.00  0.00    -0.323 C  
HETATM   12  C   UNL     1     -12.185  12.079  70.722  1.00  0.00    -0.286 C  
HETATM   13  O   UNL     1     -13.173  11.322  71.409  1.00  0.00    -0.334 OA 
HETATM   14  C   UNL     1     -12.517  13.555  70.765  1.00  0.00    -0.428 C  
HETATM   15  H   UNL     1     -13.217  11.546  72.331  1.00  0.00     0.000 HD 
HETATM   16  C   UNL     1     -11.788  14.051  69.557  1.00  0.00    -0.325 C  
HETATM   17  O   UNL     1     -11.468  15.227  69.422  1.00  0.00    -0.274 OA 
HETATM   18  C   UNL     1     -11.504  12.961  68.534  1.00  0.00    -0.345 C  
BRANCH  18  19
HETATM   19  C   UNL     1     -12.179  13.237  67.177  1.00  0.00    -0.281 C  
BRANCH  19  20
HETATM   20  C   UNL     1     -11.577  12.447  66.007  1.00  0.00    -0.455 C  
BRANCH  20  21
HETATM   21  C   UNL     1     -11.813  13.141  64.662  1.00  0.00    -0.417 C  
BRANCH  21  22
HETATM   22  C   UNL     1     -12.402  14.541  64.864  1.00  0.00    -0.378 C  
BRANCH  22  23
HETATM   23  C   UNL     1     -11.440  15.626  64.379  1.00  0.00    -0.266 C  
BRANCH  23  24
HETATM   24  C   UNL     1     -10.521  16.110  65.501  1.00  0.00    -0.407 C  
HETATM   25  C   UNL     1     -10.509  17.619  65.599  1.00  0.00    -0.144 C  
HETATM   26  O   UNL     1     -11.142  18.380  64.889  1.00  0.00    -0.560 OA 
HETATM   27  O   UNL     1      -9.694  18.058  66.585  1.00  0.00    -0.303 OA 
ENDBRANCH  23  24
ENDBRANCH  22  23
ENDBRANCH  21  22
ENDBRANCH  20  21
ENDBRANCH  19  20
ENDBRANCH  18  19
ENDBRANCH  10  11
ENDBRANCH   6   9
ENDBRANCH   5   6
ENDBRANCH   4   5
ENDBRANCH   3   4
ENDBRANCH   2   3
TORSDOF 12
ENDMDL
MODEL      228
REMARK 921   NORMALIZED FREE ENERGY PREDICTED BY IDOCK:   -3.96 KCAL/MOL
REMARK 922        TOTAL FREE ENERGY PREDICTED BY IDOCK:   -8.69 KCAL/MOL
REMARK 923 INTER-LIGAND FREE ENERGY PREDICTED BY IDOCK:   -7.20 KCAL/MOL
REMARK 924 INTRA-LIGAND FREE ENERGY PREDICTED BY IDOCK:   -1.49 KCAL/MOL
REMARK 927      BINDING AFFINITY PREDICTED BY RF-SCORE:    0.00 PKD
ROOT
HETATM    1  C   UNL     1     -12.394  10.881  70.061  1.00  0.00    -0.385 C  
HETATM    2  C   UNL     1     -12.623   9.751  71.048  1.00  0.00    -0.406 C  
ENDROOT
BRANCH   2   3
HETATM    3  C   UNL     1     -11.570   8.649  70.914  1.00  0.00    -0.307 C  
BRANCH   3   4
HETATM    4  C   UNL     1     -10.398   8.926  71.854  1.00  0.00    -0.407 C  
BRANCH   4   5
HETATM    5  C   UNL     1      -9.045   8.867  71.142  1.00  0.00    -0.315 C  
BRANCH   5   6
HETATM    6  C   UNL     1      -9.074   8.019  69.859  1.00  0.00    -0.145 C  
HETATM    7  O   UNL     1      -8.217   6.902  70.070  1.00  0.00    -0.129 OA 
HETATM    8  H   UNL     1      -8.234   6.378  69.278  1.00  0.00     0.000 HD 
BRANCH   6   9
HETATM    9  C   UNL     1      -8.655   8.795  68.629  1.00  0.00    -0.134 C  
HETATM   10  C   UNL     1      -9.230   8.767  67.416  1.00  0.00    -0.158 C  
BRANCH  10  11
HETATM   11  C   UNL     1      -8.663   9.449  66.189  1.00  0.00    -0.165 C  
HETATM   12  C   UNL     1      -8.265   8.392  65.137  1.00  0.00    -0.157 C  
HETATM   13  O   UNL     1      -7.010   7.793  65.430  1.00  0.00    -0.054 OA 
HETATM   14  C   UNL     1      -8.208   9.135  63.819  1.00  0.00    -0.173 C  
HETATM   15  H   UNL     1      -6.766   7.142  64.781  1.00  0.00     0.000 HD 
HETATM   16  C   UNL     1      -9.309  10.132  64.001  1.00  0.00    -0.287 C  
HETATM   17  O   UNL     1      -9.861  10.678  63.052  1.00  0.00    -0.325 OA 
HETATM   18  C   UNL     1      -9.649  10.395  65.460  1.00  0.00    -0.290 C  
BRANCH  18  19
HETATM   19  C   UNL     1      -9.419  11.864  65.864  1.00  0.00    -0.227 C  
BRANCH  19  20
HETATM   20  C   UNL     1      -9.901  12.206  67.281  1.00  0.00    -0.202 C  
BRANCH  20  21
HETATM   21  C   UNL     1      -9.454  13.603  67.718  1.00  0.00    -0.221 C  
BRANCH  21  22
HETATM   22  C   UNL     1      -9.188  14.499  66.504  1.00  0.00    -0.282 C  
BRANCH  22  23
HETATM   23  C   UNL     1     -10.321  15.503  66.292  1.00  0.00    -0.312 C  
BRANCH  23  24
HETATM   24  C   UNL     1     -11.530  14.856  65.614  1.00  0.00    -0.290 C  
HETATM   25  C   UNL     1     -11.963  15.632  64.391  1.00  0.00    -0.136 C  
HETATM   26  O   UNL     1     -11.434  16.647  63.971  1.00  0.00    -1.192 OA 
HETATM   27  O   UNL     1     -13.036  15.072  63.787  1.00  0.00    -0.504 OA 
ENDBRANCH  23  24
ENDBRANCH  22  23
ENDBRANCH  21  22
ENDBRANCH  20  21
ENDBRANCH  19  20
ENDBRANCH  18  19
ENDBRANCH  10  11
ENDBRANCH   6   9
ENDBRANCH   5   6
ENDBRANCH   4   5
ENDBRANCH   3   4
ENDBRANCH   2   3
TORSDOF 12
ENDMDL
MODEL      229
REMARK 921   NORMALIZED FREE ENERGY PREDICTED BY IDOCK:   -3.96 KCAL/MOL
REMARK 922        TOTAL FREE ENERGY PREDICTED BY IDOCK:   -8.68 KCAL/MOL
REMARK 923 INTER-LIGAND FREE ENERGY PREDICTED BY IDOCK:   -7.07 KCAL/MOL
REMARK 924 INTRA-LIGAND FREE ENERGY PREDICTED BY IDOCK:   -1.61 KCAL/MOL
REMARK 927      BINDING AFFINITY PREDICTED BY RF-SCORE:    0.00 PKD
ROOT
HETATM    1  C   UNL     1     -13.724  13.231  72.298  1.00  0.00    -0.686 C  
HETATM    2  C   UNL     1     -12.688  13.440  71.208  1.00  0.00    -0.424 C  
ENDROOT
BRANCH   2   3
HETATM    3  C   UNL     1     -12.345  12.137  70.484  1.00  0.00    -0.358 C  
BRANCH   3   4
HETATM    4  C   UNL     1     -12.873  10.942  71.277  1.00  0.00    -0.536 C  
BRANCH   4   5
HETATM    5  C   UNL     1     -11.791   9.898  71.559  1.00  0.00    -0.445 C  
BRANCH   5   6
HETATM    6  C   UNL     1     -12.347   8.469  71.679  1.00  0.00    -0.326 C  
HETATM    7  O   UNL     1     -12.497   8.189  73.067  1.00  0.00    -0.673 OA 
HETATM    8  H   UNL     1     -12.841   7.305  73.142  1.00  0.00     0.000 HD 
BRANCH   6   9
HETATM    9  C   UNL     1     -11.466   7.435  71.013  1.00  0.00    -0.307 C  
HETATM   10  C   UNL     1     -10.275   6.985  71.442  1.00  0.00    -0.208 C  
BRANCH  10  11
HETATM   11  C   UNL     1      -9.374   6.066  70.644  1.00  0.00    -0.176 C  
HETATM   12  C   UNL     1      -8.991   4.836  71.494  1.00  0.00    -0.134 C  
HETATM   13  O   UNL     1      -7.946   5.126  72.413  1.00  0.00    -0.099 OA 
HETATM   14  C   UNL     1      -8.554   3.780  70.503  1.00  0.00    -0.110 C  
HETATM   15  H   UNL     1      -7.710   4.369  72.936  1.00  0.00     0.000 HD 
HETATM   16  C   UNL     1      -9.465   4.068  69.352  1.00  0.00    -0.189 C  
HETATM   17  O   UNL     1      -9.721   3.232  68.493  1.00  0.00    -0.112 OA 
HETATM   18  C   UNL     1     -10.015   5.487  69.359  1.00  0.00    -0.276 C  
BRANCH  18  19
HETATM   19  C   UNL     1      -9.595   6.289  68.113  1.00  0.00    -0.115 C  
BRANCH  19  20
HETATM   20  C   UNL     1     -10.765   6.947  67.369  1.00  0.00    -0.396 C  
BRANCH  20  21
HETATM   21  C   UNL     1     -10.601   8.466  67.268  1.00  0.00    -0.328 C  
BRANCH  21  22
HETATM   22  C   UNL     1      -9.315   8.926  67.962  1.00  0.00    -0.153 C  
BRANCH  22  23
HETATM   23  C   UNL     1      -8.602  10.009  67.153  1.00  0.00    -0.128 C  
BRANCH  23  24
HETATM   24  C   UNL     1      -9.590  11.022  66.570  1.00  0.00    -0.223 C  
HETATM   25  C   UNL     1      -9.391  11.199  65.082  1.00  0.00    -0.213 C  
HETATM   26  O   UNL     1      -8.559  10.621  64.404  1.00  0.00    -0.173 OA 
HETATM   27  O   UNL     1     -10.256  12.097  64.557  1.00  0.00    -0.280 OA 
ENDBRANCH  23  24
ENDBRANCH  22  23
ENDBRANCH  21  22
ENDBRANCH  20  21
ENDBRANCH  19  20
ENDBRANCH  18  19
ENDBRANCH  10  11
ENDBRANCH   6   9
ENDBRANCH   5   6
ENDBRANCH   4   5
ENDBRANCH   3   4
ENDBRANCH   2   3
TORSDOF 12
ENDMDL
MODEL      230
REMARK 921   NORMALIZED FREE ENERGY PREDICTED BY IDOCK:   -3.94 KCAL/MOL
REMARK 922        TOTAL FREE ENERGY PREDICTED BY IDOCK:   -8.65 KCAL/MOL
REMARK 923 INTER-LIGAND FREE ENERGY PREDICTED BY IDOCK:   -6.67 KCAL/MOL
REMARK 924 INTRA-LIGAND FREE ENERGY PREDICTED BY IDOCK:   -1.99 KCAL/MOL
REMARK 927      BINDING AFFINITY PREDICTED BY RF-SCORE:    0.00 PKD
ROOT
HETATM    1  C   UNL     1     -12.081  14.400  64.258  1.00  0.00    -0.461 C  
HETATM    2  C   UNL     1     -12.531  13.013  64.678  1.00  0.00    -0.460 C  
ENDROOT
BRANCH   2   3
HETATM    3  C   UNL     1     -11.479  12.302  65.531  1.00  0.00    -0.408 C  
BRANCH   3   4
HETATM    4  C   UNL     1     -11.659  12.671  67.003  1.00  0.00    -0.431 C  
BRANCH   4   5
HETATM    5  C   UNL     1     -11.781  11.443  67.907  1.00  0.00    -0.300 C  
BRANCH   5   6
HETATM    6  C   UNL     1     -11.126  11.640  69.285  1.00  0.00    -0.233 C  
HETATM    7  O   UNL     1      -9.798  12.102  69.060  1.00  0.00    -0.415 OA 
HETATM    8  H   UNL     1      -9.393  12.223  69.912  1.00  0.00     0.000 HD 
BRANCH   6   9
HETATM    9  C   UNL     1     -11.124  10.379  70.122  1.00  0.00    -0.383 C  
HETATM   10  C   UNL     1     -10.125   9.490  70.249  1.00  0.00    -0.314 C  
BRANCH  10  11
HETATM   11  C   UNL     1     -10.248   8.169  70.979  1.00  0.00    -0.221 C  
HETATM   12  C   UNL     1     -10.213   8.405  72.503  1.00  0.00    -0.299 C  
HETATM   13  O   UNL     1      -8.889   8.591  72.985  1.00  0.00    -0.321 OA 
HETATM   14  C   UNL     1     -10.837   7.171  73.118  1.00  0.00    -0.373 C  
HETATM   15  H   UNL     1      -8.868   8.736  73.924  1.00  0.00     0.000 HD 
HETATM   16  C   UNL     1     -11.870   6.827  72.091  1.00  0.00    -0.290 C  
HETATM   17  O   UNL     1     -12.849   6.136  72.352  1.00  0.00    -0.042 OA 
HETATM   18  C   UNL     1     -11.570   7.406  70.717  1.00  0.00    -0.317 C  
BRANCH  18  19
HETATM   19  C   UNL     1     -11.384   6.315  69.645  1.00  0.00    -0.492 C  
BRANCH  19  20
HETATM   20  C   UNL     1     -11.126   6.862  68.234  1.00  0.00    -0.152 C  
BRANCH  20  21
HETATM   21  C   UNL     1      -9.913   6.199  67.574  1.00  0.00    -0.159 C  
BRANCH  21  22
HETATM   22  C   UNL     1      -9.588   4.860  68.243  1.00  0.00    -0.196 C  
BRANCH  22  23
HETATM   23  C   UNL     1      -8.140   4.817  68.730  1.00  0.00    -0.083 C  
BRANCH  23  24
HETATM   24  C   UNL     1      -8.055   4.852  70.257  1.00  0.00    -0.077 C  
HETATM   25  C   UNL     1      -7.426   6.135  70.750  1.00  0.00    -0.091 C  
HETATM   26  O   UNL     1      -7.029   7.047  70.045  1.00  0.00    -0.058 OA 
HETATM   27  O   UNL     1      -7.341   6.174  72.099  1.00  0.00    -0.090 OA 
ENDBRANCH  23  24
ENDBRANCH  22  23
ENDBRANCH  21  22
ENDBRANCH  20  21
ENDBRANCH  19  20
ENDBRANCH  18  19
ENDBRANCH  10  11
ENDBRANCH   6   9
ENDBRANCH   5   6
ENDBRANCH   4   5
ENDBRANCH   3   4
ENDBRANCH   2   3
TORSDOF 12
ENDMDL
MODEL      231
REMARK 921   NORMALIZED FREE ENERGY PREDICTED BY IDOCK:   -3.94 KCAL/MOL
REMARK 922        TOTAL FREE ENERGY PREDICTED BY IDOCK:   -8.65 KCAL/MOL
REMARK 923 INTER-LIGAND FREE ENERGY PREDICTED BY IDOCK:   -7.66 KCAL/MOL
REMARK 924 INTRA-LIGAND FREE ENERGY PREDICTED BY IDOCK:   -0.99 KCAL/MOL
REMARK 927      BINDING AFFINITY PREDICTED BY RF-SCORE:    0.00 PKD
ROOT
HETATM    1  C   UNL     1      -9.698  20.378  67.281  1.00  0.00    -0.602 C  
HETATM    2  C   UNL     1      -9.774  19.822  68.692  1.00  0.00    -0.450 C  
ENDROOT
BRANCH   2   3
HETATM    3  C   UNL     1      -9.438  18.330  68.740  1.00  0.00    -0.298 C  
BRANCH   3   4
HETATM    4  C   UNL     1     -10.637  17.508  68.269  1.00  0.00    -0.354 C  
BRANCH   4   5
HETATM    5  C   UNL     1     -10.531  17.105  66.797  1.00  0.00    -0.263 C  
BRANCH   5   6
HETATM    6  C   UNL     1      -9.392  16.108  66.523  1.00  0.00    -0.268 C  
HETATM    7  O   UNL     1      -8.419  16.783  65.733  1.00  0.00    -0.472 OA 
HETATM    8  H   UNL     1      -7.715  16.167  65.564  1.00  0.00     0.000 HD 
BRANCH   6   9
HETATM    9  C   UNL     1      -9.866  14.847  65.833  1.00  0.00    -0.362 C  
HETATM   10  C   UNL     1     -10.581  13.846  66.372  1.00  0.00    -0.280 C  
BRANCH  10  11
HETATM   11  C   UNL     1     -10.886  12.541  65.667  1.00  0.00    -0.311 C  
HETATM   12  C   UNL     1     -11.848  12.792  64.487  1.00  0.00    -0.379 C  
HETATM   13  O   UNL     1     -13.197  12.919  64.915  1.00  0.00    -0.782 OA 
HETATM   14  C   UNL     1     -11.688  11.596  63.573  1.00  0.00    -0.384 C  
HETATM   15  H   UNL     1     -13.790  13.073  64.188  1.00  0.00     0.000 HD 
HETATM   16  C   UNL     1     -10.233  11.292  63.748  1.00  0.00    -0.377 C  
HETATM   17  O   UNL     1      -9.594  10.653  62.920  1.00  0.00    -0.298 OA 
HETATM   18  C   UNL     1      -9.654  11.840  65.043  1.00  0.00    -0.150 C  
BRANCH  18  19
HETATM   19  C   UNL     1      -9.114  10.729  65.965  1.00  0.00    -0.204 C  
BRANCH  19  20
HETATM   20  C   UNL     1      -9.870  10.598  67.294  1.00  0.00    -0.206 C  
BRANCH  20  21
HETATM   21  C   UNL     1     -10.896   9.462  67.262  1.00  0.00    -0.165 C  
BRANCH  21  22
HETATM   22  C   UNL     1     -10.212   8.099  67.405  1.00  0.00    -0.327 C  
BRANCH  22  23
HETATM   23  C   UNL     1      -9.843   7.810  68.860  1.00  0.00    -0.166 C  
BRANCH  23  24
HETATM   24  C   UNL     1      -8.693   6.807  68.963  1.00  0.00    -0.130 C  
HETATM   25  C   UNL     1      -9.146   5.500  69.574  1.00  0.00    -0.120 C  
HETATM   26  O   UNL     1     -10.279   5.247  69.945  1.00  0.00    -0.247 OA 
HETATM   27  O   UNL     1      -8.135   4.608  69.675  1.00  0.00    -0.064 OA 
ENDBRANCH  23  24
ENDBRANCH  22  23
ENDBRANCH  21  22
ENDBRANCH  20  21
ENDBRANCH  19  20
ENDBRANCH  18  19
ENDBRANCH  10  11
ENDBRANCH   6   9
ENDBRANCH   5   6
ENDBRANCH   4   5
ENDBRANCH   3   4
ENDBRANCH   2   3
TORSDOF 12
ENDMDL
MODEL      232
REMARK 921   NORMALIZED FREE ENERGY PREDICTED BY IDOCK:   -3.93 KCAL/MOL
REMARK 922        TOTAL FREE ENERGY PREDICTED BY IDOCK:   -8.63 KCAL/MOL
REMARK 923 INTER-LIGAND FREE ENERGY PREDICTED BY IDOCK:   -6.81 KCAL/MOL
REMARK 924 INTRA-LIGAND FREE ENERGY PREDICTED BY IDOCK:   -1.82 KCAL/MOL
REMARK 927      BINDING AFFINITY PREDICTED BY RF-SCORE:    0.00 PKD
ROOT
HETATM    1  C   UNL     1     -10.714  12.072  63.492  1.00  0.00    -0.513 C  
HETATM    2  C   UNL     1     -12.177  12.476  63.535  1.00  0.00    -0.652 C  
ENDROOT
BRANCH   2   3
HETATM    3  C   UNL     1     -12.404  13.719  64.397  1.00  0.00    -0.389 C  
BRANCH   3   4
HETATM    4  C   UNL     1     -11.152  14.022  65.220  1.00  0.00    -0.325 C  
BRANCH   4   5
HETATM    5  C   UNL     1     -11.437  14.088  66.722  1.00  0.00    -0.379 C  
BRANCH   5   6
HETATM    6  C   UNL     1     -11.927  12.751  67.304  1.00  0.00    -0.280 C  
HETATM    7  O   UNL     1     -12.076  12.930  68.709  1.00  0.00    -0.280 OA 
HETATM    8  H   UNL     1     -12.379  12.104  69.068  1.00  0.00     0.000 HD 
BRANCH   6   9
HETATM    9  C   UNL     1     -10.993  11.600  67.003  1.00  0.00    -0.338 C  
HETATM   10  C   UNL     1      -9.785  11.372  67.544  1.00  0.00    -0.191 C  
BRANCH  10  11
HETATM   11  C   UNL     1      -8.836  10.287  67.081  1.00  0.00    -0.141 C  
HETATM   12  C   UNL     1      -7.451  10.894  66.772  1.00  0.00    -0.134 C  
HETATM   13  O   UNL     1      -7.415  11.521  65.497  1.00  0.00    -0.111 OA 
HETATM   14  C   UNL     1      -6.479   9.735  66.825  1.00  0.00    -0.066 C  
HETATM   15  H   UNL     1      -6.563  11.895  65.307  1.00  0.00     0.000 HD 
HETATM   16  C   UNL     1      -7.086   8.898  67.907  1.00  0.00    -0.079 C  
HETATM   17  O   UNL     1      -6.437   8.071  68.537  1.00  0.00    -0.051 OA 
HETATM   18  C   UNL     1      -8.566   9.175  68.125  1.00  0.00    -0.129 C  
BRANCH  18  19
HETATM   19  C   UNL     1      -9.442   7.935  67.862  1.00  0.00    -0.160 C  
BRANCH  19  20
HETATM   20  C   UNL     1     -10.747   7.908  68.670  1.00  0.00    -0.073 C  
BRANCH  20  21
HETATM   21  C   UNL     1     -10.880   6.632  69.506  1.00  0.00    -0.339 C  
BRANCH  21  22
HETATM   22  C   UNL     1     -10.344   6.848  70.925  1.00  0.00    -0.218 C  
BRANCH  22  23
HETATM   23  C   UNL     1     -10.731   8.226  71.463  1.00  0.00    -0.295 C  
BRANCH  23  24
HETATM   24  C   UNL     1     -12.032   8.174  72.266  1.00  0.00    -0.434 C  
HETATM   25  C   UNL     1     -13.023   9.211  71.788  1.00  0.00    -0.380 C  
HETATM   26  O   UNL     1     -12.838  10.001  70.878  1.00  0.00    -0.344 OA 
HETATM   27  O   UNL     1     -14.175   9.177  72.495  1.00  0.00    -0.512 OA 
ENDBRANCH  23  24
ENDBRANCH  22  23
ENDBRANCH  21  22
ENDBRANCH  20  21
ENDBRANCH  19  20
ENDBRANCH  18  19
ENDBRANCH  10  11
ENDBRANCH   6   9
ENDBRANCH   5   6
ENDBRANCH   4   5
ENDBRANCH   3   4
ENDBRANCH   2   3
TORSDOF 12
ENDMDL
MODEL      233
REMARK 921   NORMALIZED FREE ENERGY PREDICTED BY IDOCK:   -3.91 KCAL/MOL
REMARK 922        TOTAL FREE ENERGY PREDICTED BY IDOCK:   -8.60 KCAL/MOL
REMARK 923 INTER-LIGAND FREE ENERGY PREDICTED BY IDOCK:   -6.70 KCAL/MOL
REMARK 924 INTRA-LIGAND FREE ENERGY PREDICTED BY IDOCK:   -1.91 KCAL/MOL
REMARK 927      BINDING AFFINITY PREDICTED BY RF-SCORE:    0.00 PKD
ROOT
HETATM    1  C   UNL     1     -11.833  12.293  69.102  1.00  0.00    -0.355 C  
HETATM    2  C   UNL     1     -11.545  13.779  69.221  1.00  0.00    -0.362 C  
ENDROOT
BRANCH   2   3
HETATM    3  C   UNL     1     -10.044  14.069  69.286  1.00  0.00     0.122 C  
BRANCH   3   4
HETATM    4  C   UNL     1      -9.338  13.452  68.079  1.00  0.00    -0.217 C  
BRANCH   4   5
HETATM    5  C   UNL     1      -7.915  12.993  68.402  1.00  0.00    -0.135 C  
BRANCH   5   6
HETATM    6  C   UNL     1      -6.947  14.161  68.657  1.00  0.00    -0.107 C  
HETATM    7  O   UNL     1      -6.675  14.187  70.055  1.00  0.00    -0.313 OA 
HETATM    8  H   UNL     1      -6.076  14.908  70.213  1.00  0.00     0.000 HD 
BRANCH   6   9
HETATM    9  C   UNL     1      -7.493  15.492  68.190  1.00  0.00    -0.119 C  
HETATM   10  C   UNL     1      -7.476  16.657  68.858  1.00  0.00    -0.232 C  
BRANCH  10  11
HETATM   11  C   UNL     1      -8.181  17.914  68.396  1.00  0.00    -0.303 C  
HETATM   12  C   UNL     1      -7.216  19.116  68.469  1.00  0.00    -0.306 C  
HETATM   13  O   UNL     1      -7.094  19.625  69.791  1.00  0.00    -0.269 OA 
HETATM   14  C   UNL     1      -7.802  20.163  67.545  1.00  0.00    -0.344 C  
HETATM   15  H   UNL     1      -6.500  20.365  69.835  1.00  0.00     0.000 HD 
HETATM   16  C   UNL     1      -8.394  19.303  66.473  1.00  0.00    -0.319 C  
HETATM   17  O   UNL     1      -8.632  19.729  65.349  1.00  0.00    -0.161 OA 
HETATM   18  C   UNL     1      -8.674  17.878  66.929  1.00  0.00    -0.258 C  
BRANCH  18  19
HETATM   19  C   UNL     1     -10.169  17.515  66.847  1.00  0.00    -0.329 C  
BRANCH  19  20
HETATM   20  C   UNL     1     -10.589  16.893  65.509  1.00  0.00    -0.215 C  
BRANCH  20  21
HETATM   21  C   UNL     1     -10.518  15.363  65.539  1.00  0.00    -0.402 C  
BRANCH  21  22
HETATM   22  C   UNL     1     -11.906  14.753  65.753  1.00  0.00    -0.202 C  
BRANCH  22  23
HETATM   23  C   UNL     1     -11.934  13.277  65.357  1.00  0.00    -0.432 C  
BRANCH  23  24
HETATM   24  C   UNL     1     -11.152  13.023  64.067  1.00  0.00    -0.433 C  
HETATM   25  C   UNL     1     -10.450  11.685  64.095  1.00  0.00    -0.351 C  
HETATM   26  O   UNL     1     -10.485  10.885  65.015  1.00  0.00    -0.295 OA 
HETATM   27  O   UNL     1      -9.751  11.453  62.961  1.00  0.00    -0.360 OA 
ENDBRANCH  23  24
ENDBRANCH  22  23
ENDBRANCH  21  22
ENDBRANCH  20  21
ENDBRANCH  19  20
ENDBRANCH  18  19
ENDBRANCH  10  11
ENDBRANCH   6   9
ENDBRANCH   5   6
ENDBRANCH   4   5
ENDBRANCH   3   4
ENDBRANCH   2   3
TORSDOF 12
ENDMDL
MODEL      234
REMARK 921   NORMALIZED FREE ENERGY PREDICTED BY IDOCK:   -3.90 KCAL/MOL
REMARK 922        TOTAL FREE ENERGY PREDICTED BY IDOCK:   -8.59 KCAL/MOL
REMARK 923 INTER-LIGAND FREE ENERGY PREDICTED BY IDOCK:   -7.59 KCAL/MOL
REMARK 924 INTRA-LIGAND FREE ENERGY PREDICTED BY IDOCK:   -1.00 KCAL/MOL
REMARK 927      BINDING AFFINITY PREDICTED BY RF-SCORE:    0.00 PKD
ROOT
HETATM    1  C   UNL     1      -6.520   6.492  70.285  1.00  0.00    -0.040 C  
HETATM    2  C   UNL     1      -7.524   7.090  69.316  1.00  0.00    -0.094 C  
ENDROOT
BRANCH   2   3
HETATM    3  C   UNL     1      -8.956   7.006  69.849  1.00  0.00    -0.142 C  
BRANCH   3   4
HETATM    4  C   UNL     1      -9.854   7.985  69.095  1.00  0.00    -0.178 C  
BRANCH   4   5
HETATM    5  C   UNL     1      -9.175   8.572  67.856  1.00  0.00    -0.148 C  
BRANCH   5   6
HETATM    6  C   UNL     1      -9.913   8.242  66.548  1.00  0.00    -0.250 C  
HETATM    7  O   UNL     1      -9.083   7.354  65.806  1.00  0.00    -0.355 OA 
HETATM    8  H   UNL     1      -9.539   7.150  64.997  1.00  0.00     0.000 HD 
BRANCH   6   9
HETATM    9  C   UNL     1     -10.250   9.472  65.734  1.00  0.00    -0.107 C  
HETATM   10  C   UNL     1      -9.900  10.741  65.998  1.00  0.00    -0.285 C  
BRANCH  10  11
HETATM   11  C   UNL     1     -10.404  11.942  65.226  1.00  0.00    -0.316 C  
HETATM   12  C   UNL     1     -11.275  11.478  64.040  1.00  0.00    -0.333 C  
HETATM   13  O   UNL     1     -10.489  11.051  62.935  1.00  0.00    -0.746 OA 
HETATM   14  C   UNL     1     -12.119  12.677  63.663  1.00  0.00    -0.632 C  
HETATM   15  H   UNL     1     -11.025  10.765  62.204  1.00  0.00     0.000 HD 
HETATM   16  C   UNL     1     -12.347  13.302  65.004  1.00  0.00    -0.448 C  
HETATM   17  O   UNL     1     -13.280  14.067  65.220  1.00  0.00    -0.782 OA 
HETATM   18  C   UNL     1     -11.307  12.902  66.040  1.00  0.00    -0.354 C  
BRANCH  18  19
HETATM   19  C   UNL     1     -10.509  14.108  66.571  1.00  0.00    -0.280 C  
BRANCH  19  20
HETATM   20  C   UNL     1      -9.199  13.730  67.275  1.00  0.00    -0.239 C  
BRANCH  20  21
HETATM   21  C   UNL     1      -8.202  14.892  67.298  1.00  0.00    -0.234 C  
BRANCH  21  22
HETATM   22  C   UNL     1      -8.537  15.879  68.420  1.00  0.00    -0.178 C  
BRANCH  22  23
HETATM   23  C   UNL     1      -8.923  17.249  67.861  1.00  0.00    -0.235 C  
BRANCH  23  24
HETATM   24  C   UNL     1      -8.461  17.419  66.413  1.00  0.00    -0.292 C  
HETATM   25  C   UNL     1      -7.373  18.463  66.295  1.00  0.00    -0.258 C  
HETATM   26  O   UNL     1      -6.902  19.104  67.219  1.00  0.00    -0.196 OA 
HETATM   27  O   UNL     1      -6.962  18.626  65.017  1.00  0.00    -0.467 OA 
ENDBRANCH  23  24
ENDBRANCH  22  23
ENDBRANCH  21  22
ENDBRANCH  20  21
ENDBRANCH  19  20
ENDBRANCH  18  19
ENDBRANCH  10  11
ENDBRANCH   6   9
ENDBRANCH   5   6
ENDBRANCH   4   5
ENDBRANCH   3   4
ENDBRANCH   2   3
TORSDOF 12
ENDMDL
MODEL      235
REMARK 921   NORMALIZED FREE ENERGY PREDICTED BY IDOCK:   -3.90 KCAL/MOL
REMARK 922        TOTAL FREE ENERGY PREDICTED BY IDOCK:   -8.58 KCAL/MOL
REMARK 923 INTER-LIGAND FREE ENERGY PREDICTED BY IDOCK:   -7.50 KCAL/MOL
REMARK 924 INTRA-LIGAND FREE ENERGY PREDICTED BY IDOCK:   -1.08 KCAL/MOL
REMARK 927      BINDING AFFINITY PREDICTED BY RF-SCORE:    0.00 PKD
ROOT
HETATM    1  C   UNL     1      -6.228   9.982  65.675  1.00  0.00    -0.088 C  
HETATM    2  C   UNL     1      -6.539   8.510  65.472  1.00  0.00    -0.059 C  
ENDROOT
BRANCH   2   3
HETATM    3  C   UNL     1      -7.285   7.911  66.666  1.00  0.00    -0.084 C  
BRANCH   3   4
HETATM    4  C   UNL     1      -7.710   9.020  67.628  1.00  0.00    -0.097 C  
BRANCH   4   5
HETATM    5  C   UNL     1      -9.037   8.715  68.327  1.00  0.00    -0.141 C  
BRANCH   5   6
HETATM    6  C   UNL     1      -9.091   9.235  69.774  1.00  0.00    -0.177 C  
HETATM    7  O   UNL     1      -8.770   8.142  70.629  1.00  0.00    -0.129 OA 
HETATM    8  H   UNL     1      -8.804   8.463  71.523  1.00  0.00     0.000 HD 
BRANCH   6   9
HETATM    9  C   UNL     1     -10.435   9.827  70.138  1.00  0.00    -0.338 C  
HETATM   10  C   UNL     1     -10.968  10.973  69.683  1.00  0.00    -0.286 C  
BRANCH  10  11
HETATM   11  C   UNL     1     -12.249  11.585  70.209  1.00  0.00    -0.415 C  
HETATM   12  C   UNL     1     -12.820  10.712  71.347  1.00  0.00    -0.451 C  
HETATM   13  O   UNL     1     -13.521   9.579  70.851  1.00  0.00    -0.586 OA 
HETATM   14  C   UNL     1     -13.752  11.618  72.123  1.00  0.00     0.045 C  
HETATM   15  H   UNL     1     -13.873   9.042  71.551  1.00  0.00     0.000 HD 
HETATM   16  C   UNL     1     -13.042  12.931  72.007  1.00  0.00    -0.379 C  
HETATM   17  O   UNL     1     -13.234  13.851  72.794  1.00  0.00    -0.515 OA 
HETATM   18  C   UNL     1     -12.087  12.997  70.824  1.00  0.00    -0.268 C  
BRANCH  18  19
HETATM   19  C   UNL     1     -12.473  14.095  69.816  1.00  0.00    -0.266 C  
BRANCH  19  20
HETATM   20  C   UNL     1     -11.500  15.282  69.781  1.00  0.00    -0.332 C  
BRANCH  20  21
HETATM   21  C   UNL     1     -11.077  15.637  68.353  1.00  0.00    -0.326 C  
BRANCH  21  22
HETATM   22  C   UNL     1     -10.456  14.426  67.649  1.00  0.00    -0.245 C  
BRANCH  22  23
HETATM   23  C   UNL     1     -11.478  13.708  66.768  1.00  0.00    -0.370 C  
BRANCH  23  24
HETATM   24  C   UNL     1     -11.134  13.834  65.283  1.00  0.00    -0.315 C  
HETATM   25  C   UNL     1     -12.101  13.057  64.419  1.00  0.00    -0.411 C  
HETATM   26  O   UNL     1     -13.047  12.404  64.825  1.00  0.00    -0.806 OA 
HETATM   27  O   UNL     1     -11.802  13.157  63.104  1.00  0.00    -0.459 OA 
ENDBRANCH  23  24
ENDBRANCH  22  23
ENDBRANCH  21  22
ENDBRANCH  20  21
ENDBRANCH  19  20
ENDBRANCH  18  19
ENDBRANCH  10  11
ENDBRANCH   6   9
ENDBRANCH   5   6
ENDBRANCH   4   5
ENDBRANCH   3   4
ENDBRANCH   2   3
TORSDOF 12
ENDMDL
MODEL      236
REMARK 921   NORMALIZED FREE ENERGY PREDICTED BY IDOCK:   -3.89 KCAL/MOL
REMARK 922        TOTAL FREE ENERGY PREDICTED BY IDOCK:   -8.58 KCAL/MOL
REMARK 923 INTER-LIGAND FREE ENERGY PREDICTED BY IDOCK:   -6.31 KCAL/MOL
REMARK 924 INTRA-LIGAND FREE ENERGY PREDICTED BY IDOCK:   -2.27 KCAL/MOL
REMARK 927      BINDING AFFINITY PREDICTED BY RF-SCORE:    0.00 PKD
ROOT
HETATM    1  C   UNL     1      -8.601   7.495  74.179  1.00  0.00    -0.276 C  
HETATM    2  C   UNL     1      -8.796   6.327  73.230  1.00  0.00    -0.126 C  
ENDROOT
BRANCH   2   3
HETATM    3  C   UNL     1     -10.012   5.478  73.607  1.00  0.00    -0.189 C  
BRANCH   3   4
HETATM    4  C   UNL     1     -10.662   4.905  72.348  1.00  0.00    -0.240 C  
BRANCH   4   5
HETATM    5  C   UNL     1      -9.640   4.562  71.263  1.00  0.00    -0.240 C  
BRANCH   5   6
HETATM    6  C   UNL     1      -9.861   5.343  69.956  1.00  0.00    -0.207 C  
HETATM    7  O   UNL     1      -8.645   6.021  69.657  1.00  0.00    -0.123 OA 
HETATM    8  H   UNL     1      -8.782   6.504  68.849  1.00  0.00     0.000 HD 
BRANCH   6   9
HETATM    9  C   UNL     1     -11.015   6.317  70.040  1.00  0.00    -0.422 C  
HETATM   10  C   UNL     1     -10.966   7.604  70.422  1.00  0.00    -0.256 C  
BRANCH  10  11
HETATM   11  C   UNL     1     -12.185   8.477  70.633  1.00  0.00     0.096 C  
HETATM   12  C   UNL     1     -12.786   8.211  72.030  1.00  0.00    -0.318 C  
HETATM   13  O   UNL     1     -13.580   7.032  72.054  1.00  0.00    -0.541 OA 
HETATM   14  C   UNL     1     -13.629   9.428  72.346  1.00  0.00    -0.498 C  
HETATM   15  H   UNL     1     -13.951   6.869  72.913  1.00  0.00     0.000 HD 
HETATM   16  C   UNL     1     -12.829  10.511  71.691  1.00  0.00    -0.475 C  
HETATM   17  O   UNL     1     -12.932  11.689  72.015  1.00  0.00    -0.416 OA 
HETATM   18  C   UNL     1     -11.905   9.999  70.596  1.00  0.00    -0.411 C  
BRANCH  18  19
HETATM   19  C   UNL     1     -12.238  10.598  69.216  1.00  0.00    -0.108 C  
BRANCH  19  20
HETATM   20  C   UNL     1     -11.006  10.928  68.363  1.00  0.00    -0.288 C  
BRANCH  20  21
HETATM   21  C   UNL     1     -10.647   9.788  67.406  1.00  0.00    -0.330 C  
BRANCH  21  22
HETATM   22  C   UNL     1      -9.278   9.192  67.751  1.00  0.00    -0.145 C  
BRANCH  22  23
HETATM   23  C   UNL     1      -8.375  10.224  68.426  1.00  0.00    -0.119 C  
BRANCH  23  24
HETATM   24  C   UNL     1      -7.887   9.740  69.793  1.00  0.00    -0.159 C  
HETATM   25  C   UNL     1      -6.668  10.509  70.253  1.00  0.00    -0.123 C  
HETATM   26  O   UNL     1      -6.122  11.407  69.635  1.00  0.00    -0.082 OA 
HETATM   27  O   UNL     1      -6.225  10.085  71.458  1.00  0.00    -0.311 OA 
ENDBRANCH  23  24
ENDBRANCH  22  23
ENDBRANCH  21  22
ENDBRANCH  20  21
ENDBRANCH  19  20
ENDBRANCH  18  19
ENDBRANCH  10  11
ENDBRANCH   6   9
ENDBRANCH   5   6
ENDBRANCH   4   5
ENDBRANCH   3   4
ENDBRANCH   2   3
TORSDOF 12
ENDMDL
MODEL      237
REMARK 921   NORMALIZED FREE ENERGY PREDICTED BY IDOCK:   -3.88 KCAL/MOL
REMARK 922        TOTAL FREE ENERGY PREDICTED BY IDOCK:   -8.56 KCAL/MOL
REMARK 923 INTER-LIGAND FREE ENERGY PREDICTED BY IDOCK:   -7.17 KCAL/MOL
REMARK 924 INTRA-LIGAND FREE ENERGY PREDICTED BY IDOCK:   -1.39 KCAL/MOL
REMARK 927      BINDING AFFINITY PREDICTED BY RF-SCORE:    0.00 PKD
ROOT
HETATM    1  C   UNL     1     -10.412  18.915  66.292  1.00  0.00    -0.510 C  
HETATM    2  C   UNL     1      -9.486  17.849  66.849  1.00  0.00    -0.279 C  
ENDROOT
BRANCH   2   3
HETATM    3  C   UNL     1      -9.852  17.464  68.284  1.00  0.00    -0.310 C  
BRANCH   3   4
HETATM    4  C   UNL     1      -8.781  16.545  68.869  1.00  0.00    -0.247 C  
BRANCH   4   5
HETATM    5  C   UNL     1      -9.121  15.062  68.698  1.00  0.00    -0.191 C  
BRANCH   5   6
HETATM    6  C   UNL     1     -10.630  14.801  68.552  1.00  0.00    -0.248 C  
HETATM    7  O   UNL     1     -11.052  14.091  69.712  1.00  0.00    -0.423 OA 
HETATM    8  H   UNL     1     -11.984  13.930  69.621  1.00  0.00     0.000 HD 
BRANCH   6   9
HETATM    9  C   UNL     1     -10.976  14.034  67.294  1.00  0.00    -0.303 C  
HETATM   10  C   UNL     1     -11.287  12.731  67.198  1.00  0.00    -0.365 C  
BRANCH  10  11
HETATM   11  C   UNL     1     -11.468  11.992  65.889  1.00  0.00    -0.392 C  
HETATM   12  C   UNL     1     -12.080  12.937  64.832  1.00  0.00    -0.432 C  
HETATM   13  O   UNL     1     -13.486  13.077  64.991  1.00  0.00    -0.484 OA 
HETATM   14  C   UNL     1     -11.753  12.311  63.493  1.00  0.00    -0.584 C  
HETATM   15  H   UNL     1     -13.862  13.658  64.340  1.00  0.00     0.000 HD 
HETATM   16  C   UNL     1     -10.410  11.713  63.774  1.00  0.00    -0.398 C  
HETATM   17  O   UNL     1      -9.614  11.444  62.881  1.00  0.00    -0.367 OA 
HETATM   18  C   UNL     1     -10.156  11.470  65.254  1.00  0.00    -0.314 C  
BRANCH  18  19
HETATM   19  C   UNL     1      -9.931   9.980  65.577  1.00  0.00    -0.367 C  
BRANCH  19  20
HETATM   20  C   UNL     1      -8.457   9.554  65.566  1.00  0.00    -0.150 C  
BRANCH  20  21
HETATM   21  C   UNL     1      -7.731   9.958  66.852  1.00  0.00    -0.098 C  
BRANCH  21  22
HETATM   22  C   UNL     1      -7.013   8.758  67.477  1.00  0.00    -0.075 C  
BRANCH  22  23
HETATM   23  C   UNL     1      -7.969   7.583  67.686  1.00  0.00    -0.117 C  
BRANCH  23  24
HETATM   24  C   UNL     1      -8.875   7.799  68.898  1.00  0.00    -0.135 C  
HETATM   25  C   UNL     1      -8.411   6.994  70.091  1.00  0.00    -0.138 C  
HETATM   26  O   UNL     1      -7.439   6.258  70.115  1.00  0.00    -0.089 OA 
HETATM   27  O   UNL     1      -9.209   7.174  71.168  1.00  0.00    -0.156 OA 
ENDBRANCH  23  24
ENDBRANCH  22  23
ENDBRANCH  21  22
ENDBRANCH  20  21
ENDBRANCH  19  20
ENDBRANCH  18  19
ENDBRANCH  10  11
ENDBRANCH   6   9
ENDBRANCH   5   6
ENDBRANCH   4   5
ENDBRANCH   3   4
ENDBRANCH   2   3
TORSDOF 12
ENDMDL
MODEL      238
REMARK 921   NORMALIZED FREE ENERGY PREDICTED BY IDOCK:   -3.88 KCAL/MOL
REMARK 922        TOTAL FREE ENERGY PREDICTED BY IDOCK:   -8.56 KCAL/MOL
REMARK 923 INTER-LIGAND FREE ENERGY PREDICTED BY IDOCK:   -7.24 KCAL/MOL
REMARK 924 INTRA-LIGAND FREE ENERGY PREDICTED BY IDOCK:   -1.32 KCAL/MOL
REMARK 927      BINDING AFFINITY PREDICTED BY RF-SCORE:    0.00 PKD
ROOT
HETATM    1  C   UNL     1      -9.995  17.211  67.722  1.00  0.00    -0.290 C  
HETATM    2  C   UNL     1     -10.581  15.810  67.705  1.00  0.00    -0.292 C  
ENDROOT
BRANCH   2   3
HETATM    3  C   UNL     1     -11.834  15.702  68.576  1.00  0.00    -0.252 C  
BRANCH   3   4
HETATM    4  C   UNL     1     -11.539  14.863  69.818  1.00  0.00    -0.339 C  
BRANCH   4   5
HETATM    5  C   UNL     1     -11.263  13.396  69.485  1.00  0.00    -0.181 C  
BRANCH   5   6
HETATM    6  C   UNL     1     -12.290  12.432  70.103  1.00  0.00    -0.136 C  
HETATM    7  O   UNL     1     -12.558  12.890  71.425  1.00  0.00    -0.322 OA 
HETATM    8  H   UNL     1     -13.192  12.294  71.807  1.00  0.00     0.000 HD 
BRANCH   6   9
HETATM    9  C   UNL     1     -11.816  10.995  70.117  1.00  0.00    -0.441 C  
HETATM   10  C   UNL     1     -11.780  10.161  71.169  1.00  0.00    -0.453 C  
BRANCH  10  11
HETATM   11  C   UNL     1     -11.146   8.786  71.145  1.00  0.00    -0.340 C  
HETATM   12  C   UNL     1     -12.041   7.781  71.901  1.00  0.00    -0.304 C  
HETATM   13  O   UNL     1     -11.876   7.874  73.310  1.00  0.00    -0.639 OA 
HETATM   14  C   UNL     1     -11.623   6.414  71.403  1.00  0.00    -0.368 C  
HETATM   15  H   UNL     1     -12.427   7.255  73.775  1.00  0.00     0.000 HD 
HETATM   16  C   UNL     1     -11.287   6.716  69.977  1.00  0.00    -0.382 C  
HETATM   17  O   UNL     1     -11.270   5.849  69.110  1.00  0.00    -0.340 OA 
HETATM   18  C   UNL     1     -10.964   8.182  69.731  1.00  0.00    -0.133 C  
BRANCH  18  19
HETATM   19  C   UNL     1      -9.528   8.391  69.213  1.00  0.00    -0.155 C  
BRANCH  19  20
HETATM   20  C   UNL     1      -9.416   8.445  67.684  1.00  0.00    -0.176 C  
BRANCH  20  21
HETATM   21  C   UNL     1     -10.325   9.517  67.078  1.00  0.00    -0.319 C  
BRANCH  21  22
HETATM   22  C   UNL     1      -9.576  10.844  66.916  1.00  0.00    -0.203 C  
BRANCH  22  23
HETATM   23  C   UNL     1      -9.851  11.477  65.552  1.00  0.00    -0.269 C  
BRANCH  23  24
HETATM   24  C   UNL     1      -9.866  10.430  64.436  1.00  0.00    -0.395 C  
HETATM   25  C   UNL     1      -8.474   9.930  64.123  1.00  0.00    -0.175 C  
HETATM   26  O   UNL     1      -7.449  10.294  64.675  1.00  0.00    -0.142 OA 
HETATM   27  O   UNL     1      -8.475   9.009  63.134  1.00  0.00    -0.193 OA 
ENDBRANCH  23  24
ENDBRANCH  22  23
ENDBRANCH  21  22
ENDBRANCH  20  21
ENDBRANCH  19  20
ENDBRANCH  18  19
ENDBRANCH  10  11
ENDBRANCH   6   9
ENDBRANCH   5   6
ENDBRANCH   4   5
ENDBRANCH   3   4
ENDBRANCH   2   3
TORSDOF 12
ENDMDL
MODEL      239
REMARK 921   NORMALIZED FREE ENERGY PREDICTED BY IDOCK:   -3.88 KCAL/MOL
REMARK 922        TOTAL FREE ENERGY PREDICTED BY IDOCK:   -8.55 KCAL/MOL
REMARK 923 INTER-LIGAND FREE ENERGY PREDICTED BY IDOCK:   -6.69 KCAL/MOL
REMARK 924 INTRA-LIGAND FREE ENERGY PREDICTED BY IDOCK:   -1.87 KCAL/MOL
REMARK 927      BINDING AFFINITY PREDICTED BY RF-SCORE:    0.00 PKD
ROOT
HETATM    1  C   UNL     1      -6.876   9.103  71.149  1.00  0.00    -0.088 C  
HETATM    2  C   UNL     1      -7.780   7.914  71.419  1.00  0.00    -0.085 C  
ENDROOT
BRANCH   2   3
HETATM    3  C   UNL     1      -8.663   8.133  72.649  1.00  0.00    -0.277 C  
BRANCH   3   4
HETATM    4  C   UNL     1     -10.130   8.227  72.231  1.00  0.00    -0.370 C  
BRANCH   4   5
HETATM    5  C   UNL     1     -11.026   7.261  73.009  1.00  0.00    -0.388 C  
BRANCH   5   6
HETATM    6  C   UNL     1     -11.325   5.962  72.240  1.00  0.00    -0.298 C  
HETATM    7  O   UNL     1     -11.110   4.879  73.140  1.00  0.00    -0.274 OA 
HETATM    8  H   UNL     1     -11.294   4.077  72.665  1.00  0.00     0.000 HD 
BRANCH   6   9
HETATM    9  C   UNL     1     -10.477   5.806  70.996  1.00  0.00    -0.307 C  
HETATM   10  C   UNL     1     -10.896   5.470  69.765  1.00  0.00    -0.291 C  
BRANCH  10  11
HETATM   11  C   UNL     1      -9.973   5.177  68.602  1.00  0.00    -0.227 C  
HETATM   12  C   UNL     1      -9.743   3.656  68.482  1.00  0.00     0.007 C  
HETATM   13  O   UNL     1      -8.778   3.186  69.414  1.00  0.00    -0.063 OA 
HETATM   14  C   UNL     1      -9.269   3.429  67.062  1.00  0.00    -0.208 C  
HETATM   15  H   UNL     1      -8.637   2.250  69.340  1.00  0.00     0.000 HD 
HETATM   16  C   UNL     1     -10.046   4.476  66.327  1.00  0.00    -0.254 C  
HETATM   17  O   UNL     1     -10.261   4.406  65.123  1.00  0.00    -0.214 OA 
HETATM   18  C   UNL     1     -10.515   5.616  67.219  1.00  0.00    -0.322 C  
BRANCH  18  19
HETATM   19  C   UNL     1      -9.932   6.976  66.793  1.00  0.00    -0.266 C  
BRANCH  19  20
HETATM   20  C   UNL     1     -10.677   8.186  67.374  1.00  0.00    -0.247 C  
BRANCH  20  21
HETATM   21  C   UNL     1      -9.919   8.821  68.543  1.00  0.00    -0.200 C  
BRANCH  21  22
HETATM   22  C   UNL     1     -10.473  10.213  68.865  1.00  0.00    -0.230 C  
BRANCH  22  23
HETATM   23  C   UNL     1     -11.635  10.136  69.854  1.00  0.00    -0.290 C  
BRANCH  23  24
HETATM   24  C   UNL     1     -12.020  11.519  70.383  1.00  0.00    -0.459 C  
HETATM   25  C   UNL     1     -12.976  11.422  71.550  1.00  0.00    -0.399 C  
HETATM   26  O   UNL     1     -13.403  10.387  72.033  1.00  0.00    -0.433 OA 
HETATM   27  O   UNL     1     -13.328  12.640  72.022  1.00  0.00    -0.502 OA 
ENDBRANCH  23  24
ENDBRANCH  22  23
ENDBRANCH  21  22
ENDBRANCH  20  21
ENDBRANCH  19  20
ENDBRANCH  18  19
ENDBRANCH  10  11
ENDBRANCH   6   9
ENDBRANCH   5   6
ENDBRANCH   4   5
ENDBRANCH   3   4
ENDBRANCH   2   3
TORSDOF 12
ENDMDL
MODEL      240
REMARK 921   NORMALIZED FREE ENERGY PREDICTED BY IDOCK:   -3.87 KCAL/MOL
REMARK 922        TOTAL FREE ENERGY PREDICTED BY IDOCK:   -8.54 KCAL/MOL
REMARK 923 INTER-LIGAND FREE ENERGY PREDICTED BY IDOCK:   -6.68 KCAL/MOL
REMARK 924 INTRA-LIGAND FREE ENERGY PREDICTED BY IDOCK:   -1.86 KCAL/MOL
REMARK 927      BINDING AFFINITY PREDICTED BY RF-SCORE:    0.00 PKD
ROOT
HETATM    1  C   UNL     1      -8.002   8.462  73.872  1.00  0.00    -0.199 C  
HETATM    2  C   UNL     1      -8.377   7.542  72.724  1.00  0.00    -0.150 C  
ENDROOT
BRANCH   2   3
HETATM    3  C   UNL     1      -9.823   7.053  72.829  1.00  0.00    -0.199 C  
BRANCH   3   4
HETATM    4  C   UNL     1     -10.684   7.729  71.764  1.00  0.00    -0.265 C  
BRANCH   4   5
HETATM    5  C   UNL     1     -10.244   7.376  70.341  1.00  0.00    -0.201 C  
BRANCH   5   6
HETATM    6  C   UNL     1     -10.064   8.610  69.441  1.00  0.00    -0.204 C  
HETATM    7  O   UNL     1      -8.798   9.181  69.753  1.00  0.00    -0.140 OA 
HETATM    8  H   UNL     1      -8.687   9.944  69.197  1.00  0.00     0.000 HD 
BRANCH   6   9
HETATM    9  C   UNL     1     -11.171   9.629  69.609  1.00  0.00    -0.176 C  
HETATM   10  C   UNL     1     -11.065  10.866  70.121  1.00  0.00    -0.238 C  
BRANCH  10  11
HETATM   11  C   UNL     1     -12.242  11.774  70.405  1.00  0.00    -0.416 C  
HETATM   12  C   UNL     1     -12.792  11.496  71.820  1.00  0.00    -0.335 C  
HETATM   13  O   UNL     1     -13.623  10.344  71.854  1.00  0.00    -0.297 OA 
HETATM   14  C   UNL     1     -13.577  12.733  72.200  1.00  0.00    -0.547 C  
HETATM   15  H   UNL     1     -13.962  10.173  72.725  1.00  0.00     0.000 HD 
HETATM   16  C   UNL     1     -12.770  13.803  71.534  1.00  0.00    -0.346 C  
HETATM   17  O   UNL     1     -12.819  14.976  71.888  1.00  0.00    -0.305 OA 
HETATM   18  C   UNL     1     -11.912  13.286  70.389  1.00  0.00    -0.350 C  
BRANCH  18  19
HETATM   19  C   UNL     1     -12.284  13.927  69.038  1.00  0.00    -0.274 C  
BRANCH  19  20
HETATM   20  C   UNL     1     -11.171  13.857  67.984  1.00  0.00    -0.295 C  
BRANCH  20  21
HETATM   21  C   UNL     1     -11.728  13.858  66.558  1.00  0.00    -0.414 C  
BRANCH  21  22
HETATM   22  C   UNL     1     -10.783  13.126  65.599  1.00  0.00    -0.294 C  
BRANCH  22  23
HETATM   23  C   UNL     1     -10.783  11.620  65.859  1.00  0.00    -0.328 C  
BRANCH  23  24
HETATM   24  C   UNL     1      -9.579  11.192  66.701  1.00  0.00    -0.215 C  
HETATM   25  C   UNL     1      -8.947   9.926  66.166  1.00  0.00    -0.150 C  
HETATM   26  O   UNL     1      -9.325   9.304  65.188  1.00  0.00    -0.240 OA 
HETATM   27  O   UNL     1      -7.885   9.536  66.906  1.00  0.00    -0.100 OA 
ENDBRANCH  23  24
ENDBRANCH  22  23
ENDBRANCH  21  22
ENDBRANCH  20  21
ENDBRANCH  19  20
ENDBRANCH  18  19
ENDBRANCH  10  11
ENDBRANCH   6   9
ENDBRANCH   5   6
ENDBRANCH   4   5
ENDBRANCH   3   4
ENDBRANCH   2   3
TORSDOF 12
ENDMDL
MODEL      241
REMARK 921   NORMALIZED FREE ENERGY PREDICTED BY IDOCK:   -3.87 KCAL/MOL
REMARK 922        TOTAL FREE ENERGY PREDICTED BY IDOCK:   -8.53 KCAL/MOL
REMARK 923 INTER-LIGAND FREE ENERGY PREDICTED BY IDOCK:   -6.30 KCAL/MOL
REMARK 924 INTRA-LIGAND FREE ENERGY PREDICTED BY IDOCK:   -2.23 KCAL/MOL
REMARK 927      BINDING AFFINITY PREDICTED BY RF-SCORE:    0.00 PKD
ROOT
HETATM    1  C   UNL     1      -8.749  16.411  66.213  1.00  0.00    -0.369 C  
HETATM    2  C   UNL     1      -8.259  15.590  67.392  1.00  0.00    -0.199 C  
ENDROOT
BRANCH   2   3
HETATM    3  C   UNL     1      -8.584  14.104  67.231  1.00  0.00    -0.231 C  
BRANCH   3   4
HETATM    4  C   UNL     1      -8.079  13.323  68.443  1.00  0.00    -0.134 C  
BRANCH   4   5
HETATM    5  C   UNL     1      -6.626  12.868  68.287  1.00  0.00    -0.091 C  
BRANCH   5   6
HETATM    6  C   UNL     1      -6.415  11.387  68.646  1.00  0.00    -0.059 C  
HETATM    7  O   UNL     1      -5.927  10.734  67.479  1.00  0.00    -0.044 OA 
HETATM    8  H   UNL     1      -5.796   9.819  67.701  1.00  0.00     0.000 HD 
BRANCH   6   9
HETATM    9  C   UNL     1      -7.674  10.718  69.152  1.00  0.00    -0.138 C  
HETATM   10  C   UNL     1      -7.767   9.780  70.110  1.00  0.00    -0.188 C  
BRANCH  10  11
HETATM   11  C   UNL     1      -9.042   9.040  70.456  1.00  0.00    -0.259 C  
HETATM   12  C   UNL     1      -9.094   8.764  71.973  1.00  0.00    -0.189 C  
HETATM   13  O   UNL     1      -8.299   7.644  72.341  1.00  0.00    -0.105 OA 
HETATM   14  C   UNL     1     -10.553   8.510  72.288  1.00  0.00    -0.408 C  
HETATM   15  H   UNL     1      -8.332   7.474  73.275  1.00  0.00     0.000 HD 
HETATM   16  C   UNL     1     -11.222   9.439  71.325  1.00  0.00    -0.367 C  
HETATM   17  O   UNL     1     -12.369   9.839  71.491  1.00  0.00    -0.352 OA 
HETATM   18  C   UNL     1     -10.345   9.813  70.139  1.00  0.00    -0.335 C  
BRANCH  18  19
HETATM   19  C   UNL     1     -10.950   9.366  68.795  1.00  0.00    -0.080 C  
BRANCH  19  20
HETATM   20  C   UNL     1     -11.060  10.489  67.754  1.00  0.00    -0.382 C  
BRANCH  20  21
HETATM   21  C   UNL     1     -11.600  11.786  68.362  1.00  0.00    -0.380 C  
BRANCH  21  22
HETATM   22  C   UNL     1     -12.061  12.754  67.269  1.00  0.00    -0.228 C  
BRANCH  22  23
HETATM   23  C   UNL     1     -11.838  14.209  67.681  1.00  0.00    -0.427 C  
BRANCH  23  24
HETATM   24  C   UNL     1     -11.653  14.346  69.193  1.00  0.00    -0.344 C  
HETATM   25  C   UNL     1     -11.340  15.772  69.589  1.00  0.00    -0.334 C  
HETATM   26  O   UNL     1     -11.242  16.715  68.823  1.00  0.00    -0.308 OA 
HETATM   27  O   UNL     1     -11.168  15.903  70.924  1.00  0.00    -0.345 OA 
ENDBRANCH  23  24
ENDBRANCH  22  23
ENDBRANCH  21  22
ENDBRANCH  20  21
ENDBRANCH  19  20
ENDBRANCH  18  19
ENDBRANCH  10  11
ENDBRANCH   6   9
ENDBRANCH   5   6
ENDBRANCH   4   5
ENDBRANCH   3   4
ENDBRANCH   2   3
TORSDOF 12
ENDMDL
MODEL      242
REMARK 921   NORMALIZED FREE ENERGY PREDICTED BY IDOCK:   -3.84 KCAL/MOL
REMARK 922        TOTAL FREE ENERGY PREDICTED BY IDOCK:   -8.48 KCAL/MOL
REMARK 923 INTER-LIGAND FREE ENERGY PREDICTED BY IDOCK:   -6.62 KCAL/MOL
REMARK 924 INTRA-LIGAND FREE ENERGY PREDICTED BY IDOCK:   -1.86 KCAL/MOL
REMARK 927      BINDING AFFINITY PREDICTED BY RF-SCORE:    0.00 PKD
ROOT
HETATM    1  C   UNL     1      -7.299  13.351  68.811  1.00  0.00    -0.076 C  
HETATM    2  C   UNL     1      -8.359  13.724  67.792  1.00  0.00    -0.180 C  
ENDROOT
BRANCH   2   3
HETATM    3  C   UNL     1      -8.720  12.549  66.882  1.00  0.00    -0.182 C  
BRANCH   3   4
HETATM    4  C   UNL     1      -9.229  11.376  67.718  1.00  0.00    -0.159 C  
BRANCH   4   5
HETATM    5  C   UNL     1      -8.613  10.040  67.295  1.00  0.00    -0.125 C  
BRANCH   5   6
HETATM    6  C   UNL     1      -9.627   9.086  66.643  1.00  0.00    -0.213 C  
HETATM    7  O   UNL     1     -10.528   9.882  65.880  1.00  0.00    -0.158 OA 
HETATM    8  H   UNL     1     -11.155   9.292  65.477  1.00  0.00     0.000 HD 
BRANCH   6   9
HETATM    9  C   UNL     1     -10.375   8.242  67.652  1.00  0.00    -0.313 C  
HETATM   10  C   UNL     1     -10.003   7.962  68.912  1.00  0.00    -0.194 C  
BRANCH  10  11
HETATM   11  C   UNL     1     -10.722   6.982  69.814  1.00  0.00    -0.265 C  
HETATM   12  C   UNL     1      -9.838   5.740  70.053  1.00  0.00    -0.180 C  
HETATM   13  O   UNL     1      -9.888   4.830  68.962  1.00  0.00    -0.169 OA 
HETATM   14  C   UNL     1     -10.377   5.095  71.312  1.00  0.00    -0.276 C  
HETATM   15  H   UNL     1      -9.343   4.066  69.110  1.00  0.00     0.000 HD 
HETATM   16  C   UNL     1     -10.802   6.298  72.094  1.00  0.00    -0.242 C  
HETATM   17  O   UNL     1     -10.939   6.273  73.312  1.00  0.00    -0.254 OA 
HETATM   18  C   UNL     1     -11.050   7.524  71.227  1.00  0.00    -0.267 C  
BRANCH  18  19
HETATM   19  C   UNL     1     -12.506   8.022  71.313  1.00  0.00    -0.270 C  
BRANCH  19  20
HETATM   20  C   UNL     1     -12.676   9.321  72.112  1.00  0.00    -0.465 C  
BRANCH  20  21
HETATM   21  C   UNL     1     -13.009  10.512  71.209  1.00  0.00    -0.532 C  
BRANCH  21  22
HETATM   22  C   UNL     1     -11.786  10.937  70.390  1.00  0.00    -0.444 C  
BRANCH  22  23
HETATM   23  C   UNL     1     -12.126  12.078  69.432  1.00  0.00    -0.261 C  
BRANCH  23  24
HETATM   24  C   UNL     1     -12.014  13.442  70.115  1.00  0.00    -0.396 C  
HETATM   25  C   UNL     1     -11.858  14.559  69.107  1.00  0.00    -0.319 C  
HETATM   26  O   UNL     1     -11.824  14.421  67.896  1.00  0.00    -0.347 OA 
HETATM   27  O   UNL     1     -11.752  15.769  69.700  1.00  0.00    -0.334 OA 
ENDBRANCH  23  24
ENDBRANCH  22  23
ENDBRANCH  21  22
ENDBRANCH  20  21
ENDBRANCH  19  20
ENDBRANCH  18  19
ENDBRANCH  10  11
ENDBRANCH   6   9
ENDBRANCH   5   6
ENDBRANCH   4   5
ENDBRANCH   3   4
ENDBRANCH   2   3
TORSDOF 12
ENDMDL
MODEL      243
REMARK 921   NORMALIZED FREE ENERGY PREDICTED BY IDOCK:   -3.84 KCAL/MOL
REMARK 922        TOTAL FREE ENERGY PREDICTED BY IDOCK:   -8.48 KCAL/MOL
REMARK 923 INTER-LIGAND FREE ENERGY PREDICTED BY IDOCK:   -7.53 KCAL/MOL
REMARK 924 INTRA-LIGAND FREE ENERGY PREDICTED BY IDOCK:   -0.95 KCAL/MOL
REMARK 927      BINDING AFFINITY PREDICTED BY RF-SCORE:    0.00 PKD
ROOT
HETATM    1  C   UNL     1      -9.696  20.370  67.289  1.00  0.00    -0.602 C  
HETATM    2  C   UNL     1      -9.769  19.841  68.710  1.00  0.00    -0.428 C  
ENDROOT
BRANCH   2   3
HETATM    3  C   UNL     1      -9.442  18.348  68.784  1.00  0.00    -0.317 C  
BRANCH   3   4
HETATM    4  C   UNL     1     -10.646  17.525  68.327  1.00  0.00    -0.354 C  
BRANCH   4   5
HETATM    5  C   UNL     1     -10.582  17.165  66.841  1.00  0.00    -0.209 C  
BRANCH   5   6
HETATM    6  C   UNL     1      -9.463  16.163  66.510  1.00  0.00    -0.264 C  
HETATM    7  O   UNL     1      -8.504  16.849  65.712  1.00  0.00    -0.492 OA 
HETATM    8  H   UNL     1      -7.812  16.230  65.507  1.00  0.00     0.000 HD 
BRANCH   6   9
HETATM    9  C   UNL     1      -9.971  14.927  65.799  1.00  0.00    -0.376 C  
HETATM   10  C   UNL     1     -10.651  13.902  66.338  1.00  0.00    -0.280 C  
BRANCH  10  11
HETATM   11  C   UNL     1     -10.990  12.624  65.601  1.00  0.00    -0.313 C  
HETATM   12  C   UNL     1     -12.055  12.906  64.521  1.00  0.00    -0.413 C  
HETATM   13  O   UNL     1     -13.365  12.982  65.069  1.00  0.00    -0.671 OA 
HETATM   14  C   UNL     1     -11.952  11.757  63.541  1.00  0.00    -0.484 C  
HETATM   15  H   UNL     1     -14.020  13.155  64.403  1.00  0.00     0.000 HD 
HETATM   16  C   UNL     1     -10.482  11.478  63.576  1.00  0.00    -0.428 C  
HETATM   17  O   UNL     1      -9.904  10.892  62.667  1.00  0.00    -0.246 OA 
HETATM   18  C   UNL     1      -9.803  11.980  64.842  1.00  0.00    -0.198 C  
BRANCH  18  19
HETATM   19  C   UNL     1      -9.165  10.842  65.660  1.00  0.00    -0.227 C  
BRANCH  19  20
HETATM   20  C   UNL     1      -8.636  11.279  67.033  1.00  0.00    -0.148 C  
BRANCH  20  21
HETATM   21  C   UNL     1      -9.545  10.813  68.174  1.00  0.00    -0.167 C  
BRANCH  21  22
HETATM   22  C   UNL     1      -9.373   9.314  68.436  1.00  0.00    -0.142 C  
BRANCH  22  23
HETATM   23  C   UNL     1      -8.040   9.017  69.123  1.00  0.00    -0.109 C  
BRANCH  23  24
HETATM   24  C   UNL     1      -7.718  10.052  70.203  1.00  0.00    -0.158 C  
HETATM   25  C   UNL     1      -6.449  10.811  69.886  1.00  0.00    -0.135 C  
HETATM   26  O   UNL     1      -5.751  10.644  68.902  1.00  0.00    -0.041 OA 
HETATM   27  O   UNL     1      -6.152  11.725  70.838  1.00  0.00    -0.332 OA 
ENDBRANCH  23  24
ENDBRANCH  22  23
ENDBRANCH  21  22
ENDBRANCH  20  21
ENDBRANCH  19  20
ENDBRANCH  18  19
ENDBRANCH  10  11
ENDBRANCH   6   9
ENDBRANCH   5   6
ENDBRANCH   4   5
ENDBRANCH   3   4
ENDBRANCH   2   3
TORSDOF 12
ENDMDL
MODEL      244
REMARK 921   NORMALIZED FREE ENERGY PREDICTED BY IDOCK:   -3.83 KCAL/MOL
REMARK 922        TOTAL FREE ENERGY PREDICTED BY IDOCK:   -8.47 KCAL/MOL
REMARK 923 INTER-LIGAND FREE ENERGY PREDICTED BY IDOCK:   -6.47 KCAL/MOL
REMARK 924 INTRA-LIGAND FREE ENERGY PREDICTED BY IDOCK:   -2.00 KCAL/MOL
REMARK 927      BINDING AFFINITY PREDICTED BY RF-SCORE:    0.00 PKD
ROOT
HETATM    1  C   UNL     1      -8.838   5.818  68.314  1.00  0.00    -0.109 C  
HETATM    2  C   UNL     1      -9.854   5.594  69.420  1.00  0.00    -0.232 C  
ENDROOT
BRANCH   2   3
HETATM    3  C   UNL     1     -11.191   6.273  69.116  1.00  0.00    -0.439 C  
BRANCH   3   4
HETATM    4  C   UNL     1     -11.846   6.745  70.414  1.00  0.00    -0.395 C  
BRANCH   4   5
HETATM    5  C   UNL     1     -10.913   7.613  71.262  1.00  0.00    -0.260 C  
BRANCH   5   6
HETATM    6  C   UNL     1     -11.423   9.054  71.438  1.00  0.00    -0.330 C  
HETATM    7  O   UNL     1     -12.828   8.982  71.654  1.00  0.00    -0.325 OA 
HETATM    8  H   UNL     1     -13.143   9.872  71.763  1.00  0.00     0.000 HD 
BRANCH   6   9
HETATM    9  C   UNL     1     -11.104   9.940  70.254  1.00  0.00    -0.368 C  
HETATM   10  C   UNL     1     -10.056   9.835  69.420  1.00  0.00    -0.221 C  
BRANCH  10  11
HETATM   11  C   UNL     1      -9.713  10.852  68.352  1.00  0.00    -0.179 C  
HETATM   12  C   UNL     1      -8.259  10.646  67.877  1.00  0.00    -0.112 C  
HETATM   13  O   UNL     1      -7.318  11.217  68.775  1.00  0.00    -0.094 OA 
HETATM   14  C   UNL     1      -8.178  11.316  66.521  1.00  0.00    -0.165 C  
HETATM   15  H   UNL     1      -6.423  11.091  68.483  1.00  0.00     0.000 HD 
HETATM   16  C   UNL     1      -9.549  11.048  65.984  1.00  0.00    -0.215 C  
HETATM   17  O   UNL     1      -9.799  11.074  64.784  1.00  0.00    -0.235 OA 
HETATM   18  C   UNL     1     -10.576  10.759  67.069  1.00  0.00    -0.312 C  
BRANCH  18  19
HETATM   19  C   UNL     1     -11.721  11.789  67.087  1.00  0.00    -0.267 C  
BRANCH  19  20
HETATM   20  C   UNL     1     -11.713  12.713  68.312  1.00  0.00    -0.389 C  
BRANCH  20  21
HETATM   21  C   UNL     1     -11.881  14.184  67.925  1.00  0.00    -0.405 C  
BRANCH  21  22
HETATM   22  C   UNL     1     -11.191  14.483  66.590  1.00  0.00    -0.346 C  
BRANCH  22  23
HETATM   23  C   UNL     1     -10.089  15.530  66.754  1.00  0.00    -0.268 C  
BRANCH  23  24
HETATM   24  C   UNL     1      -8.811  14.920  67.333  1.00  0.00    -0.204 C  
HETATM   25  C   UNL     1      -8.595  15.340  68.770  1.00  0.00    -0.190 C  
HETATM   26  O   UNL     1      -9.331  16.070  69.413  1.00  0.00    -0.254 OA 
HETATM   27  O   UNL     1      -7.465  14.812  69.290  1.00  0.00    -0.154 OA 
ENDBRANCH  23  24
ENDBRANCH  22  23
ENDBRANCH  21  22
ENDBRANCH  20  21
ENDBRANCH  19  20
ENDBRANCH  18  19
ENDBRANCH  10  11
ENDBRANCH   6   9
ENDBRANCH   5   6
ENDBRANCH   4   5
ENDBRANCH   3   4
ENDBRANCH   2   3
TORSDOF 12
ENDMDL
MODEL      245
REMARK 921   NORMALIZED FREE ENERGY PREDICTED BY IDOCK:   -3.82 KCAL/MOL
REMARK 922        TOTAL FREE ENERGY PREDICTED BY IDOCK:   -8.45 KCAL/MOL
REMARK 923 INTER-LIGAND FREE ENERGY PREDICTED BY IDOCK:   -6.21 KCAL/MOL
REMARK 924 INTRA-LIGAND FREE ENERGY PREDICTED BY IDOCK:   -2.24 KCAL/MOL
REMARK 927      BINDING AFFINITY PREDICTED BY RF-SCORE:    0.00 PKD
ROOT
HETATM    1  C   UNL     1      -8.691   8.302  72.511  1.00  0.00    -0.284 C  
HETATM    2  C   UNL     1     -10.195   8.450  72.370  1.00  0.00    -0.399 C  
ENDROOT
BRANCH   2   3
HETATM    3  C   UNL     1     -10.951   7.292  73.024  1.00  0.00    -0.388 C  
BRANCH   3   4
HETATM    4  C   UNL     1     -11.847   6.603  71.997  1.00  0.00    -0.365 C  
BRANCH   4   5
HETATM    5  C   UNL     1     -11.737   7.230  70.605  1.00  0.00    -0.310 C  
BRANCH   5   6
HETATM    6  C   UNL     1     -11.289   6.230  69.526  1.00  0.00    -0.404 C  
HETATM    7  O   UNL     1     -10.754   5.094  70.197  1.00  0.00    -0.239 OA 
HETATM    8  H   UNL     1     -10.477   4.476  69.530  1.00  0.00     0.000 HD 
BRANCH   6   9
HETATM    9  C   UNL     1     -10.277   6.815  68.564  1.00  0.00    -0.186 C  
HETATM   10  C   UNL     1      -9.249   6.177  67.981  1.00  0.00    -0.116 C  
BRANCH  10  11
HETATM   11  C   UNL     1      -8.182   6.862  67.153  1.00  0.00    -0.118 C  
HETATM   12  C   UNL     1      -8.185   6.294  65.718  1.00  0.00    -0.136 C  
HETATM   13  O   UNL     1      -7.504   5.049  65.634  1.00  0.00    -0.079 OA 
HETATM   14  C   UNL     1      -7.494   7.338  64.868  1.00  0.00    -0.091 C  
HETATM   15  H   UNL     1      -7.505   4.700  64.751  1.00  0.00     0.000 HD 
HETATM   16  C   UNL     1      -7.936   8.599  65.542  1.00  0.00    -0.108 C  
HETATM   17  O   UNL     1      -7.929   9.684  64.972  1.00  0.00    -0.112 OA 
HETATM   18  C   UNL     1      -8.374   8.389  66.984  1.00  0.00    -0.114 C  
BRANCH  18  19
HETATM   19  C   UNL     1      -7.507   9.177  67.984  1.00  0.00    -0.084 C  
BRANCH  19  20
HETATM   20  C   UNL     1      -8.086  10.544  68.372  1.00  0.00    -0.119 C  
BRANCH  20  21
HETATM   21  C   UNL     1      -9.288  10.414  69.313  1.00  0.00    -0.202 C  
BRANCH  21  22
HETATM   22  C   UNL     1     -10.541  11.039  68.692  1.00  0.00    -0.225 C  
BRANCH  22  23
HETATM   23  C   UNL     1     -11.788  10.728  69.520  1.00  0.00    -0.380 C  
BRANCH  23  24
HETATM   24  C   UNL     1     -12.222  11.930  70.360  1.00  0.00    -0.399 C  
HETATM   25  C   UNL     1     -12.929  11.498  71.626  1.00  0.00    -0.394 C  
HETATM   26  O   UNL     1     -13.139  10.345  71.962  1.00  0.00    -0.455 OA 
HETATM   27  O   UNL     1     -13.322  12.554  72.374  1.00  0.00    -0.498 OA 
ENDBRANCH  23  24
ENDBRANCH  22  23
ENDBRANCH  21  22
ENDBRANCH  20  21
ENDBRANCH  19  20
ENDBRANCH  18  19
ENDBRANCH  10  11
ENDBRANCH   6   9
ENDBRANCH   5   6
ENDBRANCH   4   5
ENDBRANCH   3   4
ENDBRANCH   2   3
TORSDOF 12
ENDMDL
MODEL      246
REMARK 921   NORMALIZED FREE ENERGY PREDICTED BY IDOCK:   -3.82 KCAL/MOL
REMARK 922        TOTAL FREE ENERGY PREDICTED BY IDOCK:   -8.44 KCAL/MOL
REMARK 923 INTER-LIGAND FREE ENERGY PREDICTED BY IDOCK:   -6.79 KCAL/MOL
REMARK 924 INTRA-LIGAND FREE ENERGY PREDICTED BY IDOCK:   -1.65 KCAL/MOL
REMARK 927      BINDING AFFINITY PREDICTED BY RF-SCORE:    0.00 PKD
ROOT
HETATM    1  C   UNL     1     -12.399  15.003  64.255  1.00  0.00    -0.247 C  
HETATM    2  C   UNL     1     -11.299  16.031  64.453  1.00  0.00    -0.253 C  
ENDROOT
BRANCH   2   3
HETATM    3  C   UNL     1     -10.336  15.631  65.572  1.00  0.00    -0.421 C  
BRANCH   3   4
HETATM    4  C   UNL     1     -10.941  14.504  66.408  1.00  0.00    -0.324 C  
BRANCH   4   5
HETATM    5  C   UNL     1     -10.090  13.233  66.386  1.00  0.00    -0.290 C  
BRANCH   5   6
HETATM    6  C   UNL     1     -10.896  11.972  66.028  1.00  0.00    -0.289 C  
HETATM    7  O   UNL     1     -12.275  12.302  66.155  1.00  0.00    -0.647 OA 
HETATM    8  H   UNL     1     -12.773  11.523  65.934  1.00  0.00     0.000 HD 
BRANCH   6   9
HETATM    9  C   UNL     1     -10.544  10.783  66.895  1.00  0.00    -0.312 C  
HETATM   10  C   UNL     1      -9.325  10.430  67.334  1.00  0.00    -0.162 C  
BRANCH  10  11
HETATM   11  C   UNL     1      -9.023   9.140  68.066  1.00  0.00    -0.129 C  
HETATM   12  C   UNL     1      -8.689   8.025  67.053  1.00  0.00    -0.128 C  
HETATM   13  O   UNL     1      -9.859   7.465  66.470  1.00  0.00    -0.319 OA 
HETATM   14  C   UNL     1      -7.930   6.978  67.838  1.00  0.00    -0.115 C  
HETATM   15  H   UNL     1      -9.653   6.779  65.846  1.00  0.00     0.000 HD 
HETATM   16  C   UNL     1      -7.175   7.833  68.806  1.00  0.00    -0.081 C  
HETATM   17  O   UNL     1      -6.159   7.443  69.371  1.00  0.00    -0.029 OA 
HETATM   18  C   UNL     1      -7.801   9.204  69.015  1.00  0.00    -0.090 C  
BRANCH  18  19
HETATM   19  C   UNL     1      -8.235   9.438  70.474  1.00  0.00    -0.221 C  
BRANCH  19  20
HETATM   20  C   UNL     1      -9.748   9.323  70.703  1.00  0.00    -0.334 C  
BRANCH  20  21
HETATM   21  C   UNL     1     -10.078   8.675  72.050  1.00  0.00    -0.401 C  
BRANCH  21  22
HETATM   22  C   UNL     1     -11.568   8.333  72.144  1.00  0.00    -0.428 C  
BRANCH  22  23
HETATM   23  C   UNL     1     -11.994   7.381  71.027  1.00  0.00    -0.337 C  
BRANCH  23  24
HETATM   24  C   UNL     1     -11.144   6.109  71.014  1.00  0.00    -0.359 C  
HETATM   25  C   UNL     1     -10.883   5.627  69.605  1.00  0.00    -0.295 C  
HETATM   26  O   UNL     1     -11.283   6.165  68.587  1.00  0.00    -0.356 OA 
HETATM   27  O   UNL     1     -10.137   4.499  69.583  1.00  0.00    -0.221 OA 
ENDBRANCH  23  24
ENDBRANCH  22  23
ENDBRANCH  21  22
ENDBRANCH  20  21
ENDBRANCH  19  20
ENDBRANCH  18  19
ENDBRANCH  10  11
ENDBRANCH   6   9
ENDBRANCH   5   6
ENDBRANCH   4   5
ENDBRANCH   3   4
ENDBRANCH   2   3
TORSDOF 12
ENDMDL
MODEL      247
REMARK 921   NORMALIZED FREE ENERGY PREDICTED BY IDOCK:   -3.81 KCAL/MOL
REMARK 922        TOTAL FREE ENERGY PREDICTED BY IDOCK:   -8.43 KCAL/MOL
REMARK 923 INTER-LIGAND FREE ENERGY PREDICTED BY IDOCK:   -7.61 KCAL/MOL
REMARK 924 INTRA-LIGAND FREE ENERGY PREDICTED BY IDOCK:   -0.82 KCAL/MOL
REMARK 927      BINDING AFFINITY PREDICTED BY RF-SCORE:    0.00 PKD
ROOT
HETATM    1  C   UNL     1      -9.668   5.088  72.018  1.00  0.00    -0.214 C  
HETATM    2  C   UNL     1     -10.508   5.797  73.066  1.00  0.00    -0.248 C  
ENDROOT
BRANCH   2   3
HETATM    3  C   UNL     1      -9.968   7.193  73.384  1.00  0.00    -0.320 C  
BRANCH   3   4
HETATM    4  C   UNL     1     -10.471   8.198  72.348  1.00  0.00    -0.389 C  
BRANCH   4   5
HETATM    5  C   UNL     1     -11.917   8.630  72.601  1.00  0.00    -0.253 C  
BRANCH   5   6
HETATM    6  C   UNL     1     -12.668   9.011  71.313  1.00  0.00    -0.262 C  
HETATM    7  O   UNL     1     -12.988   7.801  70.636  1.00  0.00    -0.439 OA 
HETATM    8  H   UNL     1     -13.452   8.037  69.840  1.00  0.00     0.000 HD 
BRANCH   6   9
HETATM    9  C   UNL     1     -11.870   9.935  70.419  1.00  0.00    -0.310 C  
HETATM   10  C   UNL     1     -12.326  10.999  69.737  1.00  0.00    -0.331 C  
BRANCH  10  11
HETATM   11  C   UNL     1     -11.506  11.784  68.736  1.00  0.00    -0.350 C  
HETATM   12  C   UNL     1     -11.424  13.264  69.169  1.00  0.00    -0.305 C  
HETATM   13  O   UNL     1     -12.600  13.986  68.829  1.00  0.00    -0.416 OA 
HETATM   14  C   UNL     1     -10.221  13.830  68.446  1.00  0.00    -0.248 C  
HETATM   15  H   UNL     1     -12.548  14.897  69.095  1.00  0.00     0.000 HD 
HETATM   16  C   UNL     1      -9.307  12.645  68.432  1.00  0.00    -0.148 C  
HETATM   17  O   UNL     1      -8.094  12.755  68.291  1.00  0.00    -0.146 OA 
HETATM   18  C   UNL     1     -10.036  11.320  68.598  1.00  0.00    -0.210 C  
BRANCH  18  19
HETATM   19  C   UNL     1      -9.852  10.391  67.383  1.00  0.00    -0.210 C  
BRANCH  19  20
HETATM   20  C   UNL     1      -9.547  11.128  66.072  1.00  0.00    -0.248 C  
BRANCH  20  21
HETATM   21  C   UNL     1      -8.606  10.327  65.168  1.00  0.00    -0.181 C  
BRANCH  21  22
HETATM   22  C   UNL     1      -9.197  10.170  63.763  1.00  0.00    -0.321 C  
BRANCH  22  23
HETATM   23  C   UNL     1      -9.639  11.516  63.190  1.00  0.00    -0.381 C  
BRANCH  23  24
HETATM   24  C   UNL     1     -11.157  11.689  63.257  1.00  0.00    -0.333 C  
HETATM   25  C   UNL     1     -11.539  13.053  63.784  1.00  0.00    -0.457 C  
HETATM   26  O   UNL     1     -10.759  13.928  64.119  1.00  0.00    -0.235 OA 
HETATM   27  O   UNL     1     -12.880  13.214  63.853  1.00  0.00    -0.653 OA 
ENDBRANCH  23  24
ENDBRANCH  22  23
ENDBRANCH  21  22
ENDBRANCH  20  21
ENDBRANCH  19  20
ENDBRANCH  18  19
ENDBRANCH  10  11
ENDBRANCH   6   9
ENDBRANCH   5   6
ENDBRANCH   4   5
ENDBRANCH   3   4
ENDBRANCH   2   3
TORSDOF 12
ENDMDL
MODEL      248
REMARK 921   NORMALIZED FREE ENERGY PREDICTED BY IDOCK:   -3.80 KCAL/MOL
REMARK 922        TOTAL FREE ENERGY PREDICTED BY IDOCK:   -8.42 KCAL/MOL
REMARK 923 INTER-LIGAND FREE ENERGY PREDICTED BY IDOCK:   -7.05 KCAL/MOL
REMARK 924 INTRA-LIGAND FREE ENERGY PREDICTED BY IDOCK:   -1.38 KCAL/MOL
REMARK 927      BINDING AFFINITY PREDICTED BY RF-SCORE:    0.00 PKD
ROOT
HETATM    1  C   UNL     1      -7.736   6.492  67.738  1.00  0.00    -0.107 C  
HETATM    2  C   UNL     1      -7.221   7.360  68.872  1.00  0.00    -0.089 C  
ENDROOT
BRANCH   2   3
HETATM    3  C   UNL     1      -7.132   6.589  70.191  1.00  0.00    -0.074 C  
BRANCH   3   4
HETATM    4  C   UNL     1      -8.448   6.710  70.958  1.00  0.00    -0.129 C  
BRANCH   4   5
HETATM    5  C   UNL     1      -8.479   7.927  71.885  1.00  0.00    -0.155 C  
BRANCH   5   6
HETATM    6  C   UNL     1      -9.898   8.476  72.113  1.00  0.00    -0.318 C  
HETATM    7  O   UNL     1     -10.773   7.358  72.216  1.00  0.00    -0.216 OA 
HETATM    8  H   UNL     1     -11.650   7.698  72.357  1.00  0.00     0.000 HD 
BRANCH   6   9
HETATM    9  C   UNL     1     -10.350   9.415  71.016  1.00  0.00    -0.382 C  
HETATM   10  C   UNL     1     -10.126   9.291  69.698  1.00  0.00    -0.208 C  
BRANCH  10  11
HETATM   11  C   UNL     1     -10.471  10.350  68.672  1.00  0.00    -0.216 C  
HETATM   12  C   UNL     1     -11.631  11.226  69.189  1.00  0.00    -0.319 C  
HETATM   13  O   UNL     1     -12.894  10.596  69.019  1.00  0.00    -0.555 OA 
HETATM   14  C   UNL     1     -11.561  12.507  68.386  1.00  0.00    -0.368 C  
HETATM   15  H   UNL     1     -13.608  11.136  69.338  1.00  0.00     0.000 HD 
HETATM   16  C   UNL     1     -10.082  12.652  68.202  1.00  0.00    -0.231 C  
HETATM   17  O   UNL     1      -9.557  13.729  67.945  1.00  0.00    -0.208 OA 
HETATM   18  C   UNL     1      -9.325  11.341  68.355  1.00  0.00    -0.181 C  
BRANCH  18  19
HETATM   19  C   UNL     1      -8.576  10.940  67.069  1.00  0.00    -0.136 C  
BRANCH  19  20
HETATM   20  C   UNL     1      -9.143   9.693  66.378  1.00  0.00    -0.191 C  
BRANCH  20  21
HETATM   21  C   UNL     1     -10.080  10.052  65.222  1.00  0.00    -0.299 C  
BRANCH  21  22
HETATM   22  C   UNL     1      -9.840  11.488  64.747  1.00  0.00    -0.286 C  
BRANCH  22  23
HETATM   23  C   UNL     1     -10.478  11.738  63.380  1.00  0.00    -0.485 C  
BRANCH  23  24
HETATM   24  C   UNL     1     -11.806  12.488  63.505  1.00  0.00    -0.616 C  
HETATM   25  C   UNL     1     -11.621  13.845  64.146  1.00  0.00    -0.298 C  
HETATM   26  O   UNL     1     -10.560  14.311  64.525  1.00  0.00    -0.388 OA 
HETATM   27  O   UNL     1     -12.789  14.514  64.267  1.00  0.00    -0.590 OA 
ENDBRANCH  23  24
ENDBRANCH  22  23
ENDBRANCH  21  22
ENDBRANCH  20  21
ENDBRANCH  19  20
ENDBRANCH  18  19
ENDBRANCH  10  11
ENDBRANCH   6   9
ENDBRANCH   5   6
ENDBRANCH   4   5
ENDBRANCH   3   4
ENDBRANCH   2   3
TORSDOF 12
ENDMDL
MODEL      249
REMARK 921   NORMALIZED FREE ENERGY PREDICTED BY IDOCK:   -3.80 KCAL/MOL
REMARK 922        TOTAL FREE ENERGY PREDICTED BY IDOCK:   -8.42 KCAL/MOL
REMARK 923 INTER-LIGAND FREE ENERGY PREDICTED BY IDOCK:   -6.99 KCAL/MOL
REMARK 924 INTRA-LIGAND FREE ENERGY PREDICTED BY IDOCK:   -1.44 KCAL/MOL
REMARK 927      BINDING AFFINITY PREDICTED BY RF-SCORE:    0.00 PKD
ROOT
HETATM    1  C   UNL     1      -9.004   5.650  72.877  1.00  0.00    -0.123 C  
HETATM    2  C   UNL     1      -9.323   5.957  71.425  1.00  0.00    -0.165 C  
ENDROOT
BRANCH   2   3
HETATM    3  C   UNL     1      -8.194   5.526  70.486  1.00  0.00    -0.112 C  
BRANCH   3   4
HETATM    4  C   UNL     1      -7.633   6.741  69.749  1.00  0.00    -0.104 C  
BRANCH   4   5
HETATM    5  C   UNL     1      -7.065   7.797  70.700  1.00  0.00    -0.049 C  
BRANCH   5   6
HETATM    6  C   UNL     1      -7.490   9.230  70.336  1.00  0.00    -0.121 C  
HETATM    7  O   UNL     1      -6.761  10.115  71.181  1.00  0.00    -0.335 OA 
HETATM    8  H   UNL     1      -7.024  11.000  70.956  1.00  0.00     0.000 HD 
BRANCH   6   9
HETATM    9  C   UNL     1      -8.980   9.456  70.476  1.00  0.00    -0.303 C  
HETATM   10  C   UNL     1      -9.865   9.667  69.488  1.00  0.00    -0.219 C  
BRANCH  10  11
HETATM   11  C   UNL     1     -11.315  10.043  69.710  1.00  0.00    -0.281 C  
HETATM   12  C   UNL     1     -11.912   9.188  70.847  1.00  0.00    -0.242 C  
HETATM   13  O   UNL     1     -12.278   7.888  70.402  1.00  0.00    -0.473 OA 
HETATM   14  C   UNL     1     -13.128   9.949  71.330  1.00  0.00    -0.500 C  
HETATM   15  H   UNL     1     -12.647   7.362  71.102  1.00  0.00     0.000 HD 
HETATM   16  C   UNL     1     -12.672  11.364  71.154  1.00  0.00    -0.377 C  
HETATM   17  O   UNL     1     -13.180  12.296  71.767  1.00  0.00    -0.445 OA 
HETATM   18  C   UNL     1     -11.543  11.512  70.145  1.00  0.00    -0.336 C  
BRANCH  18  19
HETATM   19  C   UNL     1     -11.936  12.397  68.947  1.00  0.00    -0.289 C  
BRANCH  19  20
HETATM   20  C   UNL     1     -10.773  12.715  67.997  1.00  0.00    -0.243 C  
BRANCH  20  21
HETATM   21  C   UNL     1     -10.999  14.020  67.229  1.00  0.00    -0.303 C  
BRANCH  21  22
HETATM   22  C   UNL     1      -9.913  15.048  67.563  1.00  0.00    -0.226 C  
BRANCH  22  23
HETATM   23  C   UNL     1     -10.444  16.138  68.494  1.00  0.00    -0.269 C  
BRANCH  23  24
HETATM   24  C   UNL     1     -11.875  15.846  68.948  1.00  0.00    -0.314 C  
HETATM   25  C   UNL     1     -11.941  15.560  70.431  1.00  0.00    -0.367 C  
HETATM   26  O   UNL     1     -10.991  15.558  71.195  1.00  0.00    -0.343 OA 
HETATM   27  O   UNL     1     -13.202  15.295  70.843  1.00  0.00    -0.448 OA 
ENDBRANCH  23  24
ENDBRANCH  22  23
ENDBRANCH  21  22
ENDBRANCH  20  21
ENDBRANCH  19  20
ENDBRANCH  18  19
ENDBRANCH  10  11
ENDBRANCH   6   9
ENDBRANCH   5   6
ENDBRANCH   4   5
ENDBRANCH   3   4
ENDBRANCH   2   3
TORSDOF 12
ENDMDL
MODEL      250
REMARK 921   NORMALIZED FREE ENERGY PREDICTED BY IDOCK:   -3.80 KCAL/MOL
REMARK 922        TOTAL FREE ENERGY PREDICTED BY IDOCK:   -8.42 KCAL/MOL
REMARK 923 INTER-LIGAND FREE ENERGY PREDICTED BY IDOCK:   -7.00 KCAL/MOL
REMARK 924 INTRA-LIGAND FREE ENERGY PREDICTED BY IDOCK:   -1.42 KCAL/MOL
REMARK 927      BINDING AFFINITY PREDICTED BY RF-SCORE:    0.00 PKD
ROOT
HETATM    1  C   UNL     1     -11.697  14.660  68.623  1.00  0.00    -0.362 C  
HETATM    2  C   UNL     1     -11.795  14.428  67.126  1.00  0.00    -0.437 C  
ENDROOT
BRANCH   2   3
HETATM    3  C   UNL     1     -10.847  15.336  66.341  1.00  0.00    -0.317 C  
BRANCH   3   4
HETATM    4  C   UNL     1     -10.743  14.860  64.893  1.00  0.00    -0.426 C  
BRANCH   4   5
HETATM    5  C   UNL     1     -12.024  14.180  64.404  1.00  0.00    -0.478 C  
BRANCH   5   6
HETATM    6  C   UNL     1     -11.774  12.794  63.786  1.00  0.00    -0.493 C  
HETATM    7  O   UNL     1     -13.042  12.167  63.626  1.00  0.00    -0.787 OA 
HETATM    8  H   UNL     1     -12.888  11.311  63.244  1.00  0.00     0.000 HD 
BRANCH   6   9
HETATM    9  C   UNL     1     -10.849  11.935  64.619  1.00  0.00    -0.363 C  
HETATM   10  C   UNL     1     -11.071  11.469  65.859  1.00  0.00    -0.274 C  
BRANCH  10  11
HETATM   11  C   UNL     1     -10.036  10.747  66.696  1.00  0.00    -0.265 C  
HETATM   12  C   UNL     1      -9.085  11.768  67.354  1.00  0.00    -0.175 C  
HETATM   13  O   UNL     1      -8.088  12.230  66.452  1.00  0.00    -0.392 OA 
HETATM   14  C   UNL     1      -8.453  11.040  68.521  1.00  0.00    -0.153 C  
HETATM   15  H   UNL     1      -7.503  12.858  66.857  1.00  0.00     0.000 HD 
HETATM   16  C   UNL     1      -9.583  10.162  68.959  1.00  0.00    -0.196 C  
HETATM   17  O   UNL     1      -9.644   9.688  70.088  1.00  0.00    -0.228 OA 
HETATM   18  C   UNL     1     -10.615   9.918  67.869  1.00  0.00    -0.303 C  
BRANCH  18  19
HETATM   19  C   UNL     1     -10.739   8.429  67.496  1.00  0.00    -0.207 C  
BRANCH  19  20
HETATM   20  C   UNL     1      -9.408   7.666  67.514  1.00  0.00    -0.159 C  
BRANCH  20  21
HETATM   21  C   UNL     1      -9.319   6.637  66.385  1.00  0.00    -0.175 C  
BRANCH  21  22
HETATM   22  C   UNL     1     -10.178   5.407  66.694  1.00  0.00    -0.285 C  
BRANCH  22  23
HETATM   23  C   UNL     1     -10.025   4.972  68.152  1.00  0.00    -0.190 C  
BRANCH  23  24
HETATM   24  C   UNL     1      -8.737   4.176  68.372  1.00  0.00    -0.122 C  
HETATM   25  C   UNL     1      -7.968   4.683  69.571  1.00  0.00    -0.062 C  
HETATM   26  O   UNL     1      -8.306   5.606  70.292  1.00  0.00    -0.108 OA 
HETATM   27  O   UNL     1      -6.824   3.990  69.771  1.00  0.00    -0.040 OA 
ENDBRANCH  23  24
ENDBRANCH  22  23
ENDBRANCH  21  22
ENDBRANCH  20  21
ENDBRANCH  19  20
ENDBRANCH  18  19
ENDBRANCH  10  11
ENDBRANCH   6   9
ENDBRANCH   5   6
ENDBRANCH   4   5
ENDBRANCH   3   4
ENDBRANCH   2   3
TORSDOF 12
ENDMDL
MODEL      251
REMARK 921   NORMALIZED FREE ENERGY PREDICTED BY IDOCK:   -3.80 KCAL/MOL
REMARK 922        TOTAL FREE ENERGY PREDICTED BY IDOCK:   -8.42 KCAL/MOL
REMARK 923 INTER-LIGAND FREE ENERGY PREDICTED BY IDOCK:   -6.59 KCAL/MOL
REMARK 924 INTRA-LIGAND FREE ENERGY PREDICTED BY IDOCK:   -1.83 KCAL/MOL
REMARK 927      BINDING AFFINITY PREDICTED BY RF-SCORE:    0.00 PKD
ROOT
HETATM    1  C   UNL     1      -5.285  14.600  69.459  1.00  0.00    -0.087 C  
HETATM    2  C   UNL     1      -6.454  13.638  69.578  1.00  0.00    -0.099 C  
ENDROOT
BRANCH   2   3
HETATM    3  C   UNL     1      -6.090  12.231  69.100  1.00  0.00    -0.083 C  
BRANCH   3   4
HETATM    4  C   UNL     1      -6.345  12.105  67.599  1.00  0.00    -0.109 C  
BRANCH   4   5
HETATM    5  C   UNL     1      -7.284  10.946  67.256  1.00  0.00    -0.098 C  
BRANCH   5   6
HETATM    6  C   UNL     1      -7.736  10.150  68.492  1.00  0.00    -0.090 C  
HETATM    7  O   UNL     1      -7.846   8.785  68.099  1.00  0.00    -0.100 OA 
HETATM    8  H   UNL     1      -8.126   8.293  68.863  1.00  0.00     0.000 HD 
BRANCH   6   9
HETATM    9  C   UNL     1      -9.042  10.651  69.071  1.00  0.00    -0.174 C  
HETATM   10  C   UNL     1     -10.261  10.113  68.909  1.00  0.00    -0.213 C  
BRANCH  10  11
HETATM   11  C   UNL     1     -11.546  10.756  69.386  1.00  0.00    -0.380 C  
HETATM   12  C   UNL     1     -11.898  10.243  70.798  1.00  0.00    -0.365 C  
HETATM   13  O   UNL     1     -12.509   8.960  70.764  1.00  0.00    -0.493 OA 
HETATM   14  C   UNL     1     -12.847  11.271  71.377  1.00  0.00    -0.515 C  
HETATM   15  H   UNL     1     -12.726   8.645  71.634  1.00  0.00     0.000 HD 
HETATM   16  C   UNL     1     -12.308  12.532  70.778  1.00  0.00    -0.286 C  
HETATM   17  O   UNL     1     -12.526  13.635  71.266  1.00  0.00    -0.352 OA 
HETATM   18  C   UNL     1     -11.488  12.297  69.517  1.00  0.00    -0.318 C  
BRANCH  18  19
HETATM   19  C   UNL     1     -12.096  12.989  68.282  1.00  0.00    -0.197 C  
BRANCH  19  20
HETATM   20  C   UNL     1     -11.153  13.052  67.073  1.00  0.00    -0.311 C  
BRANCH  20  21
HETATM   21  C   UNL     1      -9.782  13.626  67.443  1.00  0.00    -0.228 C  
BRANCH  21  22
HETATM   22  C   UNL     1      -9.925  14.983  68.139  1.00  0.00    -0.220 C  
BRANCH  22  23
HETATM   23  C   UNL     1      -8.931  16.003  67.585  1.00  0.00    -0.193 C  
BRANCH  23  24
HETATM   24  C   UNL     1      -9.410  16.597  66.259  1.00  0.00    -0.323 C  
HETATM   25  C   UNL     1     -10.291  17.806  66.477  1.00  0.00    -0.345 C  
HETATM   26  O   UNL     1     -10.597  18.274  67.561  1.00  0.00    -0.405 OA 
HETATM   27  O   UNL     1     -10.725  18.336  65.311  1.00  0.00    -0.605 OA 
ENDBRANCH  23  24
ENDBRANCH  22  23
ENDBRANCH  21  22
ENDBRANCH  20  21
ENDBRANCH  19  20
ENDBRANCH  18  19
ENDBRANCH  10  11
ENDBRANCH   6   9
ENDBRANCH   5   6
ENDBRANCH   4   5
ENDBRANCH   3   4
ENDBRANCH   2   3
TORSDOF 12
ENDMDL
MODEL      252
REMARK 921   NORMALIZED FREE ENERGY PREDICTED BY IDOCK:   -3.79 KCAL/MOL
REMARK 922        TOTAL FREE ENERGY PREDICTED BY IDOCK:   -8.40 KCAL/MOL
REMARK 923 INTER-LIGAND FREE ENERGY PREDICTED BY IDOCK:   -7.96 KCAL/MOL
REMARK 924 INTRA-LIGAND FREE ENERGY PREDICTED BY IDOCK:   -0.44 KCAL/MOL
REMARK 927      BINDING AFFINITY PREDICTED BY RF-SCORE:    0.00 PKD
ROOT
HETATM    1  C   UNL     1     -14.234   8.466  72.001  1.00  0.00    -0.528 C  
HETATM    2  C   UNL     1     -12.938   9.253  71.929  1.00  0.00    -0.489 C  
ENDROOT
BRANCH   2   3
HETATM    3  C   UNL     1     -13.187  10.760  71.844  1.00  0.00    -0.524 C  
BRANCH   3   4
HETATM    4  C   UNL     1     -12.301  11.378  70.763  1.00  0.00    -0.483 C  
BRANCH   4   5
HETATM    5  C   UNL     1     -12.371  12.906  70.747  1.00  0.00    -0.385 C  
BRANCH   5   6
HETATM    6  C   UNL     1     -11.743  13.527  69.488  1.00  0.00    -0.322 C  
HETATM    7  O   UNL     1     -12.487  14.700  69.177  1.00  0.00    -0.567 OA 
HETATM    8  H   UNL     1     -12.099  15.083  68.399  1.00  0.00     0.000 HD 
BRANCH   6   9
HETATM    9  C   UNL     1     -11.719  12.576  68.311  1.00  0.00    -0.390 C  
HETATM   10  C   UNL     1     -11.164  12.787  67.106  1.00  0.00    -0.336 C  
BRANCH  10  11
HETATM   11  C   UNL     1     -11.315  11.855  65.923  1.00  0.00    -0.365 C  
HETATM   12  C   UNL     1     -11.860  12.633  64.707  1.00  0.00    -0.380 C  
HETATM   13  O   UNL     1     -13.267  12.826  64.782  1.00  0.00    -0.812 OA 
HETATM   14  C   UNL     1     -11.500  11.796  63.497  1.00  0.00    -0.489 C  
HETATM   15  H   UNL     1     -13.602  13.304  64.033  1.00  0.00     0.000 HD 
HETATM   16  C   UNL     1     -10.186  11.221  63.924  1.00  0.00    -0.365 C  
HETATM   17  O   UNL     1      -9.364  10.798  63.120  1.00  0.00    -0.251 OA 
HETATM   18  C   UNL     1      -9.995  11.211  65.434  1.00  0.00    -0.309 C  
BRANCH  18  19
HETATM   19  C   UNL     1      -9.823   9.787  65.996  1.00  0.00    -0.342 C  
BRANCH  19  20
HETATM   20  C   UNL     1      -9.094   9.731  67.346  1.00  0.00    -0.148 C  
BRANCH  20  21
HETATM   21  C   UNL     1      -7.729   9.046  67.234  1.00  0.00    -0.096 C  
BRANCH  21  22
HETATM   22  C   UNL     1      -7.865   7.652  66.613  1.00  0.00    -0.106 C  
BRANCH  22  23
HETATM   23  C   UNL     1      -7.578   7.681  65.111  1.00  0.00    -0.095 C  
BRANCH  23  24
HETATM   24  C   UNL     1      -6.387   6.793  64.746  1.00  0.00    -0.039 C  
HETATM   25  C   UNL     1      -6.632   5.350  65.127  1.00  0.00    -0.040 C  
HETATM   26  O   UNL     1      -7.641   4.918  65.657  1.00  0.00    -0.084 OA 
HETATM   27  O   UNL     1      -5.583   4.556  64.814  1.00  0.00    -0.013 OA 
ENDBRANCH  23  24
ENDBRANCH  22  23
ENDBRANCH  21  22
ENDBRANCH  20  21
ENDBRANCH  19  20
ENDBRANCH  18  19
ENDBRANCH  10  11
ENDBRANCH   6   9
ENDBRANCH   5   6
ENDBRANCH   4   5
ENDBRANCH   3   4
ENDBRANCH   2   3
TORSDOF 12
ENDMDL
MODEL      253
REMARK 921   NORMALIZED FREE ENERGY PREDICTED BY IDOCK:   -3.78 KCAL/MOL
REMARK 922        TOTAL FREE ENERGY PREDICTED BY IDOCK:   -8.39 KCAL/MOL
REMARK 923 INTER-LIGAND FREE ENERGY PREDICTED BY IDOCK:   -6.57 KCAL/MOL
REMARK 924 INTRA-LIGAND FREE ENERGY PREDICTED BY IDOCK:   -1.81 KCAL/MOL
REMARK 927      BINDING AFFINITY PREDICTED BY RF-SCORE:    0.00 PKD
ROOT
HETATM    1  C   UNL     1      -9.618  19.852  68.000  1.00  0.00    -0.482 C  
HETATM    2  C   UNL     1     -10.723  19.557  67.002  1.00  0.00    -0.592 C  
ENDROOT
BRANCH   2   3
HETATM    3  C   UNL     1     -10.391  18.352  66.119  1.00  0.00    -0.431 C  
BRANCH   3   4
HETATM    4  C   UNL     1      -8.963  17.882  66.388  1.00  0.00    -0.247 C  
BRANCH   4   5
HETATM    5  C   UNL     1      -8.876  16.374  66.634  1.00  0.00    -0.283 C  
BRANCH   5   6
HETATM    6  C   UNL     1      -9.855  15.880  67.711  1.00  0.00    -0.222 C  
HETATM    7  O   UNL     1      -9.541  16.569  68.917  1.00  0.00    -0.243 OA 
HETATM    8  H   UNL     1     -10.147  16.263  69.583  1.00  0.00     0.000 HD 
BRANCH   6   9
HETATM    9  C   UNL     1      -9.799  14.382  67.916  1.00  0.00    -0.224 C  
HETATM   10  C   UNL     1      -9.412  13.454  67.025  1.00  0.00    -0.247 C  
BRANCH  10  11
HETATM   11  C   UNL     1      -9.530  11.961  67.244  1.00  0.00    -0.176 C  
HETATM   12  C   UNL     1     -10.759  11.414  66.487  1.00  0.00    -0.277 C  
HETATM   13  O   UNL     1     -11.970  11.652  67.191  1.00  0.00    -0.614 OA 
HETATM   14  C   UNL     1     -10.512   9.928  66.335  1.00  0.00    -0.197 C  
HETATM   15  H   UNL     1     -12.726  11.314  66.725  1.00  0.00     0.000 HD 
HETATM   16  C   UNL     1      -9.025   9.898  66.167  1.00  0.00    -0.150 C  
HETATM   17  O   UNL     1      -8.444   8.956  65.640  1.00  0.00    -0.139 OA 
HETATM   18  C   UNL     1      -8.331  11.133  66.722  1.00  0.00    -0.152 C  
BRANCH  18  19
HETATM   19  C   UNL     1      -7.346  10.795  67.858  1.00  0.00    -0.088 C  
BRANCH  19  20
HETATM   20  C   UNL     1      -7.963  10.860  69.261  1.00  0.00    -0.076 C  
BRANCH  20  21
HETATM   21  C   UNL     1      -7.692   9.587  70.068  1.00  0.00    -0.146 C  
BRANCH  21  22
HETATM   22  C   UNL     1      -8.360   8.372  69.417  1.00  0.00    -0.120 C  
BRANCH  22  23
HETATM   23  C   UNL     1      -9.880   8.423  69.570  1.00  0.00    -0.181 C  
BRANCH  23  24
HETATM   24  C   UNL     1     -10.351   7.644  70.799  1.00  0.00    -0.203 C  
HETATM   25  C   UNL     1     -11.111   8.528  71.761  1.00  0.00    -0.307 C  
HETATM   26  O   UNL     1     -11.338   9.716  71.604  1.00  0.00    -0.374 OA 
HETATM   27  O   UNL     1     -11.528   7.851  72.855  1.00  0.00    -0.403 OA 
ENDBRANCH  23  24
ENDBRANCH  22  23
ENDBRANCH  21  22
ENDBRANCH  20  21
ENDBRANCH  19  20
ENDBRANCH  18  19
ENDBRANCH  10  11
ENDBRANCH   6   9
ENDBRANCH   5   6
ENDBRANCH   4   5
ENDBRANCH   3   4
ENDBRANCH   2   3
TORSDOF 12
ENDMDL
MODEL      254
REMARK 921   NORMALIZED FREE ENERGY PREDICTED BY IDOCK:   -3.76 KCAL/MOL
REMARK 922        TOTAL FREE ENERGY PREDICTED BY IDOCK:   -8.34 KCAL/MOL
REMARK 923 INTER-LIGAND FREE ENERGY PREDICTED BY IDOCK:   -6.61 KCAL/MOL
REMARK 924 INTRA-LIGAND FREE ENERGY PREDICTED BY IDOCK:   -1.73 KCAL/MOL
REMARK 927      BINDING AFFINITY PREDICTED BY RF-SCORE:    0.00 PKD
ROOT
HETATM    1  C   UNL     1     -10.688  12.311  63.523  1.00  0.00    -0.497 C  
HETATM    2  C   UNL     1     -11.627  11.717  64.558  1.00  0.00    -0.299 C  
ENDROOT
BRANCH   2   3
HETATM    3  C   UNL     1     -11.657  12.543  65.845  1.00  0.00    -0.454 C  
BRANCH   3   4
HETATM    4  C   UNL     1     -10.237  12.928  66.255  1.00  0.00    -0.285 C  
BRANCH   4   5
HETATM    5  C   UNL     1      -9.446  11.746  66.819  1.00  0.00    -0.202 C  
BRANCH   5   6
HETATM    6  C   UNL     1      -9.995  11.239  68.164  1.00  0.00    -0.181 C  
HETATM    7  O   UNL     1      -8.960  11.395  69.130  1.00  0.00    -0.379 OA 
HETATM    8  H   UNL     1      -9.300  11.082  69.960  1.00  0.00     0.000 HD 
BRANCH   6   9
HETATM    9  C   UNL     1     -10.464   9.801  68.104  1.00  0.00    -0.258 C  
HETATM   10  C   UNL     1      -9.708   8.695  68.203  1.00  0.00    -0.178 C  
BRANCH  10  11
HETATM   11  C   UNL     1     -10.222   7.289  67.976  1.00  0.00    -0.225 C  
HETATM   12  C   UNL     1      -9.305   6.548  66.980  1.00  0.00    -0.139 C  
HETATM   13  O   UNL     1      -9.581   6.906  65.632  1.00  0.00    -0.313 OA 
HETATM   14  C   UNL     1      -9.569   5.075  67.206  1.00  0.00    -0.164 C  
HETATM   15  H   UNL     1      -9.017   6.449  65.019  1.00  0.00     0.000 HD 
HETATM   16  C   UNL     1      -9.823   5.050  68.681  1.00  0.00    -0.161 C  
HETATM   17  O   UNL     1      -9.703   4.029  69.349  1.00  0.00    -0.193 OA 
HETATM   18  C   UNL     1     -10.248   6.399  69.242  1.00  0.00    -0.229 C  
BRANCH  18  19
HETATM   19  C   UNL     1     -11.654   6.359  69.871  1.00  0.00    -0.422 C  
BRANCH  19  20
HETATM   20  C   UNL     1     -11.922   7.487  70.877  1.00  0.00    -0.278 C  
BRANCH  20  21
HETATM   21  C   UNL     1     -11.929   6.979  72.321  1.00  0.00    -0.250 C  
BRANCH  21  22
HETATM   22  C   UNL     1     -10.583   7.247  73.003  1.00  0.00    -0.371 C  
BRANCH  22  23
HETATM   23  C   UNL     1      -9.872   8.448  72.381  1.00  0.00    -0.378 C  
BRANCH  23  24
HETATM   24  C   UNL     1      -8.411   8.134  72.055  1.00  0.00    -0.199 C  
HETATM   25  C   UNL     1      -7.517   8.329  73.259  1.00  0.00    -0.109 C  
HETATM   26  O   UNL     1      -7.885   8.690  74.364  1.00  0.00    -0.380 OA 
HETATM   27  O   UNL     1      -6.222   8.060  72.980  1.00  0.00    -0.063 OA 
ENDBRANCH  23  24
ENDBRANCH  22  23
ENDBRANCH  21  22
ENDBRANCH  20  21
ENDBRANCH  19  20
ENDBRANCH  18  19
ENDBRANCH  10  11
ENDBRANCH   6   9
ENDBRANCH   5   6
ENDBRANCH   4   5
ENDBRANCH   3   4
ENDBRANCH   2   3
TORSDOF 12
ENDMDL
MODEL      255
REMARK 921   NORMALIZED FREE ENERGY PREDICTED BY IDOCK:   -3.73 KCAL/MOL
REMARK 922        TOTAL FREE ENERGY PREDICTED BY IDOCK:   -8.30 KCAL/MOL
REMARK 923 INTER-LIGAND FREE ENERGY PREDICTED BY IDOCK:   -6.34 KCAL/MOL
REMARK 924 INTRA-LIGAND FREE ENERGY PREDICTED BY IDOCK:   -1.96 KCAL/MOL
REMARK 927      BINDING AFFINITY PREDICTED BY RF-SCORE:    0.00 PKD
ROOT
HETATM    1  C   UNL     1     -12.090  14.429  66.540  1.00  0.00    -0.395 C  
HETATM    2  C   UNL     1     -12.736  13.731  65.357  1.00  0.00    -0.513 C  
ENDROOT
BRANCH   2   3
HETATM    3  C   UNL     1     -12.170  12.326  65.140  1.00  0.00    -0.345 C  
BRANCH   3   4
HETATM    4  C   UNL     1     -10.690  12.409  64.769  1.00  0.00    -0.332 C  
BRANCH   4   5
HETATM    5  C   UNL     1      -9.787  11.718  65.793  1.00  0.00    -0.267 C  
BRANCH   5   6
HETATM    6  C   UNL     1      -9.292  10.338  65.328  1.00  0.00    -0.215 C  
HETATM    7  O   UNL     1     -10.109   9.942  64.232  1.00  0.00    -0.443 OA 
HETATM    8  H   UNL     1      -9.803   9.089  63.945  1.00  0.00     0.000 HD 
BRANCH   6   9
HETATM    9  C   UNL     1      -9.324   9.299  66.428  1.00  0.00    -0.247 C  
HETATM   10  C   UNL     1      -8.971   8.007  66.335  1.00  0.00    -0.204 C  
BRANCH  10  11
HETATM   11  C   UNL     1      -9.178   6.986  67.433  1.00  0.00    -0.134 C  
HETATM   12  C   UNL     1     -10.310   6.012  67.041  1.00  0.00    -0.240 C  
HETATM   13  O   UNL     1     -11.597   6.571  67.265  1.00  0.00    -0.737 OA 
HETATM   14  C   UNL     1     -10.103   4.784  67.901  1.00  0.00    -0.119 C  
HETATM   15  H   UNL     1     -12.293   5.971  67.024  1.00  0.00     0.000 HD 
HETATM   16  C   UNL     1      -8.609   4.742  67.990  1.00  0.00    -0.102 C  
HETATM   17  O   UNL     1      -7.999   3.715  68.264  1.00  0.00    -0.070 OA 
HETATM   18  C   UNL     1      -7.951   6.087  67.721  1.00  0.00    -0.105 C  
BRANCH  18  19
HETATM   19  C   UNL     1      -7.149   6.603  68.931  1.00  0.00    -0.085 C  
BRANCH  19  20
HETATM   20  C   UNL     1      -7.968   6.713  70.224  1.00  0.00    -0.115 C  
BRANCH  20  21
HETATM   21  C   UNL     1      -7.672   8.010  70.982  1.00  0.00    -0.085 C  
BRANCH  21  22
HETATM   22  C   UNL     1      -7.953   9.235  70.105  1.00  0.00    -0.143 C  
BRANCH  22  23
HETATM   23  C   UNL     1      -9.421   9.654  70.186  1.00  0.00    -0.298 C  
BRANCH  23  24
HETATM   24  C   UNL     1     -10.075   9.174  71.482  1.00  0.00    -0.381 C  
HETATM   25  C   UNL     1     -11.165   8.160  71.213  1.00  0.00    -0.260 C  
HETATM   26  O   UNL     1     -11.501   7.756  70.113  1.00  0.00    -0.185 OA 
HETATM   27  O   UNL     1     -11.755   7.733  72.353  1.00  0.00    -0.320 OA 
ENDBRANCH  23  24
ENDBRANCH  22  23
ENDBRANCH  21  22
ENDBRANCH  20  21
ENDBRANCH  19  20
ENDBRANCH  18  19
ENDBRANCH  10  11
ENDBRANCH   6   9
ENDBRANCH   5   6
ENDBRANCH   4   5
ENDBRANCH   3   4
ENDBRANCH   2   3
TORSDOF 12
ENDMDL
MODEL      256
REMARK 921   NORMALIZED FREE ENERGY PREDICTED BY IDOCK:   -3.72 KCAL/MOL
REMARK 922        TOTAL FREE ENERGY PREDICTED BY IDOCK:   -8.28 KCAL/MOL
REMARK 923 INTER-LIGAND FREE ENERGY PREDICTED BY IDOCK:   -6.87 KCAL/MOL
REMARK 924 INTRA-LIGAND FREE ENERGY PREDICTED BY IDOCK:   -1.41 KCAL/MOL
REMARK 927      BINDING AFFINITY PREDICTED BY RF-SCORE:    0.00 PKD
ROOT
HETATM    1  C   UNL     1      -8.120   7.288  73.587  1.00  0.00    -0.145 C  
HETATM    2  C   UNL     1      -7.699   6.894  72.182  1.00  0.00    -0.093 C  
ENDROOT
BRANCH   2   3
HETATM    3  C   UNL     1      -8.696   5.932  71.533  1.00  0.00    -0.132 C  
BRANCH   3   4
HETATM    4  C   UNL     1      -9.329   6.583  70.304  1.00  0.00    -0.163 C  
BRANCH   4   5
HETATM    5  C   UNL     1      -8.293   6.977  69.249  1.00  0.00    -0.129 C  
BRANCH   5   6
HETATM    6  C   UNL     1      -8.418   8.442  68.797  1.00  0.00    -0.124 C  
HETATM    7  O   UNL     1      -7.466   9.197  69.540  1.00  0.00    -0.072 OA 
HETATM    8  H   UNL     1      -7.544  10.102  69.261  1.00  0.00     0.000 HD 
BRANCH   6   9
HETATM    9  C   UNL     1      -9.812   8.999  68.985  1.00  0.00    -0.178 C  
HETATM   10  C   UNL     1     -10.204   9.927  69.874  1.00  0.00    -0.298 C  
BRANCH  10  11
HETATM   11  C   UNL     1     -11.645  10.324  70.113  1.00  0.00    -0.376 C  
HETATM   12  C   UNL     1     -12.211   9.548  71.321  1.00  0.00    -0.348 C  
HETATM   13  O   UNL     1     -12.593   8.223  70.974  1.00  0.00    -0.485 OA 
HETATM   14  C   UNL     1     -13.410  10.345  71.788  1.00  0.00    -0.456 C  
HETATM   15  H   UNL     1     -12.942   7.746  71.718  1.00  0.00     0.000 HD 
HETATM   16  C   UNL     1     -12.956  11.743  71.505  1.00  0.00    -0.341 C  
HETATM   17  O   UNL     1     -13.443  12.716  72.069  1.00  0.00    -0.498 OA 
HETATM   18  C   UNL     1     -11.857  11.819  70.456  1.00  0.00    -0.288 C  
BRANCH  18  19
HETATM   19  C   UNL     1     -12.282  12.625  69.214  1.00  0.00    -0.089 C  
BRANCH  19  20
HETATM   20  C   UNL     1     -11.965  14.124  69.302  1.00  0.00    -0.382 C  
BRANCH  20  21
HETATM   21  C   UNL     1     -11.382  14.666  67.994  1.00  0.00    -0.329 C  
BRANCH  21  22
HETATM   22  C   UNL     1     -11.507  13.635  66.869  1.00  0.00    -0.369 C  
BRANCH  22  23
HETATM   23  C   UNL     1     -10.160  13.385  66.190  1.00  0.00    -0.304 C  
BRANCH  23  24
HETATM   24  C   UNL     1     -10.330  13.015  64.715  1.00  0.00    -0.356 C  
HETATM   25  C   UNL     1     -10.451  11.519  64.527  1.00  0.00    -0.314 C  
HETATM   26  O   UNL     1     -10.422  10.688  65.418  1.00  0.00    -0.258 OA 
HETATM   27  O   UNL     1     -10.596  11.181  63.226  1.00  0.00    -0.343 OA 
ENDBRANCH  23  24
ENDBRANCH  22  23
ENDBRANCH  21  22
ENDBRANCH  20  21
ENDBRANCH  19  20
ENDBRANCH  18  19
ENDBRANCH  10  11
ENDBRANCH   6   9
ENDBRANCH   5   6
ENDBRANCH   4   5
ENDBRANCH   3   4
ENDBRANCH   2   3
TORSDOF 12
ENDMDL
MODEL      257
REMARK 921   NORMALIZED FREE ENERGY PREDICTED BY IDOCK:   -3.72 KCAL/MOL
REMARK 922        TOTAL FREE ENERGY PREDICTED BY IDOCK:   -8.27 KCAL/MOL
REMARK 923 INTER-LIGAND FREE ENERGY PREDICTED BY IDOCK:   -7.80 KCAL/MOL
REMARK 924 INTRA-LIGAND FREE ENERGY PREDICTED BY IDOCK:   -0.47 KCAL/MOL
REMARK 927      BINDING AFFINITY PREDICTED BY RF-SCORE:    0.00 PKD
ROOT
HETATM    1  C   UNL     1     -12.546  15.891  72.066  1.00  0.00    -0.517 C  
HETATM    2  C   UNL     1     -13.781  15.197  72.612  1.00  0.00    -0.587 C  
ENDROOT
BRANCH   2   3
HETATM    3  C   UNL     1     -13.975  13.807  72.001  1.00  0.00    -0.560 C  
BRANCH   3   4
HETATM    4  C   UNL     1     -12.621  13.129  71.799  1.00  0.00    -0.175 C  
BRANCH   4   5
HETATM    5  C   UNL     1     -12.525  12.396  70.459  1.00  0.00    -0.270 C  
BRANCH   5   6
HETATM    6  C   UNL     1     -11.931  13.263  69.336  1.00  0.00    -0.301 C  
HETATM    7  O   UNL     1     -12.615  14.512  69.359  1.00  0.00    -0.566 OA 
HETATM    8  H   UNL     1     -12.248  15.048  68.665  1.00  0.00     0.000 HD 
BRANCH   6   9
HETATM    9  C   UNL     1     -12.038  12.615  67.973  1.00  0.00    -0.152 C  
HETATM   10  C   UNL     1     -11.044  12.404  67.094  1.00  0.00    -0.328 C  
BRANCH  10  11
HETATM   11  C   UNL     1     -11.248  11.894  65.683  1.00  0.00    -0.360 C  
HETATM   12  C   UNL     1     -11.644  13.061  64.754  1.00  0.00    -0.329 C  
HETATM   13  O   UNL     1     -13.020  13.396  64.873  1.00  0.00    -0.717 OA 
HETATM   14  C   UNL     1     -11.329  12.586  63.352  1.00  0.00    -0.489 C  
HETATM   15  H   UNL     1     -13.264  14.114  64.300  1.00  0.00     0.000 HD 
HETATM   16  C   UNL     1     -10.111  11.752  63.596  1.00  0.00    -0.418 C  
HETATM   17  O   UNL     1      -9.308  11.489  62.708  1.00  0.00    -0.374 OA 
HETATM   18  C   UNL     1      -9.991  11.267  65.033  1.00  0.00    -0.323 C  
BRANCH  18  19
HETATM   19  C   UNL     1     -10.011   9.730  65.141  1.00  0.00    -0.197 C  
BRANCH  19  20
HETATM   20  C   UNL     1      -9.856   9.201  66.573  1.00  0.00    -0.333 C  
BRANCH  20  21
HETATM   21  C   UNL     1      -8.400   9.236  67.045  1.00  0.00    -0.120 C  
BRANCH  21  22
HETATM   22  C   UNL     1      -8.289   8.815  68.514  1.00  0.00    -0.129 C  
BRANCH  22  23
HETATM   23  C   UNL     1      -8.984   7.477  68.764  1.00  0.00    -0.129 C  
BRANCH  23  24
HETATM   24  C   UNL     1      -7.975   6.350  68.993  1.00  0.00    -0.111 C  
HETATM   25  C   UNL     1      -8.664   5.035  69.279  1.00  0.00    -0.091 C  
HETATM   26  O   UNL     1      -9.870   4.863  69.326  1.00  0.00    -0.172 OA 
HETATM   27  O   UNL     1      -7.781   4.033  69.489  1.00  0.00    -0.053 OA 
ENDBRANCH  23  24
ENDBRANCH  22  23
ENDBRANCH  21  22
ENDBRANCH  20  21
ENDBRANCH  19  20
ENDBRANCH  18  19
ENDBRANCH  10  11
ENDBRANCH   6   9
ENDBRANCH   5   6
ENDBRANCH   4   5
ENDBRANCH   3   4
ENDBRANCH   2   3
TORSDOF 12
ENDMDL
MODEL      258
REMARK 921   NORMALIZED FREE ENERGY PREDICTED BY IDOCK:   -3.72 KCAL/MOL
REMARK 922        TOTAL FREE ENERGY PREDICTED BY IDOCK:   -8.27 KCAL/MOL
REMARK 923 INTER-LIGAND FREE ENERGY PREDICTED BY IDOCK:   -6.54 KCAL/MOL
REMARK 924 INTRA-LIGAND FREE ENERGY PREDICTED BY IDOCK:   -1.73 KCAL/MOL
REMARK 927      BINDING AFFINITY PREDICTED BY RF-SCORE:    0.00 PKD
ROOT
HETATM    1  C   UNL     1     -12.295  12.684  63.355  1.00  0.00    -0.553 C  
HETATM    2  C   UNL     1     -12.646  12.536  64.825  1.00  0.00    -0.493 C  
ENDROOT
BRANCH   2   3
HETATM    3  C   UNL     1     -12.562  13.869  65.572  1.00  0.00    -0.560 C  
BRANCH   3   4
HETATM    4  C   UNL     1     -11.102  14.231  65.836  1.00  0.00    -0.310 C  
BRANCH   4   5
HETATM    5  C   UNL     1     -10.801  14.412  67.326  1.00  0.00    -0.290 C  
BRANCH   5   6
HETATM    6  C   UNL     1     -10.878  13.098  68.122  1.00  0.00    -0.251 C  
HETATM    7  O   UNL     1     -10.768  13.432  69.501  1.00  0.00    -0.446 OA 
HETATM    8  H   UNL     1     -10.815  12.620  69.993  1.00  0.00     0.000 HD 
BRANCH   6   9
HETATM    9  C   UNL     1      -9.810  12.103  67.721  1.00  0.00    -0.199 C  
HETATM   10  C   UNL     1      -9.909  11.132  66.799  1.00  0.00    -0.230 C  
BRANCH  10  11
HETATM   11  C   UNL     1      -8.854  10.073  66.561  1.00  0.00    -0.154 C  
HETATM   12  C   UNL     1      -7.468  10.607  66.977  1.00  0.00    -0.106 C  
HETATM   13  O   UNL     1      -6.899  11.450  65.983  1.00  0.00    -0.369 OA 
HETATM   14  C   UNL     1      -6.608   9.379  67.192  1.00  0.00    -0.071 C  
HETATM   15  H   UNL     1      -6.045  11.778  66.240  1.00  0.00     0.000 HD 
HETATM   16  C   UNL     1      -7.614   8.415  67.738  1.00  0.00    -0.102 C  
HETATM   17  O   UNL     1      -7.290   7.435  68.399  1.00  0.00    -0.097 OA 
HETATM   18  C   UNL     1      -9.049   8.771  67.377  1.00  0.00    -0.147 C  
BRANCH  18  19
HETATM   19  C   UNL     1      -9.734   7.678  66.536  1.00  0.00    -0.251 C  
BRANCH  19  20
HETATM   20  C   UNL     1     -10.512   6.646  67.364  1.00  0.00    -0.325 C  
BRANCH  20  21
HETATM   21  C   UNL     1     -10.910   7.194  68.737  1.00  0.00    -0.157 C  
BRANCH  21  22
HETATM   22  C   UNL     1     -11.068   6.060  69.755  1.00  0.00    -0.476 C  
BRANCH  22  23
HETATM   23  C   UNL     1      -9.754   5.774  70.481  1.00  0.00    -0.225 C  
BRANCH  23  24
HETATM   24  C   UNL     1      -9.224   7.015  71.201  1.00  0.00    -0.157 C  
HETATM   25  C   UNL     1      -9.566   6.993  72.674  1.00  0.00    -0.143 C  
HETATM   26  O   UNL     1     -10.182   6.109  73.245  1.00  0.00    -0.185 OA 
HETATM   27  O   UNL     1      -9.107   8.089  73.319  1.00  0.00    -0.247 OA 
ENDBRANCH  23  24
ENDBRANCH  22  23
ENDBRANCH  21  22
ENDBRANCH  20  21
ENDBRANCH  19  20
ENDBRANCH  18  19
ENDBRANCH  10  11
ENDBRANCH   6   9
ENDBRANCH   5   6
ENDBRANCH   4   5
ENDBRANCH   3   4
ENDBRANCH   2   3
TORSDOF 12
ENDMDL
MODEL      259
REMARK 921   NORMALIZED FREE ENERGY PREDICTED BY IDOCK:   -3.71 KCAL/MOL
REMARK 922        TOTAL FREE ENERGY PREDICTED BY IDOCK:   -8.26 KCAL/MOL
REMARK 923 INTER-LIGAND FREE ENERGY PREDICTED BY IDOCK:   -6.36 KCAL/MOL
REMARK 924 INTRA-LIGAND FREE ENERGY PREDICTED BY IDOCK:   -1.91 KCAL/MOL
REMARK 927      BINDING AFFINITY PREDICTED BY RF-SCORE:    0.00 PKD
ROOT
HETATM    1  C   UNL     1     -12.728  14.106  65.801  1.00  0.00    -0.443 C  
HETATM    2  C   UNL     1     -12.060  13.671  64.509  1.00  0.00    -0.459 C  
ENDROOT
BRANCH   2   3
HETATM    3  C   UNL     1     -12.497  12.268  64.081  1.00  0.00    -0.530 C  
BRANCH   3   4
HETATM    4  C   UNL     1     -11.415  11.623  63.216  1.00  0.00    -0.266 C  
BRANCH   4   5
HETATM    5  C   UNL     1     -10.001  12.000  63.663  1.00  0.00    -0.387 C  
BRANCH   5   6
HETATM    6  C   UNL     1      -9.320  10.905  64.501  1.00  0.00    -0.223 C  
HETATM    7  O   UNL     1      -9.503   9.671  63.814  1.00  0.00    -0.400 OA 
HETATM    8  H   UNL     1      -9.082   8.994  64.332  1.00  0.00     0.000 HD 
BRANCH   6   9
HETATM    9  C   UNL     1      -9.859  10.822  65.912  1.00  0.00    -0.290 C  
HETATM   10  C   UNL     1      -9.963  11.822  66.803  1.00  0.00    -0.224 C  
BRANCH  10  11
HETATM   11  C   UNL     1     -10.365  11.636  68.250  1.00  0.00    -0.212 C  
HETATM   12  C   UNL     1     -10.970  12.944  68.801  1.00  0.00    -0.254 C  
HETATM   13  O   UNL     1      -9.969  13.886  69.161  1.00  0.00    -0.428 OA 
HETATM   14  C   UNL     1     -11.780  12.536  70.013  1.00  0.00    -0.297 C  
HETATM   15  H   UNL     1     -10.342  14.691  69.501  1.00  0.00     0.000 HD 
HETATM   16  C   UNL     1     -12.288  11.195  69.583  1.00  0.00    -0.218 C  
HETATM   17  O   UNL     1     -13.280  10.679  70.086  1.00  0.00    -0.093 OA 
HETATM   18  C   UNL     1     -11.449  10.556  68.487  1.00  0.00    -0.284 C  
BRANCH  18  19
HETATM   19  C   UNL     1     -10.823   9.219  68.928  1.00  0.00    -0.128 C  
BRANCH  19  20
HETATM   20  C   UNL     1      -9.354   9.328  69.359  1.00  0.00    -0.164 C  
BRANCH  20  21
HETATM   21  C   UNL     1      -8.608   8.001  69.200  1.00  0.00    -0.137 C  
BRANCH  21  22
HETATM   22  C   UNL     1      -9.139   7.214  67.998  1.00  0.00    -0.132 C  
BRANCH  22  23
HETATM   23  C   UNL     1      -9.809   5.911  68.435  1.00  0.00    -0.163 C  
BRANCH  23  24
HETATM   24  C   UNL     1      -9.555   5.614  69.914  1.00  0.00    -0.208 C  
HETATM   25  C   UNL     1      -9.329   4.138  70.154  1.00  0.00    -0.164 C  
HETATM   26  O   UNL     1      -9.341   3.270  69.297  1.00  0.00    -0.149 OA 
HETATM   27  O   UNL     1      -9.110   3.863  71.460  1.00  0.00    -0.103 OA 
ENDBRANCH  23  24
ENDBRANCH  22  23
ENDBRANCH  21  22
ENDBRANCH  20  21
ENDBRANCH  19  20
ENDBRANCH  18  19
ENDBRANCH  10  11
ENDBRANCH   6   9
ENDBRANCH   5   6
ENDBRANCH   4   5
ENDBRANCH   3   4
ENDBRANCH   2   3
TORSDOF 12
ENDMDL
MODEL      260
REMARK 921   NORMALIZED FREE ENERGY PREDICTED BY IDOCK:   -3.71 KCAL/MOL
REMARK 922        TOTAL FREE ENERGY PREDICTED BY IDOCK:   -8.26 KCAL/MOL
REMARK 923 INTER-LIGAND FREE ENERGY PREDICTED BY IDOCK:   -6.66 KCAL/MOL
REMARK 924 INTRA-LIGAND FREE ENERGY PREDICTED BY IDOCK:   -1.60 KCAL/MOL
REMARK 927      BINDING AFFINITY PREDICTED BY RF-SCORE:    0.00 PKD
ROOT
HETATM    1  C   UNL     1     -10.046   5.282  67.254  1.00  0.00    -0.234 C  
HETATM    2  C   UNL     1      -9.935   4.289  68.397  1.00  0.00    -0.028 C  
ENDROOT
BRANCH   2   3
HETATM    3  C   UNL     1      -8.670   4.511  69.229  1.00  0.00    -0.117 C  
BRANCH   3   4
HETATM    4  C   UNL     1      -9.003   5.312  70.486  1.00  0.00    -0.162 C  
BRANCH   4   5
HETATM    5  C   UNL     1     -10.498   5.295  70.815  1.00  0.00    -0.298 C  
BRANCH   5   6
HETATM    6  C   UNL     1     -11.138   6.693  70.791  1.00  0.00    -0.286 C  
HETATM    7  O   UNL     1     -12.208   6.653  69.852  1.00  0.00    -0.598 OA 
HETATM    8  H   UNL     1     -12.603   7.517  69.837  1.00  0.00     0.000 HD 
BRANCH   6   9
HETATM    9  C   UNL     1     -10.153   7.786  70.438  1.00  0.00    -0.194 C  
HETATM   10  C   UNL     1     -10.347   8.814  69.596  1.00  0.00    -0.213 C  
BRANCH  10  11
HETATM   11  C   UNL     1      -9.264   9.782  69.169  1.00  0.00    -0.177 C  
HETATM   12  C   UNL     1      -7.914   9.371  69.795  1.00  0.00    -0.119 C  
HETATM   13  O   UNL     1      -7.805   9.787  71.150  1.00  0.00    -0.312 OA 
HETATM   14  C   UNL     1      -6.854  10.037  68.944  1.00  0.00    -0.054 C  
HETATM   15  H   UNL     1      -6.974   9.534  71.535  1.00  0.00     0.000 HD 
HETATM   16  C   UNL     1      -7.491   9.980  67.591  1.00  0.00    -0.090 C  
HETATM   17  O   UNL     1      -6.839  10.057  66.556  1.00  0.00    -0.082 OA 
HETATM   18  C   UNL     1      -9.005   9.831  67.644  1.00  0.00    -0.133 C  
BRANCH  18  19
HETATM   19  C   UNL     1      -9.736  11.018  66.988  1.00  0.00    -0.208 C  
BRANCH  19  20
HETATM   20  C   UNL     1     -10.284  12.045  67.989  1.00  0.00    -0.203 C  
BRANCH  20  21
HETATM   21  C   UNL     1     -11.613  12.648  67.525  1.00  0.00    -0.418 C  
BRANCH  21  22
HETATM   22  C   UNL     1     -11.438  14.114  67.116  1.00  0.00    -0.373 C  
BRANCH  22  23
HETATM   23  C   UNL     1     -11.343  14.262  65.598  1.00  0.00    -0.317 C  
BRANCH  23  24
HETATM   24  C   UNL     1     -12.536  13.617  64.891  1.00  0.00    -0.423 C  
HETATM   25  C   UNL     1     -12.091  12.620  63.844  1.00  0.00    -0.487 C  
HETATM   26  O   UNL     1     -10.935  12.343  63.576  1.00  0.00    -0.437 OA 
HETATM   27  O   UNL     1     -13.139  12.049  63.209  1.00  0.00    -0.701 OA 
ENDBRANCH  23  24
ENDBRANCH  22  23
ENDBRANCH  21  22
ENDBRANCH  20  21
ENDBRANCH  19  20
ENDBRANCH  18  19
ENDBRANCH  10  11
ENDBRANCH   6   9
ENDBRANCH   5   6
ENDBRANCH   4   5
ENDBRANCH   3   4
ENDBRANCH   2   3
TORSDOF 12
ENDMDL
MODEL      261
REMARK 921   NORMALIZED FREE ENERGY PREDICTED BY IDOCK:   -3.71 KCAL/MOL
REMARK 922        TOTAL FREE ENERGY PREDICTED BY IDOCK:   -8.26 KCAL/MOL
REMARK 923 INTER-LIGAND FREE ENERGY PREDICTED BY IDOCK:   -6.79 KCAL/MOL
REMARK 924 INTRA-LIGAND FREE ENERGY PREDICTED BY IDOCK:   -1.47 KCAL/MOL
REMARK 927      BINDING AFFINITY PREDICTED BY RF-SCORE:    0.00 PKD
ROOT
HETATM    1  C   UNL     1      -8.111   6.786  68.469  1.00  0.00    -0.120 C  
HETATM    2  C   UNL     1      -7.444   7.767  69.417  1.00  0.00    -0.088 C  
ENDROOT
BRANCH   2   3
HETATM    3  C   UNL     1      -6.369   7.095  70.275  1.00  0.00    -0.034 C  
BRANCH   3   4
HETATM    4  C   UNL     1      -7.011   6.422  71.487  1.00  0.00    -0.076 C  
BRANCH   4   5
HETATM    5  C   UNL     1      -7.553   7.431  72.502  1.00  0.00    -0.092 C  
BRANCH   5   6
HETATM    6  C   UNL     1      -8.743   6.891  73.314  1.00  0.00    -0.126 C  
HETATM    7  O   UNL     1      -8.715   5.471  73.213  1.00  0.00    -0.117 OA 
HETATM    8  H   UNL     1      -9.450   5.137  73.714  1.00  0.00     0.000 HD 
BRANCH   6   9
HETATM    9  C   UNL     1     -10.073   7.439  72.845  1.00  0.00    -0.293 C  
HETATM   10  C   UNL     1     -10.398   7.831  71.602  1.00  0.00    -0.236 C  
BRANCH  10  11
HETATM   11  C   UNL     1     -11.697   8.516  71.237  1.00  0.00    -0.331 C  
HETATM   12  C   UNL     1     -12.778   8.191  72.290  1.00  0.00    -0.255 C  
HETATM   13  O   UNL     1     -13.354   6.908  72.085  1.00  0.00    -0.544 OA 
HETATM   14  C   UNL     1     -13.824   9.275  72.144  1.00  0.00    -0.478 C  
HETATM   15  H   UNL     1     -14.020   6.708  72.733  1.00  0.00     0.000 HD 
HETATM   16  C   UNL     1     -12.972  10.452  71.784  1.00  0.00    -0.475 C  
HETATM   17  O   UNL     1     -13.349  11.607  71.945  1.00  0.00    -0.445 OA 
HETATM   18  C   UNL     1     -11.624  10.062  71.196  1.00  0.00    -0.460 C  
BRANCH  18  19
HETATM   19  C   UNL     1     -11.437  10.578  69.757  1.00  0.00    -0.365 C  
BRANCH  19  20
HETATM   20  C   UNL     1     -10.022  10.373  69.198  1.00  0.00    -0.237 C  
BRANCH  20  21
HETATM   21  C   UNL     1      -9.812  11.122  67.879  1.00  0.00    -0.187 C  
BRANCH  21  22
HETATM   22  C   UNL     1     -10.466  12.507  67.923  1.00  0.00    -0.226 C  
BRANCH  22  23
HETATM   23  C   UNL     1     -11.745  12.547  67.088  1.00  0.00    -0.425 C  
BRANCH  23  24
HETATM   24  C   UNL     1     -11.540  13.308  65.777  1.00  0.00    -0.368 C  
HETATM   25  C   UNL     1     -11.213  12.372  64.635  1.00  0.00    -0.312 C  
HETATM   26  O   UNL     1     -11.119  11.159  64.717  1.00  0.00    -0.208 OA 
HETATM   27  O   UNL     1     -11.024  13.035  63.472  1.00  0.00    -0.296 OA 
ENDBRANCH  23  24
ENDBRANCH  22  23
ENDBRANCH  21  22
ENDBRANCH  20  21
ENDBRANCH  19  20
ENDBRANCH  18  19
ENDBRANCH  10  11
ENDBRANCH   6   9
ENDBRANCH   5   6
ENDBRANCH   4   5
ENDBRANCH   3   4
ENDBRANCH   2   3
TORSDOF 12
ENDMDL
MODEL      262
REMARK 921   NORMALIZED FREE ENERGY PREDICTED BY IDOCK:   -3.70 KCAL/MOL
REMARK 922        TOTAL FREE ENERGY PREDICTED BY IDOCK:   -8.25 KCAL/MOL
REMARK 923 INTER-LIGAND FREE ENERGY PREDICTED BY IDOCK:   -6.05 KCAL/MOL
REMARK 924 INTRA-LIGAND FREE ENERGY PREDICTED BY IDOCK:   -2.20 KCAL/MOL
REMARK 927      BINDING AFFINITY PREDICTED BY RF-SCORE:    0.00 PKD
ROOT
HETATM    1  C   UNL     1     -10.736  16.180  66.101  1.00  0.00    -0.222 C  
HETATM    2  C   UNL     1     -11.388  16.198  64.730  1.00  0.00    -0.253 C  
ENDROOT
BRANCH   2   3
HETATM    3  C   UNL     1     -12.272  14.970  64.499  1.00  0.00    -0.344 C  
BRANCH   3   4
HETATM    4  C   UNL     1     -11.981  13.908  65.557  1.00  0.00    -0.397 C  
BRANCH   4   5
HETATM    5  C   UNL     1     -12.318  12.494  65.079  1.00  0.00    -0.522 C  
BRANCH   5   6
HETATM    6  C   UNL     1     -11.562  12.091  63.801  1.00  0.00    -0.476 C  
HETATM    7  O   UNL     1     -12.529  11.620  62.869  1.00  0.00    -0.930 OA 
HETATM    8  H   UNL     1     -12.062  11.371  62.079  1.00  0.00     0.000 HD 
BRANCH   6   9
HETATM    9  C   UNL     1     -10.499  11.044  64.051  1.00  0.00    -0.433 C  
HETATM   10  C   UNL     1      -9.340  11.205  64.710  1.00  0.00    -0.209 C  
BRANCH  10  11
HETATM   11  C   UNL     1      -8.250  10.156  64.785  1.00  0.00    -0.161 C  
HETATM   12  C   UNL     1      -7.072  10.553  63.871  1.00  0.00     0.127 C  
HETATM   13  O   UNL     1      -7.326  10.245  62.507  1.00  0.00    -0.132 OA 
HETATM   14  C   UNL     1      -5.881   9.771  64.383  1.00  0.00    -0.092 C  
HETATM   15  H   UNL     1      -6.601  10.490  61.945  1.00  0.00     0.000 HD 
HETATM   16  C   UNL     1      -6.161   9.747  65.853  1.00  0.00    -0.072 C  
HETATM   17  O   UNL     1      -5.281   9.555  66.684  1.00  0.00    -0.042 OA 
HETATM   18  C   UNL     1      -7.628   9.969  66.191  1.00  0.00    -0.109 C  
BRANCH  18  19
HETATM   19  C   UNL     1      -8.252   8.768  66.926  1.00  0.00    -0.108 C  
BRANCH  19  20
HETATM   20  C   UNL     1      -8.943   9.133  68.247  1.00  0.00    -0.129 C  
BRANCH  20  21
HETATM   21  C   UNL     1     -10.467   9.164  68.109  1.00  0.00    -0.260 C  
BRANCH  21  22
HETATM   22  C   UNL     1     -10.946  10.533  67.615  1.00  0.00    -0.375 C  
BRANCH  22  23
HETATM   23  C   UNL     1     -10.555  11.645  68.588  1.00  0.00    -0.236 C  
BRANCH  23  24
HETATM   24  C   UNL     1     -10.048  12.887  67.854  1.00  0.00    -0.232 C  
HETATM   25  C   UNL     1      -8.563  13.088  68.059  1.00  0.00    -0.186 C  
HETATM   26  O   UNL     1      -7.835  12.367  68.719  1.00  0.00    -0.085 OA 
HETATM   27  O   UNL     1      -8.105  14.188  67.418  1.00  0.00    -0.174 OA 
ENDBRANCH  23  24
ENDBRANCH  22  23
ENDBRANCH  21  22
ENDBRANCH  20  21
ENDBRANCH  19  20
ENDBRANCH  18  19
ENDBRANCH  10  11
ENDBRANCH   6   9
ENDBRANCH   5   6
ENDBRANCH   4   5
ENDBRANCH   3   4
ENDBRANCH   2   3
TORSDOF 12
ENDMDL
MODEL      263
REMARK 921   NORMALIZED FREE ENERGY PREDICTED BY IDOCK:   -3.70 KCAL/MOL
REMARK 922        TOTAL FREE ENERGY PREDICTED BY IDOCK:   -8.24 KCAL/MOL
REMARK 923 INTER-LIGAND FREE ENERGY PREDICTED BY IDOCK:   -6.37 KCAL/MOL
REMARK 924 INTRA-LIGAND FREE ENERGY PREDICTED BY IDOCK:   -1.87 KCAL/MOL
REMARK 927      BINDING AFFINITY PREDICTED BY RF-SCORE:    0.00 PKD
ROOT
HETATM    1  C   UNL     1     -10.537   3.341  62.840  1.00  0.00    -0.208 C  
HETATM    2  C   UNL     1     -10.585   3.974  64.220  1.00  0.00    -0.204 C  
ENDROOT
BRANCH   2   3
HETATM    3  C   UNL     1      -9.547   3.366  65.166  1.00  0.00    -0.131 C  
BRANCH   3   4
HETATM    4  C   UNL     1      -9.687   3.977  66.559  1.00  0.00    -0.211 C  
BRANCH   4   5
HETATM    5  C   UNL     1      -9.650   5.507  66.537  1.00  0.00    -0.169 C  
BRANCH   5   6
HETATM    6  C   UNL     1     -10.846   6.150  67.259  1.00  0.00    -0.352 C  
HETATM    7  O   UNL     1     -10.837   7.538  66.938  1.00  0.00    -0.457 OA 
HETATM    8  H   UNL     1     -11.576   7.936  67.385  1.00  0.00     0.000 HD 
BRANCH   6   9
HETATM    9  C   UNL     1     -10.810   5.944  68.758  1.00  0.00    -0.353 C  
HETATM   10  C   UNL     1      -9.724   5.896  69.546  1.00  0.00    -0.190 C  
BRANCH  10  11
HETATM   11  C   UNL     1      -9.752   5.528  71.014  1.00  0.00    -0.229 C  
HETATM   12  C   UNL     1      -8.444   4.805  71.401  1.00  0.00    -0.108 C  
HETATM   13  O   UNL     1      -8.458   3.436  71.019  1.00  0.00    -0.065 OA 
HETATM   14  C   UNL     1      -8.337   4.939  72.904  1.00  0.00    -0.104 C  
HETATM   15  H   UNL     1      -7.653   2.991  71.257  1.00  0.00     0.000 HD 
HETATM   16  C   UNL     1      -8.938   6.293  73.117  1.00  0.00    -0.129 C  
HETATM   17  O   UNL     1      -8.712   6.959  74.121  1.00  0.00    -0.144 OA 
HETATM   18  C   UNL     1      -9.849   6.734  71.981  1.00  0.00    -0.166 C  
BRANCH  18  19
HETATM   19  C   UNL     1     -11.300   6.966  72.445  1.00  0.00    -0.308 C  
BRANCH  19  20
HETATM   20  C   UNL     1     -11.746   8.433  72.394  1.00  0.00    -0.452 C  
BRANCH  20  21
HETATM   21  C   UNL     1     -13.118   8.595  71.734  1.00  0.00    -0.396 C  
BRANCH  21  22
HETATM   22  C   UNL     1     -13.374  10.056  71.353  1.00  0.00    -0.432 C  
BRANCH  22  23
HETATM   23  C   UNL     1     -12.075  10.773  70.985  1.00  0.00    -0.452 C  
BRANCH  23  24
HETATM   24  C   UNL     1     -12.020  11.112  69.495  1.00  0.00    -0.425 C  
HETATM   25  C   UNL     1     -10.963  10.301  68.779  1.00  0.00    -0.243 C  
HETATM   26  O   UNL     1     -10.233   9.473  69.297  1.00  0.00    -0.186 OA 
HETATM   27  O   UNL     1     -10.901  10.597  67.461  1.00  0.00    -0.254 OA 
ENDBRANCH  23  24
ENDBRANCH  22  23
ENDBRANCH  21  22
ENDBRANCH  20  21
ENDBRANCH  19  20
ENDBRANCH  18  19
ENDBRANCH  10  11
ENDBRANCH   6   9
ENDBRANCH   5   6
ENDBRANCH   4   5
ENDBRANCH   3   4
ENDBRANCH   2   3
TORSDOF 12
ENDMDL
MODEL      264
REMARK 921   NORMALIZED FREE ENERGY PREDICTED BY IDOCK:   -3.69 KCAL/MOL
REMARK 922        TOTAL FREE ENERGY PREDICTED BY IDOCK:   -8.23 KCAL/MOL
REMARK 923 INTER-LIGAND FREE ENERGY PREDICTED BY IDOCK:   -5.98 KCAL/MOL
REMARK 924 INTRA-LIGAND FREE ENERGY PREDICTED BY IDOCK:   -2.25 KCAL/MOL
REMARK 927      BINDING AFFINITY PREDICTED BY RF-SCORE:    0.00 PKD
ROOT
HETATM    1  C   UNL     1     -11.817   6.656  71.966  1.00  0.00    -0.365 C  
HETATM    2  C   UNL     1     -12.088   7.976  71.268  1.00  0.00    -0.314 C  
ENDROOT
BRANCH   2   3
HETATM    3  C   UNL     1     -11.164   9.089  71.766  1.00  0.00    -0.448 C  
BRANCH   3   4
HETATM    4  C   UNL     1     -10.343   9.648  70.606  1.00  0.00    -0.365 C  
BRANCH   4   5
HETATM    5  C   UNL     1     -10.112   8.617  69.499  1.00  0.00    -0.203 C  
BRANCH   5   6
HETATM    6  C   UNL     1     -11.031   8.820  68.283  1.00  0.00     0.156 C  
HETATM    7  O   UNL     1     -10.832   7.711  67.412  1.00  0.00    -0.473 OA 
HETATM    8  H   UNL     1     -11.401   7.836  66.660  1.00  0.00     0.000 HD 
BRANCH   6   9
HETATM    9  C   UNL     1     -10.775  10.125  67.561  1.00  0.00    -0.347 C  
HETATM   10  C   UNL     1     -10.546  10.296  66.249  1.00  0.00    -0.150 C  
BRANCH  10  11
HETATM   11  C   UNL     1     -10.141  11.612  65.619  1.00  0.00    -0.278 C  
HETATM   12  C   UNL     1     -11.160  12.010  64.531  1.00  0.00    -0.331 C  
HETATM   13  O   UNL     1     -10.938  11.315  63.311  1.00  0.00    -0.738 OA 
HETATM   14  C   UNL     1     -10.982  13.501  64.336  1.00  0.00    -0.399 C  
HETATM   15  H   UNL     1     -11.565  11.561  62.641  1.00  0.00     0.000 HD 
HETATM   16  C   UNL     1     -10.647  13.936  65.728  1.00  0.00    -0.297 C  
HETATM   17  O   UNL     1     -10.797  15.092  66.107  1.00  0.00    -0.320 OA 
HETATM   18  C   UNL     1     -10.102  12.812  66.597  1.00  0.00    -0.248 C  
BRANCH  18  19
HETATM   19  C   UNL     1      -8.668  13.089  67.088  1.00  0.00    -0.204 C  
BRANCH  19  20
HETATM   20  C   UNL     1      -8.366  12.529  68.485  1.00  0.00    -0.069 C  
BRANCH  20  21
HETATM   21  C   UNL     1      -6.971  11.904  68.564  1.00  0.00    -0.085 C  
BRANCH  21  22
HETATM   22  C   UNL     1      -6.413  11.627  67.165  1.00  0.00    -0.137 C  
BRANCH  22  23
HETATM   23  C   UNL     1      -6.071  10.148  66.984  1.00  0.00    -0.055 C  
BRANCH  23  24
HETATM   24  C   UNL     1      -7.305   9.258  67.138  1.00  0.00    -0.091 C  
HETATM   25  C   UNL     1      -7.285   8.104  66.162  1.00  0.00    -0.066 C  
HETATM   26  O   UNL     1      -6.408   7.882  65.345  1.00  0.00    -0.041 OA 
HETATM   27  O   UNL     1      -8.376   7.314  66.286  1.00  0.00    -0.116 OA 
ENDBRANCH  23  24
ENDBRANCH  22  23
ENDBRANCH  21  22
ENDBRANCH  20  21
ENDBRANCH  19  20
ENDBRANCH  18  19
ENDBRANCH  10  11
ENDBRANCH   6   9
ENDBRANCH   5   6
ENDBRANCH   4   5
ENDBRANCH   3   4
ENDBRANCH   2   3
TORSDOF 12
ENDMDL
MODEL      265
REMARK 921   NORMALIZED FREE ENERGY PREDICTED BY IDOCK:   -3.69 KCAL/MOL
REMARK 922        TOTAL FREE ENERGY PREDICTED BY IDOCK:   -8.23 KCAL/MOL
REMARK 923 INTER-LIGAND FREE ENERGY PREDICTED BY IDOCK:   -6.56 KCAL/MOL
REMARK 924 INTRA-LIGAND FREE ENERGY PREDICTED BY IDOCK:   -1.67 KCAL/MOL
REMARK 927      BINDING AFFINITY PREDICTED BY RF-SCORE:    0.00 PKD
ROOT
HETATM    1  C   UNL     1     -10.359   5.264  66.165  1.00  0.00    -0.238 C  
HETATM    2  C   UNL     1      -9.424   4.590  67.153  1.00  0.00    -0.182 C  
ENDROOT
BRANCH   2   3
HETATM    3  C   UNL     1     -10.087   4.376  68.515  1.00  0.00     0.029 C  
BRANCH   3   4
HETATM    4  C   UNL     1      -9.847   5.589  69.412  1.00  0.00    -0.240 C  
BRANCH   4   5
HETATM    5  C   UNL     1     -11.093   6.465  69.563  1.00  0.00    -0.460 C  
BRANCH   5   6
HETATM    6  C   UNL     1     -10.767   7.960  69.715  1.00  0.00    -0.233 C  
HETATM    7  O   UNL     1     -11.957   8.611  70.147  1.00  0.00    -0.444 OA 
HETATM    8  H   UNL     1     -11.755   9.535  70.241  1.00  0.00     0.000 HD 
BRANCH   6   9
HETATM    9  C   UNL     1     -10.245   8.582  68.438  1.00  0.00    -0.236 C  
HETATM   10  C   UNL     1      -8.971   8.891  68.147  1.00  0.00    -0.137 C  
BRANCH  10  11
HETATM   11  C   UNL     1      -8.540   9.656  66.914  1.00  0.00    -0.132 C  
HETATM   12  C   UNL     1      -7.125   9.214  66.487  1.00  0.00    -0.081 C  
HETATM   13  O   UNL     1      -6.113   9.832  67.270  1.00  0.00    -0.054 OA 
HETATM   14  C   UNL     1      -6.996   9.616  65.033  1.00  0.00    -0.111 C  
HETATM   15  H   UNL     1      -5.241   9.560  67.006  1.00  0.00     0.000 HD 
HETATM   16  C   UNL     1      -8.397   9.405  64.550  1.00  0.00    -0.164 C  
HETATM   17  O   UNL     1      -8.663   9.243  63.364  1.00  0.00    -0.217 OA 
HETATM   18  C   UNL     1      -9.430   9.428  65.667  1.00  0.00    -0.328 C  
BRANCH  18  19
HETATM   19  C   UNL     1     -10.459  10.561  65.496  1.00  0.00    -0.220 C  
BRANCH  19  20
HETATM   20  C   UNL     1     -10.129  11.831  66.294  1.00  0.00    -0.248 C  
BRANCH  20  21
HETATM   21  C   UNL     1     -11.346  12.363  67.055  1.00  0.00    -0.388 C  
BRANCH  21  22
HETATM   22  C   UNL     1     -11.249  13.879  67.252  1.00  0.00    -0.329 C  
BRANCH  22  23
HETATM   23  C   UNL     1     -10.149  14.486  66.381  1.00  0.00    -0.293 C  
BRANCH  23  24
HETATM   24  C   UNL     1     -10.723  15.422  65.315  1.00  0.00    -0.439 C  
HETATM   25  C   UNL     1     -10.559  16.874  65.704  1.00  0.00    -0.221 C  
HETATM   26  O   UNL     1     -10.038  17.279  66.728  1.00  0.00    -0.281 OA 
HETATM   27  O   UNL     1     -11.069  17.710  64.771  1.00  0.00    -0.915 OA 
ENDBRANCH  23  24
ENDBRANCH  22  23
ENDBRANCH  21  22
ENDBRANCH  20  21
ENDBRANCH  19  20
ENDBRANCH  18  19
ENDBRANCH  10  11
ENDBRANCH   6   9
ENDBRANCH   5   6
ENDBRANCH   4   5
ENDBRANCH   3   4
ENDBRANCH   2   3
TORSDOF 12
ENDMDL
MODEL      266
REMARK 921   NORMALIZED FREE ENERGY PREDICTED BY IDOCK:   -3.69 KCAL/MOL
REMARK 922        TOTAL FREE ENERGY PREDICTED BY IDOCK:   -8.22 KCAL/MOL
REMARK 923 INTER-LIGAND FREE ENERGY PREDICTED BY IDOCK:   -7.52 KCAL/MOL
REMARK 924 INTRA-LIGAND FREE ENERGY PREDICTED BY IDOCK:   -0.70 KCAL/MOL
REMARK 927      BINDING AFFINITY PREDICTED BY RF-SCORE:    0.00 PKD
ROOT
HETATM    1  C   UNL     1     -11.111   4.080  73.683  1.00  0.00    -0.334 C  
HETATM    2  C   UNL     1     -10.303   5.264  74.181  1.00  0.00    -0.308 C  
ENDROOT
BRANCH   2   3
HETATM    3  C   UNL     1     -10.097   6.318  73.091  1.00  0.00    -0.203 C  
BRANCH   3   4
HETATM    4  C   UNL     1     -10.939   7.556  73.392  1.00  0.00    -0.259 C  
BRANCH   4   5
HETATM    5  C   UNL     1     -12.054   7.774  72.366  1.00  0.00    -0.297 C  
BRANCH   5   6
HETATM    6  C   UNL     1     -12.635   9.198  72.398  1.00  0.00    -0.311 C  
HETATM    7  O   UNL     1     -14.051   9.075  72.485  1.00  0.00    -0.539 OA 
HETATM    8  H   UNL     1     -14.410   9.955  72.505  1.00  0.00     0.000 HD 
BRANCH   6   9
HETATM    9  C   UNL     1     -12.239  10.023  71.193  1.00  0.00    -0.477 C  
HETATM   10  C   UNL     1     -11.111   9.917  70.471  1.00  0.00    -0.398 C  
BRANCH  10  11
HETATM   11  C   UNL     1     -10.708  10.880  69.375  1.00  0.00    -0.265 C  
HETATM   12  C   UNL     1     -10.572  10.126  68.035  1.00  0.00    -0.231 C  
HETATM   13  O   UNL     1      -9.334   9.435  67.935  1.00  0.00    -0.129 OA 
HETATM   14  C   UNL     1     -10.680  11.187  66.961  1.00  0.00    -0.316 C  
HETATM   15  H   UNL     1      -9.250   8.971  67.110  1.00  0.00     0.000 HD 
HETATM   16  C   UNL     1     -11.658  12.132  67.586  1.00  0.00    -0.343 C  
HETATM   17  O   UNL     1     -12.319  12.924  66.922  1.00  0.00    -0.384 OA 
HETATM   18  C   UNL     1     -11.728  12.012  69.101  1.00  0.00    -0.389 C  
BRANCH  18  19
HETATM   19  C   UNL     1     -11.325  13.316  69.815  1.00  0.00    -0.132 C  
BRANCH  19  20
HETATM   20  C   UNL     1     -10.712  14.374  68.887  1.00  0.00    -0.260 C  
BRANCH  20  21
HETATM   21  C   UNL     1     -11.248  15.778  69.182  1.00  0.00    -0.322 C  
BRANCH  21  22
HETATM   22  C   UNL     1     -10.335  16.851  68.580  1.00  0.00    -0.336 C  
BRANCH  22  23
HETATM   23  C   UNL     1     -10.103  16.613  67.088  1.00  0.00    -0.276 C  
BRANCH  23  24
HETATM   24  C   UNL     1      -8.622  16.398  66.773  1.00  0.00    -0.270 C  
HETATM   25  C   UNL     1      -8.030  17.583  66.043  1.00  0.00    -0.157 C  
HETATM   26  O   UNL     1      -8.632  18.596  65.732  1.00  0.00    -0.430 OA 
HETATM   27  O   UNL     1      -6.722  17.401  65.754  1.00  0.00    -0.155 OA 
ENDBRANCH  23  24
ENDBRANCH  22  23
ENDBRANCH  21  22
ENDBRANCH  20  21
ENDBRANCH  19  20
ENDBRANCH  18  19
ENDBRANCH  10  11
ENDBRANCH   6   9
ENDBRANCH   5   6
ENDBRANCH   4   5
ENDBRANCH   3   4
ENDBRANCH   2   3
TORSDOF 12
ENDMDL
MODEL      267
REMARK 921   NORMALIZED FREE ENERGY PREDICTED BY IDOCK:   -3.68 KCAL/MOL
REMARK 922        TOTAL FREE ENERGY PREDICTED BY IDOCK:   -8.21 KCAL/MOL
REMARK 923 INTER-LIGAND FREE ENERGY PREDICTED BY IDOCK:   -6.43 KCAL/MOL
REMARK 924 INTRA-LIGAND FREE ENERGY PREDICTED BY IDOCK:   -1.78 KCAL/MOL
REMARK 927      BINDING AFFINITY PREDICTED BY RF-SCORE:    0.00 PKD
ROOT
HETATM    1  C   UNL     1      -8.318   7.224  66.168  1.00  0.00    -0.133 C  
HETATM    2  C   UNL     1      -8.405   5.835  65.562  1.00  0.00    -0.140 C  
ENDROOT
BRANCH   2   3
HETATM    3  C   UNL     1      -9.725   5.142  65.904  1.00  0.00    -0.159 C  
BRANCH   3   4
HETATM    4  C   UNL     1      -9.514   3.632  66.003  1.00  0.00    -0.167 C  
BRANCH   4   5
HETATM    5  C   UNL     1      -8.412   3.256  66.995  1.00  0.00    -0.104 C  
BRANCH   5   6
HETATM    6  C   UNL     1      -8.948   2.566  68.261  1.00  0.00    -0.143 C  
HETATM    7  O   UNL     1      -9.995   1.690  67.855  1.00  0.00    -0.334 OA 
HETATM    8  H   UNL     1     -10.326   1.264  68.637  1.00  0.00     0.000 HD 
BRANCH   6   9
HETATM    9  C   UNL     1      -9.440   3.547  69.303  1.00  0.00    -0.233 C  
HETATM   10  C   UNL     1      -8.991   4.794  69.521  1.00  0.00    -0.135 C  
BRANCH  10  11
HETATM   11  C   UNL     1      -9.421   5.663  70.683  1.00  0.00    -0.203 C  
HETATM   12  C   UNL     1      -8.399   5.547  71.834  1.00  0.00    -0.119 C  
HETATM   13  O   UNL     1      -8.587   4.365  72.599  1.00  0.00    -0.107 OA 
HETATM   14  C   UNL     1      -8.611   6.778  72.689  1.00  0.00    -0.128 C  
HETATM   15  H   UNL     1      -7.958   4.294  73.308  1.00  0.00     0.000 HD 
HETATM   16  C   UNL     1      -8.975   7.793  71.651  1.00  0.00    -0.129 C  
HETATM   17  O   UNL     1      -8.859   8.997  71.845  1.00  0.00    -0.360 OA 
HETATM   18  C   UNL     1      -9.503   7.176  70.365  1.00  0.00    -0.162 C  
BRANCH  18  19
HETATM   19  C   UNL     1     -10.949   7.607  70.054  1.00  0.00    -0.237 C  
BRANCH  19  20
HETATM   20  C   UNL     1     -11.977   7.142  71.095  1.00  0.00    -0.381 C  
BRANCH  20  21
HETATM   21  C   UNL     1     -12.590   8.316  71.862  1.00  0.00    -0.379 C  
BRANCH  21  22
HETATM   22  C   UNL     1     -12.167   9.654  71.247  1.00  0.00    -0.452 C  
BRANCH  22  23
HETATM   23  C   UNL     1     -13.138  10.773  71.624  1.00  0.00    -0.551 C  
BRANCH  23  24
HETATM   24  C   UNL     1     -12.687  12.125  71.068  1.00  0.00    -0.322 C  
HETATM   25  C   UNL     1     -13.425  13.270  71.723  1.00  0.00    -0.354 C  
HETATM   26  O   UNL     1     -14.276  13.162  72.589  1.00  0.00    -0.677 OA 
HETATM   27  O   UNL     1     -13.038  14.470  71.234  1.00  0.00    -0.321 OA 
ENDBRANCH  23  24
ENDBRANCH  22  23
ENDBRANCH  21  22
ENDBRANCH  20  21
ENDBRANCH  19  20
ENDBRANCH  18  19
ENDBRANCH  10  11
ENDBRANCH   6   9
ENDBRANCH   5   6
ENDBRANCH   4   5
ENDBRANCH   3   4
ENDBRANCH   2   3
TORSDOF 12
ENDMDL
MODEL      268
REMARK 921   NORMALIZED FREE ENERGY PREDICTED BY IDOCK:   -3.67 KCAL/MOL
REMARK 922        TOTAL FREE ENERGY PREDICTED BY IDOCK:   -8.20 KCAL/MOL
REMARK 923 INTER-LIGAND FREE ENERGY PREDICTED BY IDOCK:   -7.00 KCAL/MOL
REMARK 924 INTRA-LIGAND FREE ENERGY PREDICTED BY IDOCK:   -1.20 KCAL/MOL
REMARK 927      BINDING AFFINITY PREDICTED BY RF-SCORE:    0.00 PKD
ROOT
HETATM    1  C   UNL     1      -6.664   8.983  65.709  1.00  0.00    -0.072 C  
HETATM    2  C   UNL     1      -6.388   7.867  66.700  1.00  0.00    -0.050 C  
ENDROOT
BRANCH   2   3
HETATM    3  C   UNL     1      -6.564   6.484  66.071  1.00  0.00    -0.048 C  
BRANCH   3   4
HETATM    4  C   UNL     1      -7.669   5.715  66.795  1.00  0.00    -0.100 C  
BRANCH   4   5
HETATM    5  C   UNL     1      -9.065   6.254  66.476  1.00  0.00    -0.162 C  
BRANCH   5   6
HETATM    6  C   UNL     1     -10.176   5.209  66.679  1.00  0.00    -0.261 C  
HETATM    7  O   UNL     1     -11.283   5.607  65.876  1.00  0.00    -0.672 OA 
HETATM    8  H   UNL     1     -11.970   4.962  66.001  1.00  0.00     0.000 HD 
BRANCH   6   9
HETATM    9  C   UNL     1     -10.587   5.060  68.127  1.00  0.00     0.089 C  
HETATM   10  C   UNL     1     -10.664   6.029  69.054  1.00  0.00    -0.393 C  
BRANCH  10  11
HETATM   11  C   UNL     1     -10.930   5.783  70.524  1.00  0.00    -0.320 C  
HETATM   12  C   UNL     1      -9.727   5.058  71.163  1.00  0.00    -0.178 C  
HETATM   13  O   UNL     1      -9.736   3.663  70.889  1.00  0.00    -0.173 OA 
HETATM   14  C   UNL     1      -9.845   5.311  72.650  1.00  0.00    -0.188 C  
HETATM   15  H   UNL     1      -8.996   3.217  71.282  1.00  0.00     0.000 HD 
HETATM   16  C   UNL     1     -10.417   6.694  72.664  1.00  0.00    -0.212 C  
HETATM   17  O   UNL     1     -10.320   7.433  73.637  1.00  0.00    -0.351 OA 
HETATM   18  C   UNL     1     -11.126   7.066  71.369  1.00  0.00    -0.274 C  
BRANCH  18  19
HETATM   19  C   UNL     1     -12.620   7.374  71.583  1.00  0.00    -0.391 C  
BRANCH  19  20
HETATM   20  C   UNL     1     -12.889   8.720  72.269  1.00  0.00    -0.465 C  
BRANCH  20  21
HETATM   21  C   UNL     1     -13.487   9.748  71.305  1.00  0.00    -0.362 C  
BRANCH  21  22
HETATM   22  C   UNL     1     -12.698  11.060  71.342  1.00  0.00    -0.534 C  
BRANCH  22  23
HETATM   23  C   UNL     1     -11.415  10.962  70.516  1.00  0.00    -0.314 C  
BRANCH  23  24
HETATM   24  C   UNL     1     -11.712  10.745  69.032  1.00  0.00    -0.357 C  
HETATM   25  C   UNL     1     -11.759  12.054  68.276  1.00  0.00    -0.334 C  
HETATM   26  O   UNL     1     -11.584  13.159  68.761  1.00  0.00    -0.265 OA 
HETATM   27  O   UNL     1     -12.028  11.874  66.963  1.00  0.00    -0.615 OA 
ENDBRANCH  23  24
ENDBRANCH  22  23
ENDBRANCH  21  22
ENDBRANCH  20  21
ENDBRANCH  19  20
ENDBRANCH  18  19
ENDBRANCH  10  11
ENDBRANCH   6   9
ENDBRANCH   5   6
ENDBRANCH   4   5
ENDBRANCH   3   4
ENDBRANCH   2   3
TORSDOF 12
ENDMDL
MODEL      269
REMARK 921   NORMALIZED FREE ENERGY PREDICTED BY IDOCK:   -3.67 KCAL/MOL
REMARK 922        TOTAL FREE ENERGY PREDICTED BY IDOCK:   -8.20 KCAL/MOL
REMARK 923 INTER-LIGAND FREE ENERGY PREDICTED BY IDOCK:   -5.95 KCAL/MOL
REMARK 924 INTRA-LIGAND FREE ENERGY PREDICTED BY IDOCK:   -2.24 KCAL/MOL
REMARK 927      BINDING AFFINITY PREDICTED BY RF-SCORE:    0.00 PKD
ROOT
HETATM    1  C   UNL     1     -11.049   6.362  67.445  1.00  0.00    -0.412 C  
HETATM    2  C   UNL     1     -10.053   5.777  66.460  1.00  0.00    -0.216 C  
ENDROOT
BRANCH   2   3
HETATM    3  C   UNL     1     -10.029   4.248  66.509  1.00  0.00    -0.214 C  
BRANCH   3   4
HETATM    4  C   UNL     1      -8.767   3.767  67.225  1.00  0.00    -0.123 C  
BRANCH   4   5
HETATM    5  C   UNL     1      -9.015   2.524  68.083  1.00  0.00    -0.195 C  
BRANCH   5   6
HETATM    6  C   UNL     1      -8.800   2.775  69.585  1.00  0.00    -0.088 C  
HETATM    7  O   UNL     1      -9.779   2.014  70.286  1.00  0.00    -0.064 OA 
HETATM    8  H   UNL     1      -9.646   2.169  71.214  1.00  0.00     0.000 HD 
BRANCH   6   9
HETATM    9  C   UNL     1      -8.887   4.239  69.957  1.00  0.00    -0.126 C  
HETATM   10  C   UNL     1      -9.829   4.831  70.709  1.00  0.00    -0.280 C  
BRANCH  10  11
HETATM   11  C   UNL     1      -9.943   6.327  70.910  1.00  0.00    -0.219 C  
HETATM   12  C   UNL     1     -11.019   6.636  71.973  1.00  0.00    -0.242 C  
HETATM   13  O   UNL     1     -12.334   6.570  71.436  1.00  0.00    -0.324 OA 
HETATM   14  C   UNL     1     -10.712   8.033  72.466  1.00  0.00    -0.407 C  
HETATM   15  H   UNL     1     -12.996   6.761  72.090  1.00  0.00     0.000 HD 
HETATM   16  C   UNL     1      -9.217   8.044  72.393  1.00  0.00    -0.202 C  
HETATM   17  O   UNL     1      -8.535   8.825  73.047  1.00  0.00    -0.402 OA 
HETATM   18  C   UNL     1      -8.653   7.010  71.430  1.00  0.00    -0.121 C  
BRANCH  18  19
HETATM   19  C   UNL     1      -7.855   7.650  70.278  1.00  0.00    -0.092 C  
BRANCH  19  20
HETATM   20  C   UNL     1      -8.728   8.291  69.192  1.00  0.00    -0.143 C  
BRANCH  20  21
HETATM   21  C   UNL     1      -8.012   8.354  67.840  1.00  0.00    -0.115 C  
BRANCH  21  22
HETATM   22  C   UNL     1      -8.699   9.349  66.900  1.00  0.00    -0.137 C  
BRANCH  22  23
HETATM   23  C   UNL     1      -9.520  10.377  67.680  1.00  0.00    -0.165 C  
BRANCH  23  24
HETATM   24  C   UNL     1     -10.213  11.371  66.747  1.00  0.00    -0.258 C  
HETATM   25  C   UNL     1     -11.625  11.669  67.201  1.00  0.00    -0.212 C  
HETATM   26  O   UNL     1     -12.168  11.194  68.184  1.00  0.00    -0.612 OA 
HETATM   27  O   UNL     1     -12.249  12.543  66.380  1.00  0.00    -0.584 OA 
ENDBRANCH  23  24
ENDBRANCH  22  23
ENDBRANCH  21  22
ENDBRANCH  20  21
ENDBRANCH  19  20
ENDBRANCH  18  19
ENDBRANCH  10  11
ENDBRANCH   6   9
ENDBRANCH   5   6
ENDBRANCH   4   5
ENDBRANCH   3   4
ENDBRANCH   2   3
TORSDOF 12
ENDMDL
MODEL      270
REMARK 921   NORMALIZED FREE ENERGY PREDICTED BY IDOCK:   -3.67 KCAL/MOL
REMARK 922        TOTAL FREE ENERGY PREDICTED BY IDOCK:   -8.19 KCAL/MOL
REMARK 923 INTER-LIGAND FREE ENERGY PREDICTED BY IDOCK:   -6.79 KCAL/MOL
REMARK 924 INTRA-LIGAND FREE ENERGY PREDICTED BY IDOCK:   -1.40 KCAL/MOL
REMARK 927      BINDING AFFINITY PREDICTED BY RF-SCORE:    0.00 PKD
ROOT
HETATM    1  C   UNL     1      -9.504  14.777  67.428  1.00  0.00    -0.207 C  
HETATM    2  C   UNL     1      -9.317  15.214  65.986  1.00  0.00    -0.326 C  
ENDROOT
BRANCH   2   3
HETATM    3  C   UNL     1     -10.606  15.078  65.173  1.00  0.00    -0.440 C  
BRANCH   3   4
HETATM    4  C   UNL     1     -11.780  14.764  66.100  1.00  0.00    -0.255 C  
BRANCH   4   5
HETATM    5  C   UNL     1     -12.643  13.610  65.586  1.00  0.00    -0.531 C  
BRANCH   5   6
HETATM    6  C   UNL     1     -11.947  12.770  64.502  1.00  0.00    -0.393 C  
HETATM    7  O   UNL     1     -12.967  12.158  63.720  1.00  0.00    -0.753 OA 
HETATM    8  H   UNL     1     -12.537  11.639  63.050  1.00  0.00     0.000 HD 
BRANCH   6   9
HETATM    9  C   UNL     1     -11.009  11.730  65.074  1.00  0.00    -0.357 C  
HETATM   10  C   UNL     1     -10.663  11.568  66.362  1.00  0.00    -0.320 C  
BRANCH  10  11
HETATM   11  C   UNL     1      -9.598  10.607  66.844  1.00  0.00    -0.200 C  
HETATM   12  C   UNL     1      -8.198  11.217  66.619  1.00  0.00    -0.164 C  
HETATM   13  O   UNL     1      -7.765  11.080  65.272  1.00  0.00    -0.357 OA 
HETATM   14  C   UNL     1      -7.275  10.467  67.556  1.00  0.00    -0.090 C  
HETATM   15  H   UNL     1      -6.904  11.456  65.134  1.00  0.00     0.000 HD 
HETATM   16  C   UNL     1      -8.182  10.220  68.720  1.00  0.00    -0.119 C  
HETATM   17  O   UNL     1      -7.755   9.985  69.844  1.00  0.00    -0.150 OA 
HETATM   18  C   UNL     1      -9.658  10.279  68.356  1.00  0.00    -0.155 C  
BRANCH  18  19
HETATM   19  C   UNL     1     -10.382   8.943  68.611  1.00  0.00    -0.228 C  
BRANCH  19  20
HETATM   20  C   UNL     1     -11.018   8.832  70.004  1.00  0.00    -0.216 C  
BRANCH  20  21
HETATM   21  C   UNL     1     -10.549   7.581  70.752  1.00  0.00    -0.227 C  
BRANCH  21  22
HETATM   22  C   UNL     1     -11.260   6.330  70.229  1.00  0.00    -0.455 C  
BRANCH  22  23
HETATM   23  C   UNL     1     -10.299   5.145  70.125  1.00  0.00    -0.340 C  
BRANCH  23  24
HETATM   24  C   UNL     1      -9.092   5.471  69.245  1.00  0.00    -0.132 C  
HETATM   25  C   UNL     1      -8.837   4.386  68.224  1.00  0.00    -0.105 C  
HETATM   26  O   UNL     1      -9.495   3.368  68.093  1.00  0.00    -0.183 OA 
HETATM   27  O   UNL     1      -7.768   4.662  67.444  1.00  0.00    -0.088 OA 
ENDBRANCH  23  24
ENDBRANCH  22  23
ENDBRANCH  21  22
ENDBRANCH  20  21
ENDBRANCH  19  20
ENDBRANCH  18  19
ENDBRANCH  10  11
ENDBRANCH   6   9
ENDBRANCH   5   6
ENDBRANCH   4   5
ENDBRANCH   3   4
ENDBRANCH   2   3
TORSDOF 12
ENDMDL
MODEL      271
REMARK 921   NORMALIZED FREE ENERGY PREDICTED BY IDOCK:   -3.65 KCAL/MOL
REMARK 922        TOTAL FREE ENERGY PREDICTED BY IDOCK:   -8.16 KCAL/MOL
REMARK 923 INTER-LIGAND FREE ENERGY PREDICTED BY IDOCK:   -7.63 KCAL/MOL
REMARK 924 INTRA-LIGAND FREE ENERGY PREDICTED BY IDOCK:   -0.53 KCAL/MOL
REMARK 927      BINDING AFFINITY PREDICTED BY RF-SCORE:    0.00 PKD
ROOT
HETATM    1  C   UNL     1     -12.660  15.749  72.877  1.00  0.00    -0.571 C  
HETATM    2  C   UNL     1     -12.521  15.813  71.367  1.00  0.00    -0.513 C  
ENDROOT
BRANCH   2   3
HETATM    3  C   UNL     1     -13.319  14.709  70.670  1.00  0.00    -0.181 C  
BRANCH   3   4
HETATM    4  C   UNL     1     -12.454  14.025  69.613  1.00  0.00    -0.204 C  
BRANCH   4   5
HETATM    5  C   UNL     1     -11.981  12.636  70.048  1.00  0.00    -0.377 C  
BRANCH   5   6
HETATM    6  C   UNL     1     -11.640  11.715  68.865  1.00  0.00    -0.314 C  
HETATM    7  O   UNL     1     -10.380  11.113  69.146  1.00  0.00    -0.270 OA 
HETATM    8  H   UNL     1     -10.170  10.543  68.415  1.00  0.00     0.000 HD 
BRANCH   6   9
HETATM    9  C   UNL     1     -11.604  12.446  67.540  1.00  0.00    -0.431 C  
HETATM   10  C   UNL     1     -11.092  12.001  66.381  1.00  0.00    -0.365 C  
BRANCH  10  11
HETATM   11  C   UNL     1     -10.948  12.847  65.134  1.00  0.00    -0.316 C  
HETATM   12  C   UNL     1     -12.117  12.562  64.167  1.00  0.00    -0.447 C  
HETATM   13  O   UNL     1     -11.918  11.367  63.424  1.00  0.00    -0.734 OA 
HETATM   14  C   UNL     1     -12.179  13.760  63.243  1.00  0.00     0.039 C  
HETATM   15  H   UNL     1     -12.638  11.192  62.829  1.00  0.00     0.000 HD 
HETATM   16  C   UNL     1     -11.776  14.862  64.172  1.00  0.00    -0.128 C  
HETATM   17  O   UNL     1     -12.055  16.036  63.956  1.00  0.00    -0.810 OA 
HETATM   18  C   UNL     1     -10.989  14.375  65.380  1.00  0.00    -0.343 C  
BRANCH  18  19
HETATM   19  C   UNL     1      -9.570  14.972  65.438  1.00  0.00    -0.112 C  
BRANCH  19  20
HETATM   20  C   UNL     1      -9.465  16.257  66.271  1.00  0.00    -0.347 C  
BRANCH  20  21
HETATM   21  C   UNL     1      -8.422  17.225  65.705  1.00  0.00     0.213 C  
BRANCH  21  22
HETATM   22  C   UNL     1      -8.356  18.508  66.539  1.00  0.00    -0.297 C  
BRANCH  22  23
HETATM   23  C   UNL     1      -8.765  18.253  67.990  1.00  0.00    -0.287 C  
BRANCH  23  24
HETATM   24  C   UNL     1      -7.766  17.344  68.707  1.00  0.00    -0.258 C  
HETATM   25  C   UNL     1      -8.438  16.112  69.270  1.00  0.00    -0.187 C  
HETATM   26  O   UNL     1      -9.624  15.847  69.177  1.00  0.00    -0.222 OA 
HETATM   27  O   UNL     1      -7.564  15.304  69.912  1.00  0.00    -0.169 OA 
ENDBRANCH  23  24
ENDBRANCH  22  23
ENDBRANCH  21  22
ENDBRANCH  20  21
ENDBRANCH  19  20
ENDBRANCH  18  19
ENDBRANCH  10  11
ENDBRANCH   6   9
ENDBRANCH   5   6
ENDBRANCH   4   5
ENDBRANCH   3   4
ENDBRANCH   2   3
TORSDOF 12
ENDMDL
MODEL      272
REMARK 921   NORMALIZED FREE ENERGY PREDICTED BY IDOCK:   -3.64 KCAL/MOL
REMARK 922        TOTAL FREE ENERGY PREDICTED BY IDOCK:   -8.15 KCAL/MOL
REMARK 923 INTER-LIGAND FREE ENERGY PREDICTED BY IDOCK:   -6.08 KCAL/MOL
REMARK 924 INTRA-LIGAND FREE ENERGY PREDICTED BY IDOCK:   -2.07 KCAL/MOL
REMARK 927      BINDING AFFINITY PREDICTED BY RF-SCORE:    0.00 PKD
ROOT
HETATM    1  C   UNL     1      -6.260  10.083  64.605  1.00  0.00    -0.124 C  
HETATM    2  C   UNL     1      -6.579   8.619  64.361  1.00  0.00    -0.070 C  
ENDROOT
BRANCH   2   3
HETATM    3  C   UNL     1      -7.769   8.144  65.197  1.00  0.00    -0.107 C  
BRANCH   3   4
HETATM    4  C   UNL     1      -8.095   9.174  66.277  1.00  0.00    -0.111 C  
BRANCH   4   5
HETATM    5  C   UNL     1      -9.157   8.678  67.262  1.00  0.00    -0.152 C  
BRANCH   5   6
HETATM    6  C   UNL     1      -8.885   9.111  68.712  1.00  0.00    -0.132 C  
HETATM    7  O   UNL     1      -8.667   7.928  69.474  1.00  0.00    -0.133 OA 
HETATM    8  H   UNL     1      -8.499   8.196  70.370  1.00  0.00     0.000 HD 
BRANCH   6   9
HETATM    9  C   UNL     1     -10.011   9.932  69.303  1.00  0.00    -0.217 C  
HETATM   10  C   UNL     1     -11.072  10.441  68.655  1.00  0.00    -0.313 C  
BRANCH  10  11
HETATM   11  C   UNL     1     -12.077  11.386  69.277  1.00  0.00    -0.356 C  
HETATM   12  C   UNL     1     -12.380  10.952  70.727  1.00  0.00    -0.390 C  
HETATM   13  O   UNL     1     -13.304   9.873  70.780  1.00  0.00    -0.593 OA 
HETATM   14  C   UNL     1     -12.951  12.178  71.406  1.00  0.00    -0.357 C  
HETATM   15  H   UNL     1     -13.490   9.606  71.673  1.00  0.00     0.000 HD 
HETATM   16  C   UNL     1     -12.177  13.268  70.733  1.00  0.00    -0.308 C  
HETATM   17  O   UNL     1     -12.040  14.378  71.233  1.00  0.00    -0.331 OA 
HETATM   18  C   UNL     1     -11.604  12.856  69.385  1.00  0.00    -0.363 C  
BRANCH  18  19
HETATM   19  C   UNL     1     -12.153  13.709  68.226  1.00  0.00    -0.306 C  
BRANCH  19  20
HETATM   20  C   UNL     1     -11.395  15.025  68.004  1.00  0.00    -0.339 C  
BRANCH  20  21
HETATM   21  C   UNL     1     -10.636  15.035  66.674  1.00  0.00    -0.301 C  
BRANCH  21  22
HETATM   22  C   UNL     1      -9.704  13.824  66.566  1.00  0.00    -0.301 C  
BRANCH  22  23
HETATM   23  C   UNL     1      -8.380  14.074  67.288  1.00  0.00    -0.209 C  
BRANCH  23  24
HETATM   24  C   UNL     1      -7.976  12.881  68.157  1.00  0.00    -0.153 C  
HETATM   25  C   UNL     1      -6.608  12.358  67.783  1.00  0.00    -0.113 C  
HETATM   26  O   UNL     1      -5.891  12.809  66.906  1.00  0.00    -0.256 OA 
HETATM   27  O   UNL     1      -6.243  11.299  68.542  1.00  0.00    -0.046 OA 
ENDBRANCH  23  24
ENDBRANCH  22  23
ENDBRANCH  21  22
ENDBRANCH  20  21
ENDBRANCH  19  20
ENDBRANCH  18  19
ENDBRANCH  10  11
ENDBRANCH   6   9
ENDBRANCH   5   6
ENDBRANCH   4   5
ENDBRANCH   3   4
ENDBRANCH   2   3
TORSDOF 12
ENDMDL
MODEL      273
REMARK 921   NORMALIZED FREE ENERGY PREDICTED BY IDOCK:   -3.64 KCAL/MOL
REMARK 922        TOTAL FREE ENERGY PREDICTED BY IDOCK:   -8.14 KCAL/MOL
REMARK 923 INTER-LIGAND FREE ENERGY PREDICTED BY IDOCK:   -6.68 KCAL/MOL
REMARK 924 INTRA-LIGAND FREE ENERGY PREDICTED BY IDOCK:   -1.46 KCAL/MOL
REMARK 927      BINDING AFFINITY PREDICTED BY RF-SCORE:    0.00 PKD
ROOT
HETATM    1  C   UNL     1     -10.490  17.487  67.160  1.00  0.00    -0.312 C  
HETATM    2  C   UNL     1      -9.836  17.512  68.529  1.00  0.00    -0.330 C  
ENDROOT
BRANCH   2   3
HETATM    3  C   UNL     1      -9.212  16.163  68.892  1.00  0.00    -0.234 C  
BRANCH   3   4
HETATM    4  C   UNL     1      -9.955  15.544  70.076  1.00  0.00    -0.178 C  
BRANCH   4   5
HETATM    5  C   UNL     1     -11.471  15.725  69.979  1.00  0.00    -0.359 C  
BRANCH   5   6
HETATM    6  C   UNL     1     -12.230  14.395  69.831  1.00  0.00    -0.340 C  
HETATM    7  O   UNL     1     -12.063  13.675  71.048  1.00  0.00    -0.425 OA 
HETATM    8  H   UNL     1     -12.532  12.854  70.957  1.00  0.00     0.000 HD 
BRANCH   6   9
HETATM    9  C   UNL     1     -11.759  13.575  68.650  1.00  0.00    -0.389 C  
HETATM   10  C   UNL     1     -11.543  12.250  68.616  1.00  0.00    -0.372 C  
BRANCH  10  11
HETATM   11  C   UNL     1     -10.920  11.518  67.447  1.00  0.00    -0.317 C  
HETATM   12  C   UNL     1     -11.088  12.348  66.156  1.00  0.00    -0.302 C  
HETATM   13  O   UNL     1     -12.388  12.211  65.599  1.00  0.00    -0.560 OA 
HETATM   14  C   UNL     1     -10.038  11.826  65.199  1.00  0.00    -0.298 C  
HETATM   15  H   UNL     1     -12.492  12.722  64.804  1.00  0.00     0.000 HD 
HETATM   16  C   UNL     1      -8.926  11.492  66.144  1.00  0.00    -0.197 C  
HETATM   17  O   UNL     1      -7.761  11.401  65.777  1.00  0.00     0.116 OA 
HETATM   18  C   UNL     1      -9.396  11.272  67.574  1.00  0.00    -0.166 C  
BRANCH  18  19
HETATM   19  C   UNL     1      -9.098   9.848  68.080  1.00  0.00    -0.121 C  
BRANCH  19  20
HETATM   20  C   UNL     1      -9.756   8.738  67.249  1.00  0.00    -0.238 C  
BRANCH  20  21
HETATM   21  C   UNL     1     -10.963   8.123  67.963  1.00  0.00     0.122 C  
BRANCH  21  22
HETATM   22  C   UNL     1     -10.528   7.370  69.224  1.00  0.00    -0.222 C  
BRANCH  22  23
HETATM   23  C   UNL     1     -10.934   8.124  70.491  1.00  0.00    -0.248 C  
BRANCH  23  24
HETATM   24  C   UNL     1      -9.713   8.604  71.278  1.00  0.00    -0.305 C  
HETATM   25  C   UNL     1      -9.803   8.214  72.736  1.00  0.00    -0.283 C  
HETATM   26  O   UNL     1     -10.718   7.593  73.249  1.00  0.00    -0.386 OA 
HETATM   27  O   UNL     1      -8.731   8.639  73.443  1.00  0.00    -0.333 OA 
ENDBRANCH  23  24
ENDBRANCH  22  23
ENDBRANCH  21  22
ENDBRANCH  20  21
ENDBRANCH  19  20
ENDBRANCH  18  19
ENDBRANCH  10  11
ENDBRANCH   6   9
ENDBRANCH   5   6
ENDBRANCH   4   5
ENDBRANCH   3   4
ENDBRANCH   2   3
TORSDOF 12
ENDMDL
MODEL      274
REMARK 921   NORMALIZED FREE ENERGY PREDICTED BY IDOCK:   -3.63 KCAL/MOL
REMARK 922        TOTAL FREE ENERGY PREDICTED BY IDOCK:   -8.13 KCAL/MOL
REMARK 923 INTER-LIGAND FREE ENERGY PREDICTED BY IDOCK:   -6.38 KCAL/MOL
REMARK 924 INTRA-LIGAND FREE ENERGY PREDICTED BY IDOCK:   -1.75 KCAL/MOL
REMARK 927      BINDING AFFINITY PREDICTED BY RF-SCORE:    0.00 PKD
ROOT
HETATM    1  C   UNL     1     -12.523  12.109  63.353  1.00  0.00    -0.625 C  
HETATM    2  C   UNL     1     -11.036  12.369  63.515  1.00  0.00    -0.506 C  
ENDROOT
BRANCH   2   3
HETATM    3  C   UNL     1     -10.600  12.313  64.981  1.00  0.00    -0.322 C  
BRANCH   3   4
HETATM    4  C   UNL     1     -11.826  12.292  65.892  1.00  0.00    -0.420 C  
BRANCH   4   5
HETATM    5  C   UNL     1     -11.801  13.408  66.939  1.00  0.00    -0.453 C  
BRANCH   5   6
HETATM    6  C   UNL     1     -11.645  12.885  68.377  1.00  0.00    -0.333 C  
HETATM    7  O   UNL     1     -10.684  13.712  69.026  1.00  0.00    -0.318 OA 
HETATM    8  H   UNL     1     -10.588  13.388  69.914  1.00  0.00     0.000 HD 
BRANCH   6   9
HETATM    9  C   UNL     1     -11.230  11.431  68.433  1.00  0.00    -0.324 C  
HETATM   10  C   UNL     1      -9.985  10.946  68.576  1.00  0.00    -0.188 C  
BRANCH  10  11
HETATM   11  C   UNL     1      -9.624   9.480  68.465  1.00  0.00    -0.150 C  
HETATM   12  C   UNL     1      -9.858   8.777  69.819  1.00  0.00    -0.186 C  
HETATM   13  O   UNL     1      -8.794   9.009  70.733  1.00  0.00    -0.194 OA 
HETATM   14  C   UNL     1      -9.972   7.303  69.494  1.00  0.00    -0.170 C  
HETATM   15  H   UNL     1      -8.939   8.575  71.566  1.00  0.00     0.000 HD 
HETATM   16  C   UNL     1     -10.647   7.352  68.160  1.00  0.00    -0.162 C  
HETATM   17  O   UNL     1     -11.270   6.398  67.706  1.00  0.00    -0.323 OA 
HETATM   18  C   UNL     1     -10.468   8.681  67.442  1.00  0.00    -0.351 C  
BRANCH  18  19
HETATM   19  C   UNL     1      -9.727   8.531  66.100  1.00  0.00    -0.259 C  
BRANCH  19  20
HETATM   20  C   UNL     1      -8.247   8.153  66.240  1.00  0.00    -0.114 C  
BRANCH  20  21
HETATM   21  C   UNL     1      -7.796   7.176  65.151  1.00  0.00    -0.124 C  
BRANCH  21  22
HETATM   22  C   UNL     1      -8.530   5.837  65.278  1.00  0.00    -0.148 C  
BRANCH  22  23
HETATM   23  C   UNL     1      -8.566   5.092  63.944  1.00  0.00    -0.085 C  
BRANCH  23  24
HETATM   24  C   UNL     1      -8.407   3.583  64.134  1.00  0.00    -0.090 C  
HETATM   25  C   UNL     1      -9.722   2.858  63.960  1.00  0.00    -0.151 C  
HETATM   26  O   UNL     1     -10.791   3.382  63.698  1.00  0.00    -0.260 OA 
HETATM   27  O   UNL     1      -9.594   1.523  64.132  1.00  0.00    -0.127 OA 
ENDBRANCH  23  24
ENDBRANCH  22  23
ENDBRANCH  21  22
ENDBRANCH  20  21
ENDBRANCH  19  20
ENDBRANCH  18  19
ENDBRANCH  10  11
ENDBRANCH   6   9
ENDBRANCH   5   6
ENDBRANCH   4   5
ENDBRANCH   3   4
ENDBRANCH   2   3
TORSDOF 12
ENDMDL
MODEL      275
REMARK 921   NORMALIZED FREE ENERGY PREDICTED BY IDOCK:   -3.62 KCAL/MOL
REMARK 922        TOTAL FREE ENERGY PREDICTED BY IDOCK:   -8.11 KCAL/MOL
REMARK 923 INTER-LIGAND FREE ENERGY PREDICTED BY IDOCK:   -6.75 KCAL/MOL
REMARK 924 INTRA-LIGAND FREE ENERGY PREDICTED BY IDOCK:   -1.36 KCAL/MOL
REMARK 927      BINDING AFFINITY PREDICTED BY RF-SCORE:    0.00 PKD
ROOT
HETATM    1  C   UNL     1      -8.831  19.393  68.602  1.00  0.00    -0.417 C  
HETATM    2  C   UNL     1     -10.217  19.359  67.982  1.00  0.00    -0.531 C  
ENDROOT
BRANCH   2   3
HETATM    3  C   UNL     1     -10.432  18.109  67.127  1.00  0.00    -0.392 C  
BRANCH   3   4
HETATM    4  C   UNL     1      -9.089  17.448  66.819  1.00  0.00    -0.276 C  
BRANCH   4   5
HETATM    5  C   UNL     1      -9.104  15.939  67.073  1.00  0.00    -0.236 C  
BRANCH   5   6
HETATM    6  C   UNL     1      -9.626  15.567  68.472  1.00  0.00    -0.203 C  
HETATM    7  O   UNL     1      -8.599  15.888  69.405  1.00  0.00    -0.256 OA 
HETATM    8  H   UNL     1      -8.921  15.658  70.269  1.00  0.00     0.000 HD 
BRANCH   6   9
HETATM    9  C   UNL     1     -10.021  14.110  68.585  1.00  0.00    -0.222 C  
HETATM   10  C   UNL     1      -9.358  13.048  68.099  1.00  0.00    -0.217 C  
BRANCH  10  11
HETATM   11  C   UNL     1      -9.892  11.632  68.112  1.00  0.00    -0.191 C  
HETATM   12  C   UNL     1     -10.527  11.296  66.747  1.00  0.00    -0.248 C  
HETATM   13  O   UNL     1     -11.839  11.830  66.622  1.00  0.00    -0.569 OA 
HETATM   14  C   UNL     1     -10.556   9.784  66.674  1.00  0.00    -0.178 C  
HETATM   15  H   UNL     1     -12.230  11.623  65.781  1.00  0.00     0.000 HD 
HETATM   16  C   UNL     1      -9.299   9.436  67.407  1.00  0.00    -0.126 C  
HETATM   17  O   UNL     1      -8.733   8.358  67.261  1.00  0.00    -0.125 OA 
HETATM   18  C   UNL     1      -8.819  10.538  68.340  1.00  0.00    -0.140 C  
BRANCH  18  19
HETATM   19  C   UNL     1      -8.781  10.088  69.813  1.00  0.00    -0.198 C  
BRANCH  19  20
HETATM   20  C   UNL     1     -10.148   9.681  70.379  1.00  0.00    -0.336 C  
BRANCH  20  21
HETATM   21  C   UNL     1     -10.205   8.191  70.728  1.00  0.00    -0.215 C  
BRANCH  21  22
HETATM   22  C   UNL     1     -11.552   7.828  71.361  1.00  0.00    -0.305 C  
BRANCH  22  23
HETATM   23  C   UNL     1     -11.450   7.750  72.884  1.00  0.00    -0.359 C  
BRANCH  23  24
HETATM   24  C   UNL     1     -10.177   7.029  73.330  1.00  0.00    -0.309 C  
HETATM   25  C   UNL     1     -10.417   5.549  73.532  1.00  0.00    -0.253 C  
HETATM   26  O   UNL     1     -11.480   4.975  73.368  1.00  0.00    -0.323 OA 
HETATM   27  O   UNL     1      -9.299   4.903  73.932  1.00  0.00    -0.123 OA 
ENDBRANCH  23  24
ENDBRANCH  22  23
ENDBRANCH  21  22
ENDBRANCH  20  21
ENDBRANCH  19  20
ENDBRANCH  18  19
ENDBRANCH  10  11
ENDBRANCH   6   9
ENDBRANCH   5   6
ENDBRANCH   4   5
ENDBRANCH   3   4
ENDBRANCH   2   3
TORSDOF 12
ENDMDL
MODEL      276
REMARK 921   NORMALIZED FREE ENERGY PREDICTED BY IDOCK:   -3.62 KCAL/MOL
REMARK 922        TOTAL FREE ENERGY PREDICTED BY IDOCK:   -8.10 KCAL/MOL
REMARK 923 INTER-LIGAND FREE ENERGY PREDICTED BY IDOCK:   -6.82 KCAL/MOL
REMARK 924 INTRA-LIGAND FREE ENERGY PREDICTED BY IDOCK:   -1.29 KCAL/MOL
REMARK 927      BINDING AFFINITY PREDICTED BY RF-SCORE:    0.00 PKD
ROOT
HETATM    1  C   UNL     1     -12.384  15.583  70.615  1.00  0.00    -0.462 C  
HETATM    2  C   UNL     1     -12.308  14.655  71.814  1.00  0.00    -0.415 C  
ENDROOT
BRANCH   2   3
HETATM    3  C   UNL     1     -13.686  14.130  72.221  1.00  0.00    -0.623 C  
BRANCH   3   4
HETATM    4  C   UNL     1     -13.746  12.615  72.035  1.00  0.00    -0.301 C  
BRANCH   4   5
HETATM    5  C   UNL     1     -12.461  12.046  71.428  1.00  0.00    -0.240 C  
BRANCH   5   6
HETATM    6  C   UNL     1     -12.614  10.594  70.944  1.00  0.00    -0.407 C  
HETATM    7  O   UNL     1     -12.640   9.762  72.100  1.00  0.00    -0.358 OA 
HETATM    8  H   UNL     1     -12.734   8.865  71.800  1.00  0.00     0.000 HD 
BRANCH   6   9
HETATM    9  C   UNL     1     -11.510  10.168  70.000  1.00  0.00    -0.344 C  
HETATM   10  C   UNL     1     -10.191  10.145  70.250  1.00  0.00    -0.180 C  
BRANCH  10  11
HETATM   11  C   UNL     1      -9.131   9.859  69.208  1.00  0.00    -0.196 C  
HETATM   12  C   UNL     1      -7.727  10.062  69.816  1.00  0.00    -0.168 C  
HETATM   13  O   UNL     1      -7.359  11.434  69.867  1.00  0.00    -0.335 OA 
HETATM   14  C   UNL     1      -6.783   9.289  68.920  1.00  0.00    -0.052 C  
HETATM   15  H   UNL     1      -6.495  11.558  70.241  1.00  0.00     0.000 HD 
HETATM   16  C   UNL     1      -7.643   8.130  68.524  1.00  0.00    -0.104 C  
HETATM   17  O   UNL     1      -7.172   7.073  68.120  1.00  0.00    -0.085 OA 
HETATM   18  C   UNL     1      -9.132   8.409  68.665  1.00  0.00    -0.140 C  
BRANCH  18  19
HETATM   19  C   UNL     1      -9.879   8.314  67.321  1.00  0.00    -0.258 C  
BRANCH  19  20
HETATM   20  C   UNL     1     -11.147   7.450  67.370  1.00  0.00    -0.066 C  
BRANCH  20  21
HETATM   21  C   UNL     1     -10.914   6.129  68.109  1.00  0.00    -0.398 C  
BRANCH  21  22
HETATM   22  C   UNL     1     -11.368   6.230  69.568  1.00  0.00    -0.475 C  
BRANCH  22  23
HETATM   23  C   UNL     1     -10.181   6.150  70.529  1.00  0.00    -0.251 C  
BRANCH  23  24
HETATM   24  C   UNL     1     -10.638   6.052  71.985  1.00  0.00    -0.267 C  
HETATM   25  C   UNL     1     -10.031   7.147  72.834  1.00  0.00    -0.197 C  
HETATM   26  O   UNL     1      -9.272   8.014  72.436  1.00  0.00    -0.161 OA 
HETATM   27  O   UNL     1     -10.424   7.066  74.125  1.00  0.00    -0.335 OA 
ENDBRANCH  23  24
ENDBRANCH  22  23
ENDBRANCH  21  22
ENDBRANCH  20  21
ENDBRANCH  19  20
ENDBRANCH  18  19
ENDBRANCH  10  11
ENDBRANCH   6   9
ENDBRANCH   5   6
ENDBRANCH   4   5
ENDBRANCH   3   4
ENDBRANCH   2   3
TORSDOF 12
ENDMDL
MODEL      277
REMARK 921   NORMALIZED FREE ENERGY PREDICTED BY IDOCK:   -3.61 KCAL/MOL
REMARK 922        TOTAL FREE ENERGY PREDICTED BY IDOCK:   -8.10 KCAL/MOL
REMARK 923 INTER-LIGAND FREE ENERGY PREDICTED BY IDOCK:   -7.06 KCAL/MOL
REMARK 924 INTRA-LIGAND FREE ENERGY PREDICTED BY IDOCK:   -1.04 KCAL/MOL
REMARK 927      BINDING AFFINITY PREDICTED BY RF-SCORE:    0.00 PKD
ROOT
HETATM    1  C   UNL     1     -11.139  11.775  63.461  1.00  0.00    -0.503 C  
HETATM    2  C   UNL     1     -10.761  13.189  63.863  1.00  0.00    -0.229 C  
ENDROOT
BRANCH   2   3
HETATM    3  C   UNL     1     -11.686  13.743  64.949  1.00  0.00    -0.378 C  
BRANCH   3   4
HETATM    4  C   UNL     1     -12.159  12.612  65.861  1.00  0.00    -0.459 C  
BRANCH   4   5
HETATM    5  C   UNL     1     -11.527  12.674  67.253  1.00  0.00    -0.402 C  
BRANCH   5   6
HETATM    6  C   UNL     1     -10.651  11.451  67.575  1.00  0.00    -0.213 C  
HETATM    7  O   UNL     1     -10.614  10.639  66.406  1.00  0.00    -0.233 OA 
HETATM    8  H   UNL     1     -10.073   9.883  66.605  1.00  0.00     0.000 HD 
BRANCH   6   9
HETATM    9  C   UNL     1     -11.154  10.663  68.764  1.00  0.00    -0.316 C  
HETATM   10  C   UNL     1     -11.337  11.111  70.017  1.00  0.00    -0.326 C  
BRANCH  10  11
HETATM   11  C   UNL     1     -11.693  10.228  71.194  1.00  0.00    -0.430 C  
HETATM   12  C   UNL     1     -13.176  10.427  71.573  1.00  0.00    -0.386 C  
HETATM   13  O   UNL     1     -13.376  11.603  72.346  1.00  0.00    -0.592 OA 
HETATM   14  C   UNL     1     -13.561   9.195  72.364  1.00  0.00    -0.544 C  
HETATM   15  H   UNL     1     -14.289  11.725  72.579  1.00  0.00     0.000 HD 
HETATM   16  C   UNL     1     -12.741   8.145  71.681  1.00  0.00    -0.321 C  
HETATM   17  O   UNL     1     -13.022   6.954  71.740  1.00  0.00    -0.363 OA 
HETATM   18  C   UNL     1     -11.542   8.709  70.932  1.00  0.00    -0.307 C  
BRANCH  18  19
HETATM   19  C   UNL     1     -10.203   8.176  71.477  1.00  0.00    -0.261 C  
BRANCH  19  20
HETATM   20  C   UNL     1      -8.997   9.069  71.157  1.00  0.00    -0.303 C  
BRANCH  20  21
HETATM   21  C   UNL     1      -8.278   8.627  69.879  1.00  0.00    -0.121 C  
BRANCH  21  22
HETATM   22  C   UNL     1      -6.967   7.906  70.209  1.00  0.00    -0.049 C  
BRANCH  22  23
HETATM   23  C   UNL     1      -7.226   6.562  70.890  1.00  0.00    -0.071 C  
BRANCH  23  24
HETATM   24  C   UNL     1      -8.096   5.648  70.025  1.00  0.00    -0.106 C  
HETATM   25  C   UNL     1      -7.261   4.650  69.256  1.00  0.00    -0.052 C  
HETATM   26  O   UNL     1      -6.046   4.559  69.300  1.00  0.00    -0.024 OA 
HETATM   27  O   UNL     1      -8.019   3.840  68.483  1.00  0.00    -0.070 OA 
ENDBRANCH  23  24
ENDBRANCH  22  23
ENDBRANCH  21  22
ENDBRANCH  20  21
ENDBRANCH  19  20
ENDBRANCH  18  19
ENDBRANCH  10  11
ENDBRANCH   6   9
ENDBRANCH   5   6
ENDBRANCH   4   5
ENDBRANCH   3   4
ENDBRANCH   2   3
TORSDOF 12
ENDMDL
MODEL      278
REMARK 921   NORMALIZED FREE ENERGY PREDICTED BY IDOCK:   -3.61 KCAL/MOL
REMARK 922        TOTAL FREE ENERGY PREDICTED BY IDOCK:   -8.10 KCAL/MOL
REMARK 923 INTER-LIGAND FREE ENERGY PREDICTED BY IDOCK:   -6.42 KCAL/MOL
REMARK 924 INTRA-LIGAND FREE ENERGY PREDICTED BY IDOCK:   -1.67 KCAL/MOL
REMARK 927      BINDING AFFINITY PREDICTED BY RF-SCORE:    0.00 PKD
ROOT
HETATM    1  C   UNL     1     -11.745  14.646  68.594  1.00  0.00    -0.362 C  
HETATM    2  C   UNL     1     -11.926  14.436  67.102  1.00  0.00    -0.419 C  
ENDROOT
BRANCH   2   3
HETATM    3  C   UNL     1     -11.037  15.371  66.279  1.00  0.00    -0.226 C  
BRANCH   3   4
HETATM    4  C   UNL     1     -10.993  14.907  64.824  1.00  0.00    -0.390 C  
BRANCH   4   5
HETATM    5  C   UNL     1     -12.264  14.164  64.404  1.00  0.00    -0.466 C  
BRANCH   5   6
HETATM    6  C   UNL     1     -11.978  12.824  63.705  1.00  0.00    -0.510 C  
HETATM    7  O   UNL     1     -13.221  12.144  63.570  1.00  0.00    -0.744 OA 
HETATM    8  H   UNL     1     -13.044  11.315  63.138  1.00  0.00     0.000 HD 
BRANCH   6   9
HETATM    9  C   UNL     1     -10.975  11.972  64.453  1.00  0.00    -0.385 C  
HETATM   10  C   UNL     1     -11.146  11.374  65.644  1.00  0.00    -0.207 C  
BRANCH  10  11
HETATM   11  C   UNL     1     -10.046  10.667  66.406  1.00  0.00    -0.279 C  
HETATM   12  C   UNL     1      -9.231  11.690  67.226  1.00  0.00    -0.170 C  
HETATM   13  O   UNL     1      -8.283  12.382  66.426  1.00  0.00    -0.396 OA 
HETATM   14  C   UNL     1      -8.536  10.884  68.303  1.00  0.00    -0.139 C  
HETATM   15  H   UNL     1      -7.781  13.012  66.931  1.00  0.00     0.000 HD 
HETATM   16  C   UNL     1      -9.561   9.831  68.583  1.00  0.00    -0.151 C  
HETATM   17  O   UNL     1      -9.583   9.202  69.635  1.00  0.00    -0.165 OA 
HETATM   18  C   UNL     1     -10.541   9.624  67.438  1.00  0.00    -0.333 C  
BRANCH  18  19
HETATM   19  C   UNL     1     -10.483   8.195  66.863  1.00  0.00    -0.379 C  
BRANCH  19  20
HETATM   20  C   UNL     1      -9.059   7.659  66.661  1.00  0.00    -0.198 C  
BRANCH  20  21
HETATM   21  C   UNL     1      -9.014   6.518  65.641  1.00  0.00    -0.007 C  
BRANCH  21  22
HETATM   22  C   UNL     1      -7.590   5.973  65.491  1.00  0.00    -0.085 C  
BRANCH  22  23
HETATM   23  C   UNL     1      -6.631   7.049  64.983  1.00  0.00    -0.046 C  
BRANCH  23  24
HETATM   24  C   UNL     1      -7.090   7.629  63.644  1.00  0.00    -0.070 C  
HETATM   25  C   UNL     1      -6.853   9.121  63.572  1.00  0.00    -0.090 C  
HETATM   26  O   UNL     1      -6.359   9.803  64.453  1.00  0.00    -0.101 OA 
HETATM   27  O   UNL     1      -7.261   9.644  62.394  1.00  0.00    -0.105 OA 
ENDBRANCH  23  24
ENDBRANCH  22  23
ENDBRANCH  21  22
ENDBRANCH  20  21
ENDBRANCH  19  20
ENDBRANCH  18  19
ENDBRANCH  10  11
ENDBRANCH   6   9
ENDBRANCH   5   6
ENDBRANCH   4   5
ENDBRANCH   3   4
ENDBRANCH   2   3
TORSDOF 12
ENDMDL
MODEL      279
REMARK 921   NORMALIZED FREE ENERGY PREDICTED BY IDOCK:   -3.60 KCAL/MOL
REMARK 922        TOTAL FREE ENERGY PREDICTED BY IDOCK:   -8.07 KCAL/MOL
REMARK 923 INTER-LIGAND FREE ENERGY PREDICTED BY IDOCK:   -7.02 KCAL/MOL
REMARK 924 INTRA-LIGAND FREE ENERGY PREDICTED BY IDOCK:   -1.05 KCAL/MOL
REMARK 927      BINDING AFFINITY PREDICTED BY RF-SCORE:    0.00 PKD
ROOT
HETATM    1  C   UNL     1      -8.229   3.680  70.683  1.00  0.00    -0.073 C  
HETATM    2  C   UNL     1      -9.332   4.322  69.862  1.00  0.00    -0.232 C  
ENDROOT
BRANCH   2   3
HETATM    3  C   UNL     1      -9.301   5.849  69.955  1.00  0.00    -0.171 C  
BRANCH   3   4
HETATM    4  C   UNL     1     -10.584   6.436  69.369  1.00  0.00    -0.310 C  
BRANCH   4   5
HETATM    5  C   UNL     1     -10.314   7.422  68.230  1.00  0.00    -0.231 C  
BRANCH   5   6
HETATM    6  C   UNL     1     -10.359   8.892  68.681  1.00  0.00    -0.204 C  
HETATM    7  O   UNL     1     -11.396   9.006  69.650  1.00  0.00    -0.439 OA 
HETATM    8  H   UNL     1     -11.424   9.915  69.928  1.00  0.00     0.000 HD 
BRANCH   6   9
HETATM    9  C   UNL     1     -10.585   9.853  67.534  1.00  0.00    -0.333 C  
HETATM   10  C   UNL     1      -9.708  10.195  66.576  1.00  0.00    -0.252 C  
BRANCH  10  11
HETATM   11  C   UNL     1      -9.948  11.282  65.550  1.00  0.00    -0.293 C  
HETATM   12  C   UNL     1     -10.545  10.671  64.265  1.00  0.00    -0.012 C  
HETATM   13  O   UNL     1      -9.551  10.068  63.448  1.00  0.00    -0.387 OA 
HETATM   14  C   UNL     1     -11.207  11.823  63.539  1.00  0.00    -0.494 C  
HETATM   15  H   UNL     1      -9.919   9.692  62.657  1.00  0.00     0.000 HD 
HETATM   16  C   UNL     1     -11.702  12.643  64.688  1.00  0.00    -0.357 C  
HETATM   17  O   UNL     1     -12.613  13.454  64.569  1.00  0.00    -0.601 OA 
HETATM   18  C   UNL     1     -10.957  12.373  65.987  1.00  0.00    -0.324 C  
BRANCH  18  19
HETATM   19  C   UNL     1     -10.234  13.623  66.523  1.00  0.00    -0.284 C  
BRANCH  19  20
HETATM   20  C   UNL     1      -8.836  13.342  67.091  1.00  0.00    -0.225 C  
BRANCH  20  21
HETATM   21  C   UNL     1      -8.333  14.488  67.974  1.00  0.00    -0.153 C  
BRANCH  21  22
HETATM   22  C   UNL     1      -9.350  14.824  69.069  1.00  0.00    -0.160 C  
BRANCH  22  23
HETATM   23  C   UNL     1      -9.958  16.211  68.860  1.00  0.00    -0.233 C  
BRANCH  23  24
HETATM   24  C   UNL     1      -9.047  17.106  68.018  1.00  0.00    -0.240 C  
HETATM   25  C   UNL     1      -9.681  17.452  66.690  1.00  0.00    -0.290 C  
HETATM   26  O   UNL     1     -10.778  17.081  66.310  1.00  0.00    -0.223 OA 
HETATM   27  O   UNL     1      -8.881  18.239  65.935  1.00  0.00    -0.501 OA 
ENDBRANCH  23  24
ENDBRANCH  22  23
ENDBRANCH  21  22
ENDBRANCH  20  21
ENDBRANCH  19  20
ENDBRANCH  18  19
ENDBRANCH  10  11
ENDBRANCH   6   9
ENDBRANCH   5   6
ENDBRANCH   4   5
ENDBRANCH   3   4
ENDBRANCH   2   3
TORSDOF 12
ENDMDL
MODEL      280
REMARK 921   NORMALIZED FREE ENERGY PREDICTED BY IDOCK:   -3.59 KCAL/MOL
REMARK 922        TOTAL FREE ENERGY PREDICTED BY IDOCK:   -8.06 KCAL/MOL
REMARK 923 INTER-LIGAND FREE ENERGY PREDICTED BY IDOCK:   -6.03 KCAL/MOL
REMARK 924 INTRA-LIGAND FREE ENERGY PREDICTED BY IDOCK:   -2.03 KCAL/MOL
REMARK 927      BINDING AFFINITY PREDICTED BY RF-SCORE:    0.00 PKD
ROOT
HETATM    1  C   UNL     1     -12.458  15.055  70.213  1.00  0.00    -0.385 C  
HETATM    2  C   UNL     1     -12.074  14.193  71.402  1.00  0.00    -0.306 C  
ENDROOT
BRANCH   2   3
HETATM    3  C   UNL     1     -13.274  13.436  71.974  1.00  0.00    -0.531 C  
BRANCH   3   4
HETATM    4  C   UNL     1     -13.281  11.998  71.457  1.00  0.00    -0.276 C  
BRANCH   4   5
HETATM    5  C   UNL     1     -11.935  11.580  70.860  1.00  0.00    -0.220 C  
BRANCH   5   6
HETATM    6  C   UNL     1     -11.717  10.058  70.868  1.00  0.00    -0.374 C  
HETATM    7  O   UNL     1     -10.596   9.795  71.706  1.00  0.00     0.070 OA 
HETATM    8  H   UNL     1     -10.461   8.854  71.711  1.00  0.00     0.000 HD 
BRANCH   6   9
HETATM    9  C   UNL     1     -11.501   9.486  69.484  1.00  0.00     0.064 C  
HETATM   10  C   UNL     1     -10.696   9.967  68.523  1.00  0.00    -0.264 C  
BRANCH  10  11
HETATM   11  C   UNL     1     -10.648   9.436  67.107  1.00  0.00    -0.294 C  
HETATM   12  C   UNL     1     -10.088  10.516  66.157  1.00  0.00    -0.246 C  
HETATM   13  O   UNL     1     -11.073  11.478  65.803  1.00  0.00    -0.284 OA 
HETATM   14  C   UNL     1      -9.606   9.769  64.932  1.00  0.00    -0.316 C  
HETATM   15  H   UNL     1     -10.728  12.143  65.218  1.00  0.00     0.000 HD 
HETATM   16  C   UNL     1      -9.114   8.495  65.546  1.00  0.00    -0.091 C  
HETATM   17  O   UNL     1      -8.304   7.768  64.983  1.00  0.00    -0.142 OA 
HETATM   18  C   UNL     1      -9.728   8.206  66.908  1.00  0.00    -0.291 C  
BRANCH  18  19
HETATM   19  C   UNL     1     -10.534   6.894  66.924  1.00  0.00    -0.349 C  
BRANCH  19  20
HETATM   20  C   UNL     1     -10.082   5.895  67.998  1.00  0.00    -0.194 C  
BRANCH  20  21
HETATM   21  C   UNL     1      -8.899   6.424  68.814  1.00  0.00    -0.124 C  
BRANCH  21  22
HETATM   22  C   UNL     1      -9.341   6.821  70.226  1.00  0.00    -0.159 C  
BRANCH  22  23
HETATM   23  C   UNL     1     -10.586   6.047  70.659  1.00  0.00    -0.322 C  
BRANCH  23  24
HETATM   24  C   UNL     1     -10.381   5.354  72.007  1.00  0.00    -0.268 C  
HETATM   25  C   UNL     1     -10.952   6.170  73.145  1.00  0.00    -0.231 C  
HETATM   26  O   UNL     1     -11.512   7.247  73.034  1.00  0.00    -0.244 OA 
HETATM   27  O   UNL     1     -10.771   5.569  74.342  1.00  0.00    -0.252 OA 
ENDBRANCH  23  24
ENDBRANCH  22  23
ENDBRANCH  21  22
ENDBRANCH  20  21
ENDBRANCH  19  20
ENDBRANCH  18  19
ENDBRANCH  10  11
ENDBRANCH   6   9
ENDBRANCH   5   6
ENDBRANCH   4   5
ENDBRANCH   3   4
ENDBRANCH   2   3
TORSDOF 12
ENDMDL
MODEL      281
REMARK 921   NORMALIZED FREE ENERGY PREDICTED BY IDOCK:   -3.57 KCAL/MOL
REMARK 922        TOTAL FREE ENERGY PREDICTED BY IDOCK:   -8.03 KCAL/MOL
REMARK 923 INTER-LIGAND FREE ENERGY PREDICTED BY IDOCK:   -6.35 KCAL/MOL
REMARK 924 INTRA-LIGAND FREE ENERGY PREDICTED BY IDOCK:   -1.68 KCAL/MOL
REMARK 927      BINDING AFFINITY PREDICTED BY RF-SCORE:    0.00 PKD
ROOT
HETATM    1  C   UNL     1     -10.292  18.300  68.527  1.00  0.00    -0.341 C  
HETATM    2  C   UNL     1     -10.673  17.106  67.670  1.00  0.00    -0.302 C  
ENDROOT
BRANCH   2   3
HETATM    3  C   UNL     1      -9.955  17.117  66.318  1.00  0.00    -0.316 C  
BRANCH   3   4
HETATM    4  C   UNL     1      -9.918  15.707  65.732  1.00  0.00    -0.390 C  
BRANCH   4   5
HETATM    5  C   UNL     1     -11.208  15.342  64.995  1.00  0.00    -0.393 C  
BRANCH   5   6
HETATM    6  C   UNL     1     -11.292  13.852  64.625  1.00  0.00    -0.375 C  
HETATM    7  O   UNL     1     -12.672  13.525  64.496  1.00  0.00    -0.635 OA 
HETATM    8  H   UNL     1     -12.724  12.603  64.267  1.00  0.00     0.000 HD 
BRANCH   6   9
HETATM    9  C   UNL     1     -10.618  12.954  65.640  1.00  0.00    -0.295 C  
HETATM   10  C   UNL     1     -10.341  11.646  65.510  1.00  0.00    -0.309 C  
BRANCH  10  11
HETATM   11  C   UNL     1      -9.808  10.774  66.626  1.00  0.00    -0.241 C  
HETATM   12  C   UNL     1     -10.904   9.796  67.099  1.00  0.00    -0.136 C  
HETATM   13  O   UNL     1     -11.833  10.418  67.978  1.00  0.00    -0.746 OA 
HETATM   14  C   UNL     1     -10.170   8.675  67.804  1.00  0.00    -0.282 C  
HETATM   15  H   UNL     1     -12.507   9.815  68.269  1.00  0.00     0.000 HD 
HETATM   16  C   UNL     1      -8.915   8.596  66.993  1.00  0.00    -0.133 C  
HETATM   17  O   UNL     1      -8.213   7.592  66.968  1.00  0.00    -0.120 OA 
HETATM   18  C   UNL     1      -8.609   9.877  66.231  1.00  0.00    -0.137 C  
BRANCH  18  19
HETATM   19  C   UNL     1      -7.271  10.511  66.657  1.00  0.00    -0.119 C  
BRANCH  19  20
HETATM   20  C   UNL     1      -7.320  11.223  68.015  1.00  0.00    -0.092 C  
BRANCH  20  21
HETATM   21  C   UNL     1      -5.972  11.848  68.386  1.00  0.00    -0.049 C  
BRANCH  21  22
HETATM   22  C   UNL     1      -6.042  12.531  69.755  1.00  0.00    -0.134 C  
BRANCH  22  23
HETATM   23  C   UNL     1      -5.870  14.045  69.632  1.00  0.00    -0.109 C  
BRANCH  23  24
HETATM   24  C   UNL     1      -5.767  14.486  68.171  1.00  0.00    -0.130 C  
HETATM   25  C   UNL     1      -6.569  15.741  67.910  1.00  0.00    -0.148 C  
HETATM   26  O   UNL     1      -7.223  16.349  68.740  1.00  0.00    -0.167 OA 
HETATM   27  O   UNL     1      -6.490  16.136  66.620  1.00  0.00    -0.254 OA 
ENDBRANCH  23  24
ENDBRANCH  22  23
ENDBRANCH  21  22
ENDBRANCH  20  21
ENDBRANCH  19  20
ENDBRANCH  18  19
ENDBRANCH  10  11
ENDBRANCH   6   9
ENDBRANCH   5   6
ENDBRANCH   4   5
ENDBRANCH   3   4
ENDBRANCH   2   3
TORSDOF 12
ENDMDL
MODEL      282
REMARK 921   NORMALIZED FREE ENERGY PREDICTED BY IDOCK:   -3.56 KCAL/MOL
REMARK 922        TOTAL FREE ENERGY PREDICTED BY IDOCK:   -8.01 KCAL/MOL
REMARK 923 INTER-LIGAND FREE ENERGY PREDICTED BY IDOCK:   -6.55 KCAL/MOL
REMARK 924 INTRA-LIGAND FREE ENERGY PREDICTED BY IDOCK:   -1.46 KCAL/MOL
REMARK 927      BINDING AFFINITY PREDICTED BY RF-SCORE:    0.00 PKD
ROOT
HETATM    1  C   UNL     1      -9.167   2.649  71.032  1.00  0.00    -0.199 C  
HETATM    2  C   UNL     1      -8.298   2.193  69.873  1.00  0.00    -0.075 C  
ENDROOT
BRANCH   2   3
HETATM    3  C   UNL     1      -8.059   3.314  68.860  1.00  0.00    -0.072 C  
BRANCH   3   4
HETATM    4  C   UNL     1      -9.317   4.169  68.717  1.00  0.00    -0.222 C  
BRANCH   4   5
HETATM    5  C   UNL     1      -9.624   4.526  67.261  1.00  0.00    -0.213 C  
BRANCH   5   6
HETATM    6  C   UNL     1     -10.632   5.680  67.121  1.00  0.00    -0.270 C  
HETATM    7  O   UNL     1     -11.278   5.527  65.862  1.00  0.00    -0.743 OA 
HETATM    8  H   UNL     1     -11.901   6.240  65.776  1.00  0.00     0.000 HD 
BRANCH   6   9
HETATM    9  C   UNL     1      -9.985   7.044  67.233  1.00  0.00    -0.235 C  
HETATM   10  C   UNL     1     -10.462   8.209  66.767  1.00  0.00    -0.316 C  
BRANCH  10  11
HETATM   11  C   UNL     1      -9.689   9.511  66.775  1.00  0.00    -0.254 C  
HETATM   12  C   UNL     1      -8.933   9.665  68.112  1.00  0.00    -0.123 C  
HETATM   13  O   UNL     1      -9.783  10.121  69.156  1.00  0.00    -0.192 OA 
HETATM   14  C   UNL     1      -7.834  10.670  67.841  1.00  0.00    -0.105 C  
HETATM   15  H   UNL     1      -9.317  10.216  69.979  1.00  0.00     0.000 HD 
HETATM   16  C   UNL     1      -7.485  10.343  66.423  1.00  0.00    -0.120 C  
HETATM   17  O   UNL     1      -6.405  10.643  65.928  1.00  0.00    -0.118 OA 
HETATM   18  C   UNL     1      -8.601   9.623  65.679  1.00  0.00    -0.149 C  
BRANCH  18  19
HETATM   19  C   UNL     1      -9.109  10.422  64.463  1.00  0.00    -0.263 C  
BRANCH  19  20
HETATM   20  C   UNL     1     -10.613  10.726  64.500  1.00  0.00    -0.258 C  
BRANCH  20  21
HETATM   21  C   UNL     1     -10.958  12.011  63.742  1.00  0.00    -0.492 C  
BRANCH  21  22
HETATM   22  C   UNL     1     -10.238  13.218  64.353  1.00  0.00    -0.300 C  
BRANCH  22  23
HETATM   23  C   UNL     1     -11.141  13.970  65.331  1.00  0.00    -0.318 C  
BRANCH  23  24
HETATM   24  C   UNL     1     -11.972  13.011  66.185  1.00  0.00    -0.488 C  
HETATM   25  C   UNL     1     -11.352  12.798  67.547  1.00  0.00    -0.312 C  
HETATM   26  O   UNL     1     -10.322  13.314  67.945  1.00  0.00    -0.228 OA 
HETATM   27  O   UNL     1     -12.076  11.947  68.309  1.00  0.00    -0.485 OA 
ENDBRANCH  23  24
ENDBRANCH  22  23
ENDBRANCH  21  22
ENDBRANCH  20  21
ENDBRANCH  19  20
ENDBRANCH  18  19
ENDBRANCH  10  11
ENDBRANCH   6   9
ENDBRANCH   5   6
ENDBRANCH   4   5
ENDBRANCH   3   4
ENDBRANCH   2   3
TORSDOF 12
ENDMDL
MODEL      283
REMARK 921   NORMALIZED FREE ENERGY PREDICTED BY IDOCK:   -3.56 KCAL/MOL
REMARK 922        TOTAL FREE ENERGY PREDICTED BY IDOCK:   -8.00 KCAL/MOL
REMARK 923 INTER-LIGAND FREE ENERGY PREDICTED BY IDOCK:   -6.82 KCAL/MOL
REMARK 924 INTRA-LIGAND FREE ENERGY PREDICTED BY IDOCK:   -1.18 KCAL/MOL
REMARK 927      BINDING AFFINITY PREDICTED BY RF-SCORE:    0.00 PKD
ROOT
HETATM    1  C   UNL     1      -9.255  17.398  68.134  1.00  0.00    -0.270 C  
HETATM    2  C   UNL     1      -8.757  16.724  66.868  1.00  0.00    -0.242 C  
ENDROOT
BRANCH   2   3
HETATM    3  C   UNL     1      -9.824  16.700  65.773  1.00  0.00    -0.241 C  
BRANCH   3   4
HETATM    4  C   UNL     1     -10.816  15.567  66.032  1.00  0.00    -0.301 C  
BRANCH   4   5
HETATM    5  C   UNL     1     -11.410  14.998  64.741  1.00  0.00    -0.409 C  
BRANCH   5   6
HETATM    6  C   UNL     1     -12.530  13.974  64.991  1.00  0.00    -0.425 C  
HETATM    7  O   UNL     1     -13.125  14.296  66.244  1.00  0.00    -0.352 OA 
HETATM    8  H   UNL     1     -13.817  13.662  66.398  1.00  0.00     0.000 HD 
BRANCH   6   9
HETATM    9  C   UNL     1     -12.034  12.544  64.981  1.00  0.00    -0.478 C  
HETATM   10  C   UNL     1     -10.763  12.125  65.090  1.00  0.00    -0.333 C  
BRANCH  10  11
HETATM   11  C   UNL     1     -10.322  10.687  64.913  1.00  0.00    -0.347 C  
HETATM   12  C   UNL     1      -9.400  10.567  63.682  1.00  0.00    -0.289 C  
HETATM   13  O   UNL     1     -10.134  10.531  62.465  1.00  0.00    -0.744 OA 
HETATM   14  C   UNL     1      -8.628   9.279  63.879  1.00  0.00    -0.208 C  
HETATM   15  H   UNL     1      -9.566  10.457  61.708  1.00  0.00     0.000 HD 
HETATM   16  C   UNL     1      -8.469   9.262  65.367  1.00  0.00    -0.145 C  
HETATM   17  O   UNL     1      -7.591   8.612  65.924  1.00  0.00    -0.086 OA 
HETATM   18  C   UNL     1      -9.500  10.113  66.093  1.00  0.00    -0.238 C  
BRANCH  18  19
HETATM   19  C   UNL     1     -10.386   9.282  67.042  1.00  0.00    -0.325 C  
BRANCH  19  20
HETATM   20  C   UNL     1     -11.003  10.092  68.190  1.00  0.00    -0.313 C  
BRANCH  20  21
HETATM   21  C   UNL     1     -10.036  10.254  69.365  1.00  0.00    -0.254 C  
BRANCH  21  22
HETATM   22  C   UNL     1      -9.662   8.892  69.959  1.00  0.00    -0.187 C  
BRANCH  22  23
HETATM   23  C   UNL     1      -8.261   8.460  69.526  1.00  0.00    -0.118 C  
BRANCH  23  24
HETATM   24  C   UNL     1      -7.394   8.070  70.724  1.00  0.00    -0.057 C  
HETATM   25  C   UNL     1      -6.575   9.239  71.223  1.00  0.00    -0.056 C  
HETATM   26  O   UNL     1      -6.585  10.364  70.752  1.00  0.00    -0.327 OA 
HETATM   27  O   UNL     1      -5.800   8.904  72.279  1.00  0.00    -0.071 OA 
ENDBRANCH  23  24
ENDBRANCH  22  23
ENDBRANCH  21  22
ENDBRANCH  20  21
ENDBRANCH  19  20
ENDBRANCH  18  19
ENDBRANCH  10  11
ENDBRANCH   6   9
ENDBRANCH   5   6
ENDBRANCH   4   5
ENDBRANCH   3   4
ENDBRANCH   2   3
TORSDOF 12
ENDMDL
MODEL      284
REMARK 921   NORMALIZED FREE ENERGY PREDICTED BY IDOCK:   -3.55 KCAL/MOL
REMARK 922        TOTAL FREE ENERGY PREDICTED BY IDOCK:   -7.99 KCAL/MOL
REMARK 923 INTER-LIGAND FREE ENERGY PREDICTED BY IDOCK:   -6.51 KCAL/MOL
REMARK 924 INTRA-LIGAND FREE ENERGY PREDICTED BY IDOCK:   -1.48 KCAL/MOL
REMARK 927      BINDING AFFINITY PREDICTED BY RF-SCORE:    0.00 PKD
ROOT
HETATM    1  C   UNL     1     -10.556  16.340  66.119  1.00  0.00    -0.272 C  
HETATM    2  C   UNL     1     -10.671  15.344  64.979  1.00  0.00    -0.460 C  
ENDROOT
BRANCH   2   3
HETATM    3  C   UNL     1     -11.476  14.105  65.378  1.00  0.00    -0.325 C  
BRANCH   3   4
HETATM    4  C   UNL     1     -12.049  14.283  66.783  1.00  0.00    -0.446 C  
BRANCH   4   5
HETATM    5  C   UNL     1     -11.174  13.641  67.861  1.00  0.00    -0.300 C  
BRANCH   5   6
HETATM    6  C   UNL     1     -11.737  12.308  68.382  1.00  0.00    -0.337 C  
HETATM    7  O   UNL     1     -11.292  12.157  69.726  1.00  0.00    -0.455 OA 
HETATM    8  H   UNL     1     -11.639  11.333  70.048  1.00  0.00     0.000 HD 
BRANCH   6   9
HETATM    9  C   UNL     1     -11.319  11.122  67.540  1.00  0.00    -0.351 C  
HETATM   10  C   UNL     1     -10.164  10.967  66.873  1.00  0.00    -0.272 C  
BRANCH  10  11
HETATM   11  C   UNL     1      -9.877   9.825  65.922  1.00  0.00    -0.352 C  
HETATM   12  C   UNL     1      -9.518  10.379  64.526  1.00  0.00    -0.286 C  
HETATM   13  O   UNL     1     -10.674  10.754  63.788  1.00  0.00    -0.523 OA 
HETATM   14  C   UNL     1      -8.775   9.262  63.826  1.00  0.00    -0.190 C  
HETATM   15  H   UNL     1     -10.453  11.095  62.929  1.00  0.00     0.000 HD 
HETATM   16  C   UNL     1      -8.043   8.638  64.972  1.00  0.00    -0.143 C  
HETATM   17  O   UNL     1      -7.040   7.952  64.813  1.00  0.00    -0.067 OA 
HETATM   18  C   UNL     1      -8.676   8.933  66.324  1.00  0.00    -0.162 C  
BRANCH  18  19
HETATM   19  C   UNL     1      -9.143   7.656  67.048  1.00  0.00    -0.157 C  
BRANCH  19  20
HETATM   20  C   UNL     1     -10.651   7.392  66.940  1.00  0.00    -0.375 C  
BRANCH  20  21
HETATM   21  C   UNL     1     -10.956   5.927  66.614  1.00  0.00    -0.228 C  
BRANCH  21  22
HETATM   22  C   UNL     1      -9.668   5.149  66.329  1.00  0.00    -0.188 C  
BRANCH  22  23
HETATM   23  C   UNL     1      -9.602   3.860  67.148  1.00  0.00    -0.226 C  
BRANCH  23  24
HETATM   24  C   UNL     1      -9.516   4.146  68.648  1.00  0.00    -0.221 C  
HETATM   25  C   UNL     1      -8.088   4.099  69.142  1.00  0.00    -0.066 C  
HETATM   26  O   UNL     1      -7.108   3.867  68.456  1.00  0.00    -0.050 OA 
HETATM   27  O   UNL     1      -8.001   4.346  70.469  1.00  0.00    -0.058 OA 
ENDBRANCH  23  24
ENDBRANCH  22  23
ENDBRANCH  21  22
ENDBRANCH  20  21
ENDBRANCH  19  20
ENDBRANCH  18  19
ENDBRANCH  10  11
ENDBRANCH   6   9
ENDBRANCH   5   6
ENDBRANCH   4   5
ENDBRANCH   3   4
ENDBRANCH   2   3
TORSDOF 12
ENDMDL
MODEL      285
REMARK 921   NORMALIZED FREE ENERGY PREDICTED BY IDOCK:   -3.54 KCAL/MOL
REMARK 922        TOTAL FREE ENERGY PREDICTED BY IDOCK:   -7.97 KCAL/MOL
REMARK 923 INTER-LIGAND FREE ENERGY PREDICTED BY IDOCK:   -6.63 KCAL/MOL
REMARK 924 INTRA-LIGAND FREE ENERGY PREDICTED BY IDOCK:   -1.35 KCAL/MOL
REMARK 927      BINDING AFFINITY PREDICTED BY RF-SCORE:    0.00 PKD
ROOT
HETATM    1  C   UNL     1     -10.361  19.803  68.303  1.00  0.00    -0.536 C  
HETATM    2  C   UNL     1      -9.662  18.528  67.866  1.00  0.00    -0.339 C  
ENDROOT
BRANCH   2   3
HETATM    3  C   UNL     1      -8.307  18.811  67.214  1.00  0.00    -0.281 C  
BRANCH   3   4
HETATM    4  C   UNL     1      -8.005  17.753  66.154  1.00  0.00    -0.237 C  
BRANCH   4   5
HETATM    5  C   UNL     1      -6.718  16.978  66.447  1.00  0.00    -0.222 C  
BRANCH   5   6
HETATM    6  C   UNL     1      -6.852  16.008  67.633  1.00  0.00    -0.159 C  
HETATM    7  O   UNL     1      -5.743  15.117  67.579  1.00  0.00    -0.316 OA 
HETATM    8  H   UNL     1      -5.827  14.518  68.312  1.00  0.00     0.000 HD 
BRANCH   6   9
HETATM    9  C   UNL     1      -8.159  15.245  67.624  1.00  0.00    -0.173 C  
HETATM   10  C   UNL     1      -8.448  14.138  66.920  1.00  0.00    -0.117 C  
BRANCH  10  11
HETATM   11  C   UNL     1      -9.826  13.517  66.838  1.00  0.00    -0.257 C  
HETATM   12  C   UNL     1     -10.749  14.141  67.906  1.00  0.00    -0.240 C  
HETATM   13  O   UNL     1     -10.532  13.579  69.194  1.00  0.00    -0.420 OA 
HETATM   14  C   UNL     1     -12.160  13.863  67.433  1.00  0.00    -0.380 C  
HETATM   15  H   UNL     1     -11.100  13.963  69.851  1.00  0.00     0.000 HD 
HETATM   16  C   UNL     1     -11.992  13.955  65.949  1.00  0.00    -0.407 C  
HETATM   17  O   UNL     1     -12.933  14.175  65.196  1.00  0.00    -0.729 OA 
HETATM   18  C   UNL     1     -10.557  13.739  65.491  1.00  0.00    -0.312 C  
BRANCH  18  19
HETATM   19  C   UNL     1     -10.412  12.516  64.566  1.00  0.00    -0.366 C  
BRANCH  19  20
HETATM   20  C   UNL     1      -9.813  11.280  65.251  1.00  0.00    -0.291 C  
BRANCH  20  21
HETATM   21  C   UNL     1      -9.487  10.169  64.250  1.00  0.00    -0.366 C  
BRANCH  21  22
HETATM   22  C   UNL     1      -8.159   9.488  64.599  1.00  0.00    -0.136 C  
BRANCH  22  23
HETATM   23  C   UNL     1      -8.190   8.896  66.008  1.00  0.00    -0.117 C  
BRANCH  23  24
HETATM   24  C   UNL     1      -7.115   9.513  66.904  1.00  0.00    -0.086 C  
HETATM   25  C   UNL     1      -6.254   8.452  67.552  1.00  0.00    -0.053 C  
HETATM   26  O   UNL     1      -6.376   7.249  67.398  1.00  0.00    -0.050 OA 
HETATM   27  O   UNL     1      -5.304   8.986  68.352  1.00  0.00    -0.037 OA 
ENDBRANCH  23  24
ENDBRANCH  22  23
ENDBRANCH  21  22
ENDBRANCH  20  21
ENDBRANCH  19  20
ENDBRANCH  18  19
ENDBRANCH  10  11
ENDBRANCH   6   9
ENDBRANCH   5   6
ENDBRANCH   4   5
ENDBRANCH   3   4
ENDBRANCH   2   3
TORSDOF 12
ENDMDL
MODEL      286
REMARK 921   NORMALIZED FREE ENERGY PREDICTED BY IDOCK:   -3.53 KCAL/MOL
REMARK 922        TOTAL FREE ENERGY PREDICTED BY IDOCK:   -7.96 KCAL/MOL
REMARK 923 INTER-LIGAND FREE ENERGY PREDICTED BY IDOCK:   -7.21 KCAL/MOL
REMARK 924 INTRA-LIGAND FREE ENERGY PREDICTED BY IDOCK:   -0.75 KCAL/MOL
REMARK 927      BINDING AFFINITY PREDICTED BY RF-SCORE:    0.00 PKD
ROOT
HETATM    1  C   UNL     1     -14.258   8.525  71.923  1.00  0.00    -0.536 C  
HETATM    2  C   UNL     1     -13.014   9.395  71.871  1.00  0.00    -0.502 C  
ENDROOT
BRANCH   2   3
HETATM    3  C   UNL     1     -13.353  10.885  71.935  1.00  0.00    -0.429 C  
BRANCH   3   4
HETATM    4  C   UNL     1     -12.542  11.653  70.893  1.00  0.00    -0.409 C  
BRANCH   4   5
HETATM    5  C   UNL     1     -12.569  13.166  71.124  1.00  0.00    -0.403 C  
BRANCH   5   6
HETATM    6  C   UNL     1     -11.961  13.966  69.959  1.00  0.00    -0.336 C  
HETATM    7  O   UNL     1     -12.537  15.268  69.995  1.00  0.00    -0.543 OA 
HETATM    8  H   UNL     1     -12.162  15.762  69.275  1.00  0.00     0.000 HD 
BRANCH   6   9
HETATM    9  C   UNL     1     -12.189  13.312  68.614  1.00  0.00    -0.115 C  
HETATM   10  C   UNL     1     -11.670  13.683  67.432  1.00  0.00    -0.416 C  
BRANCH  10  11
HETATM   11  C   UNL     1     -12.065  13.081  66.101  1.00  0.00    -0.473 C  
HETATM   12  C   UNL     1     -12.473  14.198  65.117  1.00  0.00    -0.439 C  
HETATM   13  O   UNL     1     -13.799  14.654  65.347  1.00  0.00    -0.012 OA 
HETATM   14  C   UNL     1     -12.349  13.587  63.738  1.00  0.00    -0.392 C  
HETATM   15  H   UNL     1     -14.050  15.341  64.741  1.00  0.00     0.000 HD 
HETATM   16  C   UNL     1     -11.177  12.677  63.928  1.00  0.00    -0.442 C  
HETATM   17  O   UNL     1     -10.498  12.278  62.989  1.00  0.00    -0.252 OA 
HETATM   18  C   UNL     1     -10.936  12.301  65.383  1.00  0.00    -0.341 C  
BRANCH  18  19
HETATM   19  C   UNL     1     -11.057  10.785  65.628  1.00  0.00     0.153 C  
BRANCH  19  20
HETATM   20  C   UNL     1      -9.783  10.137  66.186  1.00  0.00    -0.275 C  
BRANCH  20  21
HETATM   21  C   UNL     1      -9.264  10.867  67.428  1.00  0.00    -0.155 C  
BRANCH  21  22
HETATM   22  C   UNL     1      -8.244  11.944  67.045  1.00  0.00    -0.170 C  
BRANCH  22  23
HETATM   23  C   UNL     1      -8.598  13.295  67.667  1.00  0.00    -0.196 C  
BRANCH  23  24
HETATM   24  C   UNL     1      -7.731  13.599  68.890  1.00  0.00     0.005 C  
HETATM   25  C   UNL     1      -6.275  13.761  68.513  1.00  0.00    -0.092 C  
HETATM   26  O   UNL     1      -5.820  13.669  67.386  1.00  0.00    -0.352 OA 
HETATM   27  O   UNL     1      -5.498  14.025  69.588  1.00  0.00    -0.091 OA 
ENDBRANCH  23  24
ENDBRANCH  22  23
ENDBRANCH  21  22
ENDBRANCH  20  21
ENDBRANCH  19  20
ENDBRANCH  18  19
ENDBRANCH  10  11
ENDBRANCH   6   9
ENDBRANCH   5   6
ENDBRANCH   4   5
ENDBRANCH   3   4
ENDBRANCH   2   3
TORSDOF 12
ENDMDL
MODEL      287
REMARK 921   NORMALIZED FREE ENERGY PREDICTED BY IDOCK:   -3.52 KCAL/MOL
REMARK 922        TOTAL FREE ENERGY PREDICTED BY IDOCK:   -7.94 KCAL/MOL
REMARK 923 INTER-LIGAND FREE ENERGY PREDICTED BY IDOCK:   -6.44 KCAL/MOL
REMARK 924 INTRA-LIGAND FREE ENERGY PREDICTED BY IDOCK:   -1.50 KCAL/MOL
REMARK 927      BINDING AFFINITY PREDICTED BY RF-SCORE:    0.00 PKD
ROOT
HETATM    1  C   UNL     1     -10.449  16.672  68.701  1.00  0.00    -0.323 C  
HETATM    2  C   UNL     1     -10.694  16.097  67.317  1.00  0.00    -0.277 C  
ENDROOT
BRANCH   2   3
HETATM    3  C   UNL     1     -11.629  14.887  67.356  1.00  0.00    -0.347 C  
BRANCH   3   4
HETATM    4  C   UNL     1     -12.001  14.558  68.800  1.00  0.00    -0.315 C  
BRANCH   4   5
HETATM    5  C   UNL     1     -11.199  13.381  69.361  1.00  0.00    -0.235 C  
BRANCH   5   6
HETATM    6  C   UNL     1     -11.982  12.057  69.352  1.00  0.00    -0.275 C  
HETATM    7  O   UNL     1     -11.851  11.478  70.646  1.00  0.00    -0.421 OA 
HETATM    8  H   UNL     1     -12.335  10.660  70.641  1.00  0.00     0.000 HD 
BRANCH   6   9
HETATM    9  C   UNL     1     -11.507  11.098  68.282  1.00  0.00    -0.373 C  
HETATM   10  C   UNL     1     -10.499  11.285  67.414  1.00  0.00    -0.247 C  
BRANCH  10  11
HETATM   11  C   UNL     1     -10.179  10.351  66.267  1.00  0.00    -0.286 C  
HETATM   12  C   UNL     1     -10.154  11.137  64.939  1.00  0.00    -0.289 C  
HETATM   13  O   UNL     1     -11.462  11.371  64.433  1.00  0.00    -0.225 OA 
HETATM   14  C   UNL     1      -9.355  10.283  63.978  1.00  0.00    -0.337 C  
HETATM   15  H   UNL     1     -11.446  11.855  63.615  1.00  0.00     0.000 HD 
HETATM   16  C   UNL     1      -8.348   9.673  64.903  1.00  0.00    -0.148 C  
HETATM   17  O   UNL     1      -7.281   9.221  64.503  1.00  0.00    -0.096 OA 
HETATM   18  C   UNL     1      -8.793   9.666  66.358  1.00  0.00    -0.168 C  
BRANCH  18  19
HETATM   19  C   UNL     1      -8.908   8.241  66.932  1.00  0.00    -0.155 C  
BRANCH  19  20
HETATM   20  C   UNL     1     -10.282   7.590  66.720  1.00  0.00    -0.324 C  
BRANCH  20  21
HETATM   21  C   UNL     1     -10.708   6.742  67.922  1.00  0.00    -0.320 C  
BRANCH  21  22
HETATM   22  C   UNL     1     -10.701   7.572  69.209  1.00  0.00    -0.185 C  
BRANCH  22  23
HETATM   23  C   UNL     1     -11.212   6.761  70.400  1.00  0.00    -0.378 C  
BRANCH  23  24
HETATM   24  C   UNL     1     -10.061   6.212  71.245  1.00  0.00    -0.227 C  
HETATM   25  C   UNL     1      -9.625   4.844  70.771  1.00  0.00    -0.184 C  
HETATM   26  O   UNL     1     -10.109   4.231  69.835  1.00  0.00    -0.194 OA 
HETATM   27  O   UNL     1      -8.612   4.346  71.516  1.00  0.00    -0.108 OA 
ENDBRANCH  23  24
ENDBRANCH  22  23
ENDBRANCH  21  22
ENDBRANCH  20  21
ENDBRANCH  19  20
ENDBRANCH  18  19
ENDBRANCH  10  11
ENDBRANCH   6   9
ENDBRANCH   5   6
ENDBRANCH   4   5
ENDBRANCH   3   4
ENDBRANCH   2   3
TORSDOF 12
ENDMDL
MODEL      288
REMARK 921   NORMALIZED FREE ENERGY PREDICTED BY IDOCK:   -3.51 KCAL/MOL
REMARK 922        TOTAL FREE ENERGY PREDICTED BY IDOCK:   -7.93 KCAL/MOL
REMARK 923 INTER-LIGAND FREE ENERGY PREDICTED BY IDOCK:   -6.25 KCAL/MOL
REMARK 924 INTRA-LIGAND FREE ENERGY PREDICTED BY IDOCK:   -1.68 KCAL/MOL
REMARK 927      BINDING AFFINITY PREDICTED BY RF-SCORE:    0.00 PKD
ROOT
HETATM    1  C   UNL     1     -11.322  12.869  68.496  1.00  0.00    -0.324 C  
HETATM    2  C   UNL     1     -10.939  14.303  68.817  1.00  0.00    -0.271 C  
ENDROOT
BRANCH   2   3
HETATM    3  C   UNL     1      -9.524  14.404  69.390  1.00  0.00     0.242 C  
BRANCH   3   4
HETATM    4  C   UNL     1      -8.499  14.020  68.324  1.00  0.00    -0.171 C  
BRANCH   4   5
HETATM    5  C   UNL     1      -7.236  13.394  68.922  1.00  0.00    -0.062 C  
BRANCH   5   6
HETATM    6  C   UNL     1      -6.302  14.426  69.576  1.00  0.00    -0.128 C  
HETATM    7  O   UNL     1      -6.432  14.279  70.987  1.00  0.00    -0.380 OA 
HETATM    8  H   UNL     1      -5.855  14.917  71.392  1.00  0.00     0.000 HD 
BRANCH   6   9
HETATM    9  C   UNL     1      -6.603  15.847  69.152  1.00  0.00    -0.158 C  
HETATM   10  C   UNL     1      -6.121  16.976  69.695  1.00  0.00    -0.231 C  
BRANCH  10  11
HETATM   11  C   UNL     1      -6.587  18.367  69.322  1.00  0.00    -0.257 C  
HETATM   12  C   UNL     1      -5.618  19.420  69.901  1.00  0.00    -0.231 C  
HETATM   13  O   UNL     1      -5.859  19.668  71.280  1.00  0.00    -0.232 OA 
HETATM   14  C   UNL     1      -5.848  20.674  69.084  1.00  0.00    -0.395 C  
HETATM   15  H   UNL     1      -5.262  20.316  71.635  1.00  0.00     0.000 HD 
HETATM   16  C   UNL     1      -6.149  20.091  67.739  1.00  0.00    -0.213 C  
HETATM   17  O   UNL     1      -6.022  20.735  66.703  1.00  0.00    -0.189 OA 
HETATM   18  C   UNL     1      -6.630  18.649  67.800  1.00  0.00    -0.216 C  
BRANCH  18  19
HETATM   19  C   UNL     1      -8.054  18.478  67.238  1.00  0.00    -0.245 C  
BRANCH  19  20
HETATM   20  C   UNL     1      -8.125  17.627  65.963  1.00  0.00    -0.148 C  
BRANCH  20  21
HETATM   21  C   UNL     1      -9.026  16.401  66.140  1.00  0.00    -0.367 C  
BRANCH  21  22
HETATM   22  C   UNL     1     -10.485  16.742  65.820  1.00  0.00    -0.305 C  
BRANCH  22  23
HETATM   23  C   UNL     1     -11.325  15.479  65.632  1.00  0.00    -0.063 C  
BRANCH  23  24
HETATM   24  C   UNL     1     -10.625  14.464  64.726  1.00  0.00    -0.417 C  
HETATM   25  C   UNL     1     -11.577  13.386  64.259  1.00  0.00    -0.402 C  
HETATM   26  O   UNL     1     -12.758  13.309  64.550  1.00  0.00    -0.639 OA 
HETATM   27  O   UNL     1     -10.967  12.480  63.462  1.00  0.00    -0.445 OA 
ENDBRANCH  23  24
ENDBRANCH  22  23
ENDBRANCH  21  22
ENDBRANCH  20  21
ENDBRANCH  19  20
ENDBRANCH  18  19
ENDBRANCH  10  11
ENDBRANCH   6   9
ENDBRANCH   5   6
ENDBRANCH   4   5
ENDBRANCH   3   4
ENDBRANCH   2   3
TORSDOF 12
ENDMDL
MODEL      289
REMARK 921   NORMALIZED FREE ENERGY PREDICTED BY IDOCK:   -3.50 KCAL/MOL
REMARK 922        TOTAL FREE ENERGY PREDICTED BY IDOCK:   -7.91 KCAL/MOL
REMARK 923 INTER-LIGAND FREE ENERGY PREDICTED BY IDOCK:   -6.84 KCAL/MOL
REMARK 924 INTRA-LIGAND FREE ENERGY PREDICTED BY IDOCK:   -1.06 KCAL/MOL
REMARK 927      BINDING AFFINITY PREDICTED BY RF-SCORE:    0.00 PKD
ROOT
HETATM    1  C   UNL     1      -9.003   2.702  70.546  1.00  0.00    -0.164 C  
HETATM    2  C   UNL     1      -8.222   1.831  69.579  1.00  0.00    -0.064 C  
ENDROOT
BRANCH   2   3
HETATM    3  C   UNL     1      -8.039   2.506  68.219  1.00  0.00    -0.068 C  
BRANCH   3   4
HETATM    4  C   UNL     1      -9.137   3.544  67.996  1.00  0.00    -0.202 C  
BRANCH   4   5
HETATM    5  C   UNL     1      -9.475   3.736  66.516  1.00  0.00    -0.204 C  
BRANCH   5   6
HETATM    6  C   UNL     1     -10.143   5.089  66.219  1.00  0.00    -0.247 C  
HETATM    7  O   UNL     1      -9.427   5.687  65.143  1.00  0.00    -0.360 OA 
HETATM    8  H   UNL     1      -9.840   6.523  64.959  1.00  0.00     0.000 HD 
BRANCH   6   9
HETATM    9  C   UNL     1     -10.176   6.007  67.421  1.00  0.00    -0.230 C  
HETATM   10  C   UNL     1     -10.859   7.157  67.547  1.00  0.00    -0.311 C  
BRANCH  10  11
HETATM   11  C   UNL     1     -10.721   8.105  68.719  1.00  0.00    -0.074 C  
HETATM   12  C   UNL     1     -10.623   7.304  70.035  1.00  0.00    -0.233 C  
HETATM   13  O   UNL     1     -11.896   6.866  70.490  1.00  0.00    -0.408 OA 
HETATM   14  C   UNL     1      -9.993   8.248  71.036  1.00  0.00    -0.226 C  
HETATM   15  H   UNL     1     -11.835   6.373  71.300  1.00  0.00     0.000 HD 
HETATM   16  C   UNL     1      -9.061   9.022  70.158  1.00  0.00    -0.188 C  
HETATM   17  O   UNL     1      -8.088   9.621  70.603  1.00  0.00    -0.243 OA 
HETATM   18  C   UNL     1      -9.453   8.992  68.688  1.00  0.00    -0.149 C  
BRANCH  18  19
HETATM   19  C   UNL     1      -9.763  10.395  68.132  1.00  0.00    -0.165 C  
BRANCH  19  20
HETATM   20  C   UNL     1      -8.701  10.932  67.163  1.00  0.00    -0.132 C  
BRANCH  20  21
HETATM   21  C   UNL     1      -9.308  11.843  66.093  1.00  0.00    -0.228 C  
BRANCH  21  22
HETATM   22  C   UNL     1     -10.226  12.895  66.724  1.00  0.00    -0.243 C  
BRANCH  22  23
HETATM   23  C   UNL     1      -9.958  14.286  66.149  1.00  0.00    -0.330 C  
BRANCH  23  24
HETATM   24  C   UNL     1     -10.990  14.668  65.087  1.00  0.00    -0.395 C  
HETATM   25  C   UNL     1     -10.970  16.152  64.798  1.00  0.00    -0.313 C  
HETATM   26  O   UNL     1     -10.233  16.967  65.327  1.00  0.00    -0.607 OA 
HETATM   27  O   UNL     1     -11.883  16.501  63.865  1.00  0.00    -1.059 OA 
ENDBRANCH  23  24
ENDBRANCH  22  23
ENDBRANCH  21  22
ENDBRANCH  20  21
ENDBRANCH  19  20
ENDBRANCH  18  19
ENDBRANCH  10  11
ENDBRANCH   6   9
ENDBRANCH   5   6
ENDBRANCH   4   5
ENDBRANCH   3   4
ENDBRANCH   2   3
TORSDOF 12
ENDMDL
MODEL      290
REMARK 921   NORMALIZED FREE ENERGY PREDICTED BY IDOCK:   -3.49 KCAL/MOL
REMARK 922        TOTAL FREE ENERGY PREDICTED BY IDOCK:   -7.88 KCAL/MOL
REMARK 923 INTER-LIGAND FREE ENERGY PREDICTED BY IDOCK:   -6.40 KCAL/MOL
REMARK 924 INTRA-LIGAND FREE ENERGY PREDICTED BY IDOCK:   -1.49 KCAL/MOL
REMARK 927      BINDING AFFINITY PREDICTED BY RF-SCORE:    0.00 PKD
ROOT
HETATM    1  C   UNL     1     -10.836  15.892  65.780  1.00  0.00    -0.260 C  
HETATM    2  C   UNL     1     -10.886  15.418  64.338  1.00  0.00     0.066 C  
ENDROOT
BRANCH   2   3
HETATM    3  C   UNL     1     -11.754  14.168  64.175  1.00  0.00    -0.306 C  
BRANCH   3   4
HETATM    4  C   UNL     1     -10.899  12.912  64.331  1.00  0.00    -0.404 C  
BRANCH   4   5
HETATM    5  C   UNL     1     -11.315  12.063  65.534  1.00  0.00    -0.381 C  
BRANCH   5   6
HETATM    6  C   UNL     1     -10.131  11.664  66.432  1.00  0.00    -0.214 C  
HETATM    7  O   UNL     1      -9.391  10.666  65.736  1.00  0.00    -0.171 OA 
HETATM    8  H   UNL     1      -8.659  10.420  66.291  1.00  0.00     0.000 HD 
BRANCH   6   9
HETATM    9  C   UNL     1     -10.565  11.163  67.792  1.00  0.00    -0.248 C  
HETATM   10  C   UNL     1     -11.310  11.816  68.698  1.00  0.00    -0.327 C  
BRANCH  10  11
HETATM   11  C   UNL     1     -11.574  11.317  70.103  1.00  0.00    -0.393 C  
HETATM   12  C   UNL     1     -12.641  12.201  70.784  1.00  0.00    -0.216 C  
HETATM   13  O   UNL     1     -12.093  13.415  71.278  1.00  0.00    -0.377 OA 
HETATM   14  C   UNL     1     -13.196  11.364  71.917  1.00  0.00    -0.485 C  
HETATM   15  H   UNL     1     -12.750  13.959  71.697  1.00  0.00     0.000 HD 
HETATM   16  C   UNL     1     -13.133   9.993  71.322  1.00  0.00    -0.402 C  
HETATM   17  O   UNL     1     -13.825   9.068  71.734  1.00  0.00    -0.397 OA 
HETATM   18  C   UNL     1     -12.131   9.875  70.183  1.00  0.00    -0.095 C  
BRANCH  18  19
HETATM   19  C   UNL     1     -11.013   8.858  70.485  1.00  0.00    -0.280 C  
BRANCH  19  20
HETATM   20  C   UNL     1      -9.641   9.495  70.744  1.00  0.00    -0.261 C  
BRANCH  20  21
HETATM   21  C   UNL     1      -8.495   8.624  70.222  1.00  0.00    -0.133 C  
BRANCH  21  22
HETATM   22  C   UNL     1      -9.032   7.435  69.418  1.00  0.00    -0.139 C  
BRANCH  22  23
HETATM   23  C   UNL     1      -9.180   7.785  67.937  1.00  0.00    -0.141 C  
BRANCH  23  24
HETATM   24  C   UNL     1     -10.367   7.061  67.301  1.00  0.00    -0.331 C  
HETATM   25  C   UNL     1      -9.938   5.783  66.616  1.00  0.00    -0.176 C  
HETATM   26  O   UNL     1      -8.798   5.356  66.562  1.00  0.00    -0.115 OA 
HETATM   27  O   UNL     1     -10.980   5.137  66.044  1.00  0.00    -0.214 OA 
ENDBRANCH  23  24
ENDBRANCH  22  23
ENDBRANCH  21  22
ENDBRANCH  20  21
ENDBRANCH  19  20
ENDBRANCH  18  19
ENDBRANCH  10  11
ENDBRANCH   6   9
ENDBRANCH   5   6
ENDBRANCH   4   5
ENDBRANCH   3   4
ENDBRANCH   2   3
TORSDOF 12
ENDMDL
MODEL      291
REMARK 921   NORMALIZED FREE ENERGY PREDICTED BY IDOCK:   -3.46 KCAL/MOL
REMARK 922        TOTAL FREE ENERGY PREDICTED BY IDOCK:   -7.84 KCAL/MOL
REMARK 923 INTER-LIGAND FREE ENERGY PREDICTED BY IDOCK:   -6.56 KCAL/MOL
REMARK 924 INTRA-LIGAND FREE ENERGY PREDICTED BY IDOCK:   -1.29 KCAL/MOL
REMARK 927      BINDING AFFINITY PREDICTED BY RF-SCORE:    0.00 PKD
ROOT
HETATM    1  C   UNL     1      -5.321   8.804  72.107  1.00  0.00    -0.051 C  
HETATM    2  C   UNL     1      -5.578   7.543  71.300  1.00  0.00    -0.035 C  
ENDROOT
BRANCH   2   3
HETATM    3  C   UNL     1      -6.927   6.908  71.642  1.00  0.00    -0.070 C  
BRANCH   3   4
HETATM    4  C   UNL     1      -8.056   7.674  70.955  1.00  0.00    -0.095 C  
BRANCH   4   5
HETATM    5  C   UNL     1      -8.586   6.954  69.713  1.00  0.00    -0.141 C  
BRANCH   5   6
HETATM    6  C   UNL     1      -8.866   7.904  68.537  1.00  0.00    -0.134 C  
HETATM    7  O   UNL     1      -7.725   8.743  68.389  1.00  0.00    -0.094 OA 
HETATM    8  H   UNL     1      -7.899   9.331  67.662  1.00  0.00     0.000 HD 
BRANCH   6   9
HETATM    9  C   UNL     1     -10.120   8.729  68.732  1.00  0.00    -0.213 C  
HETATM   10  C   UNL     1     -10.227   9.907  69.369  1.00  0.00    -0.231 C  
BRANCH  10  11
HETATM   11  C   UNL     1     -11.540  10.599  69.663  1.00  0.00    -0.368 C  
HETATM   12  C   UNL     1     -12.017  10.240  71.087  1.00  0.00    -0.376 C  
HETATM   13  O   UNL     1     -12.637   8.962  71.136  1.00  0.00    -0.415 OA 
HETATM   14  C   UNL     1     -13.000  11.326  71.470  1.00  0.00    -0.520 C  
HETATM   15  H   UNL     1     -12.931   8.741  72.012  1.00  0.00     0.000 HD 
HETATM   16  C   UNL     1     -12.397  12.515  70.790  1.00  0.00    -0.286 C  
HETATM   17  O   UNL     1     -12.644  13.664  71.138  1.00  0.00    -0.350 OA 
HETATM   18  C   UNL     1     -11.476  12.146  69.636  1.00  0.00    -0.308 C  
BRANCH  18  19
HETATM   19  C   UNL     1     -11.969  12.704  68.287  1.00  0.00    -0.271 C  
BRANCH  19  20
HETATM   20  C   UNL     1     -11.014  13.718  67.643  1.00  0.00    -0.278 C  
BRANCH  20  21
HETATM   21  C   UNL     1     -10.029  14.305  68.658  1.00  0.00    -0.234 C  
BRANCH  21  22
HETATM   22  C   UNL     1     -10.503  15.674  69.154  1.00  0.00    -0.236 C  
BRANCH  22  23
HETATM   23  C   UNL     1     -10.899  16.583  67.990  1.00  0.00    -0.337 C  
BRANCH  23  24
HETATM   24  C   UNL     1      -9.836  17.650  67.720  1.00  0.00    -0.292 C  
HETATM   25  C   UNL     1      -9.390  17.637  66.275  1.00  0.00    -0.197 C  
HETATM   26  O   UNL     1      -9.806  16.885  65.411  1.00  0.00    -0.537 OA 
HETATM   27  O   UNL     1      -8.446  18.573  66.026  1.00  0.00    -0.489 OA 
ENDBRANCH  23  24
ENDBRANCH  22  23
ENDBRANCH  21  22
ENDBRANCH  20  21
ENDBRANCH  19  20
ENDBRANCH  18  19
ENDBRANCH  10  11
ENDBRANCH   6   9
ENDBRANCH   5   6
ENDBRANCH   4   5
ENDBRANCH   3   4
ENDBRANCH   2   3
TORSDOF 12
ENDMDL
MODEL      292
REMARK 921   NORMALIZED FREE ENERGY PREDICTED BY IDOCK:   -3.46 KCAL/MOL
REMARK 922        TOTAL FREE ENERGY PREDICTED BY IDOCK:   -7.84 KCAL/MOL
REMARK 923 INTER-LIGAND FREE ENERGY PREDICTED BY IDOCK:   -6.33 KCAL/MOL
REMARK 924 INTRA-LIGAND FREE ENERGY PREDICTED BY IDOCK:   -1.51 KCAL/MOL
REMARK 927      BINDING AFFINITY PREDICTED BY RF-SCORE:    0.00 PKD
ROOT
HETATM    1  C   UNL     1      -8.471  16.211  68.957  1.00  0.00    -0.251 C  
HETATM    2  C   UNL     1      -9.159  17.309  68.166  1.00  0.00    -0.257 C  
ENDROOT
BRANCH   2   3
HETATM    3  C   UNL     1     -10.625  16.977  67.879  1.00  0.00    -0.365 C  
BRANCH   3   4
HETATM    4  C   UNL     1     -11.212  16.159  69.028  1.00  0.00    -0.347 C  
BRANCH   4   5
HETATM    5  C   UNL     1     -11.825  14.838  68.557  1.00  0.00    -0.340 C  
BRANCH   5   6
HETATM    6  C   UNL     1     -11.470  14.492  67.101  1.00  0.00    -0.368 C  
HETATM    7  O   UNL     1     -12.676  14.106  66.451  1.00  0.00    -0.529 OA 
HETATM    8  H   UNL     1     -12.457  13.892  65.551  1.00  0.00     0.000 HD 
BRANCH   6   9
HETATM    9  C   UNL     1     -10.426  13.401  66.992  1.00  0.00    -0.257 C  
HETATM   10  C   UNL     1      -9.709  12.861  67.991  1.00  0.00    -0.224 C  
BRANCH  10  11
HETATM   11  C   UNL     1      -8.570  11.885  67.789  1.00  0.00    -0.154 C  
HETATM   12  C   UNL     1      -7.223  12.581  68.077  1.00  0.00    -0.105 C  
HETATM   13  O   UNL     1      -6.786  13.374  66.982  1.00  0.00    -0.425 OA 
HETATM   14  C   UNL     1      -6.240  11.463  68.352  1.00  0.00    -0.045 C  
HETATM   15  H   UNL     1      -5.957  13.802  67.159  1.00  0.00     0.000 HD 
HETATM   16  C   UNL     1      -7.121  10.466  69.038  1.00  0.00    -0.076 C  
HETATM   17  O   UNL     1      -6.672   9.587  69.765  1.00  0.00    -0.049 OA 
HETATM   18  C   UNL     1      -8.599  10.654  68.728  1.00  0.00    -0.150 C  
BRANCH  18  19
HETATM   19  C   UNL     1      -9.215   9.428  68.028  1.00  0.00    -0.137 C  
BRANCH  19  20
HETATM   20  C   UNL     1     -10.489   8.898  68.700  1.00  0.00    -0.223 C  
BRANCH  20  21
HETATM   21  C   UNL     1     -10.180   7.837  69.760  1.00  0.00    -0.211 C  
BRANCH  21  22
HETATM   22  C   UNL     1     -11.219   6.711  69.728  1.00  0.00    -0.413 C  
BRANCH  22  23
HETATM   23  C   UNL     1     -10.890   5.620  70.746  1.00  0.00    -0.294 C  
BRANCH  23  24
HETATM   24  C   UNL     1     -10.273   6.201  72.019  1.00  0.00    -0.223 C  
HETATM   25  C   UNL     1     -10.802   5.515  73.258  1.00  0.00    -0.293 C  
HETATM   26  O   UNL     1     -11.617   4.608  73.273  1.00  0.00    -0.314 OA 
HETATM   27  O   UNL     1     -10.266   6.025  74.390  1.00  0.00    -0.277 OA 
ENDBRANCH  23  24
ENDBRANCH  22  23
ENDBRANCH  21  22
ENDBRANCH  20  21
ENDBRANCH  19  20
ENDBRANCH  18  19
ENDBRANCH  10  11
ENDBRANCH   6   9
ENDBRANCH   5   6
ENDBRANCH   4   5
ENDBRANCH   3   4
ENDBRANCH   2   3
TORSDOF 12
ENDMDL
MODEL      293
REMARK 921   NORMALIZED FREE ENERGY PREDICTED BY IDOCK:   -3.46 KCAL/MOL
REMARK 922        TOTAL FREE ENERGY PREDICTED BY IDOCK:   -7.83 KCAL/MOL
REMARK 923 INTER-LIGAND FREE ENERGY PREDICTED BY IDOCK:   -6.13 KCAL/MOL
REMARK 924 INTRA-LIGAND FREE ENERGY PREDICTED BY IDOCK:   -1.70 KCAL/MOL
REMARK 927      BINDING AFFINITY PREDICTED BY RF-SCORE:    0.00 PKD
ROOT
HETATM    1  C   UNL     1     -12.386  12.428  63.697  1.00  0.00    -0.647 C  
HETATM    2  C   UNL     1     -11.280  11.681  64.420  1.00  0.00    -0.360 C  
ENDROOT
BRANCH   2   3
HETATM    3  C   UNL     1     -10.007  11.583  63.577  1.00  0.00    -0.429 C  
BRANCH   3   4
HETATM    4  C   UNL     1      -8.942  10.786  64.327  1.00  0.00    -0.172 C  
BRANCH   4   5
HETATM    5  C   UNL     1      -9.490   9.489  64.925  1.00  0.00    -0.230 C  
BRANCH   5   6
HETATM    6  C   UNL     1      -8.706   9.015  66.161  1.00  0.00    -0.147 C  
HETATM    7  O   UNL     1      -9.632   8.365  67.026  1.00  0.00    -0.163 OA 
HETATM    8  H   UNL     1      -9.148   8.072  67.790  1.00  0.00     0.000 HD 
BRANCH   6   9
HETATM    9  C   UNL     1      -7.999  10.144  66.879  1.00  0.00    -0.114 C  
HETATM   10  C   UNL     1      -8.526  10.992  67.777  1.00  0.00    -0.122 C  
BRANCH  10  11
HETATM   11  C   UNL     1      -7.802  12.197  68.338  1.00  0.00    -0.149 C  
HETATM   12  C   UNL     1      -6.552  11.743  69.121  1.00  0.00    -0.102 C  
HETATM   13  O   UNL     1      -6.878  11.284  70.427  1.00  0.00    -0.486 OA 
HETATM   14  C   UNL     1      -5.654  12.959  69.191  1.00  0.00    -0.073 C  
HETATM   15  H   UNL     1      -6.108  11.005  70.909  1.00  0.00     0.000 HD 
HETATM   16  C   UNL     1      -5.938  13.605  67.871  1.00  0.00    -0.145 C  
HETATM   17  O   UNL     1      -5.161  14.395  67.348  1.00  0.00    -0.330 OA 
HETATM   18  C   UNL     1      -7.273  13.188  67.272  1.00  0.00    -0.045 C  
BRANCH  18  19
HETATM   19  C   UNL     1      -8.234  14.379  67.087  1.00  0.00    -0.202 C  
BRANCH  19  20
HETATM   20  C   UNL     1      -7.968  15.551  68.042  1.00  0.00    -0.138 C  
BRANCH  20  21
HETATM   21  C   UNL     1      -9.059  15.684  69.107  1.00  0.00    -0.256 C  
BRANCH  21  22
HETATM   22  C   UNL     1     -10.158  16.648  68.649  1.00  0.00    -0.270 C  
BRANCH  22  23
HETATM   23  C   UNL     1     -11.452  15.905  68.322  1.00  0.00    -0.320 C  
BRANCH  23  24
HETATM   24  C   UNL     1     -12.100  15.317  69.577  1.00  0.00    -0.320 C  
HETATM   25  C   UNL     1     -12.042  13.806  69.578  1.00  0.00    -0.334 C  
HETATM   26  O   UNL     1     -11.547  13.115  68.705  1.00  0.00    -0.276 OA 
HETATM   27  O   UNL     1     -12.617  13.276  70.681  1.00  0.00    -0.300 OA 
ENDBRANCH  23  24
ENDBRANCH  22  23
ENDBRANCH  21  22
ENDBRANCH  20  21
ENDBRANCH  19  20
ENDBRANCH  18  19
ENDBRANCH  10  11
ENDBRANCH   6   9
ENDBRANCH   5   6
ENDBRANCH   4   5
ENDBRANCH   3   4
ENDBRANCH   2   3
TORSDOF 12
ENDMDL
MODEL      294
REMARK 921   NORMALIZED FREE ENERGY PREDICTED BY IDOCK:   -3.45 KCAL/MOL
REMARK 922        TOTAL FREE ENERGY PREDICTED BY IDOCK:   -7.83 KCAL/MOL
REMARK 923 INTER-LIGAND FREE ENERGY PREDICTED BY IDOCK:   -5.96 KCAL/MOL
REMARK 924 INTRA-LIGAND FREE ENERGY PREDICTED BY IDOCK:   -1.86 KCAL/MOL
REMARK 927      BINDING AFFINITY PREDICTED BY RF-SCORE:    0.00 PKD
ROOT
HETATM    1  C   UNL     1     -10.660  12.802  63.707  1.00  0.00    -0.370 C  
HETATM    2  C   UNL     1     -12.101  12.450  64.030  1.00  0.00    -0.563 C  
ENDROOT
BRANCH   2   3
HETATM    3  C   UNL     1     -12.417  12.633  65.516  1.00  0.00    -0.345 C  
BRANCH   3   4
HETATM    4  C   UNL     1     -11.176  13.123  66.259  1.00  0.00    -0.328 C  
BRANCH   4   5
HETATM    5  C   UNL     1     -10.661  12.105  67.279  1.00  0.00    -0.255 C  
BRANCH   5   6
HETATM    6  C   UNL     1     -11.377  10.747  67.192  1.00  0.00    -0.028 C  
HETATM    7  O   UNL     1     -12.013  10.522  68.445  1.00  0.00    -0.773 OA 
HETATM    8  H   UNL     1     -12.456   9.683  68.391  1.00  0.00     0.000 HD 
BRANCH   6   9
HETATM    9  C   UNL     1     -10.440   9.608  66.851  1.00  0.00    -0.282 C  
HETATM   10  C   UNL     1      -9.482   9.083  67.632  1.00  0.00    -0.166 C  
BRANCH  10  11
HETATM   11  C   UNL     1      -8.477   8.050  67.168  1.00  0.00    -0.124 C  
HETATM   12  C   UNL     1      -7.073   8.684  67.080  1.00  0.00    -0.075 C  
HETATM   13  O   UNL     1      -6.902   9.440  65.888  1.00  0.00    -0.085 OA 
HETATM   14  C   UNL     1      -6.101   7.524  67.121  1.00  0.00    -0.051 C  
HETATM   15  H   UNL     1      -6.038   9.830  65.833  1.00  0.00     0.000 HD 
HETATM   16  C   UNL     1      -6.816   6.581  68.037  1.00  0.00    -0.074 C  
HETATM   17  O   UNL     1      -6.232   5.692  68.647  1.00  0.00    -0.030 OA 
HETATM   18  C   UNL     1      -8.314   6.836  68.115  1.00  0.00    -0.118 C  
BRANCH  18  19
HETATM   19  C   UNL     1      -9.143   5.631  67.631  1.00  0.00    -0.106 C  
BRANCH  19  20
HETATM   20  C   UNL     1     -10.355   5.310  68.515  1.00  0.00    -0.182 C  
BRANCH  20  21
HETATM   21  C   UNL     1      -9.941   4.736  69.873  1.00  0.00    -0.306 C  
BRANCH  21  22
HETATM   22  C   UNL     1     -10.514   5.574  71.020  1.00  0.00    -0.314 C  
BRANCH  22  23
HETATM   23  C   UNL     1     -11.646   6.481  70.538  1.00  0.00    -0.455 C  
BRANCH  23  24
HETATM   24  C   UNL     1     -11.264   7.960  70.631  1.00  0.00    -0.269 C  
HETATM   25  C   UNL     1     -11.921   8.630  71.817  1.00  0.00    -0.336 C  
HETATM   26  O   UNL     1     -12.664   8.087  72.617  1.00  0.00    -0.129 OA 
HETATM   27  O   UNL     1     -11.595   9.939  71.906  1.00  0.00    -0.200 OA 
ENDBRANCH  23  24
ENDBRANCH  22  23
ENDBRANCH  21  22
ENDBRANCH  20  21
ENDBRANCH  19  20
ENDBRANCH  18  19
ENDBRANCH  10  11
ENDBRANCH   6   9
ENDBRANCH   5   6
ENDBRANCH   4   5
ENDBRANCH   3   4
ENDBRANCH   2   3
TORSDOF 12
ENDMDL
MODEL      295
REMARK 921   NORMALIZED FREE ENERGY PREDICTED BY IDOCK:   -3.45 KCAL/MOL
REMARK 922        TOTAL FREE ENERGY PREDICTED BY IDOCK:   -7.83 KCAL/MOL
REMARK 923 INTER-LIGAND FREE ENERGY PREDICTED BY IDOCK:   -6.72 KCAL/MOL
REMARK 924 INTRA-LIGAND FREE ENERGY PREDICTED BY IDOCK:   -1.10 KCAL/MOL
REMARK 927      BINDING AFFINITY PREDICTED BY RF-SCORE:    0.00 PKD
ROOT
HETATM    1  C   UNL     1      -7.590   7.048  73.819  1.00  0.00    -0.108 C  
HETATM    2  C   UNL     1      -8.908   6.832  73.097  1.00  0.00    -0.138 C  
ENDROOT
BRANCH   2   3
HETATM    3  C   UNL     1     -10.035   7.678  73.694  1.00  0.00    -0.288 C  
BRANCH   3   4
HETATM    4  C   UNL     1     -10.924   8.227  72.579  1.00  0.00    -0.424 C  
BRANCH   4   5
HETATM    5  C   UNL     1     -10.164   8.432  71.267  1.00  0.00    -0.269 C  
BRANCH   5   6
HETATM    6  C   UNL     1     -11.062   8.920  70.118  1.00  0.00    -0.201 C  
HETATM    7  O   UNL     1     -10.375   8.652  68.900  1.00  0.00    -0.208 OA 
HETATM    8  H   UNL     1     -10.930   8.954  68.190  1.00  0.00     0.000 HD 
BRANCH   6   9
HETATM    9  C   UNL     1     -11.414  10.387  70.227  1.00  0.00    -0.406 C  
HETATM   10  C   UNL     1     -11.857  11.192  69.247  1.00  0.00    -0.422 C  
BRANCH  10  11
HETATM   11  C   UNL     1     -12.039  12.688  69.390  1.00  0.00    -0.236 C  
HETATM   12  C   UNL     1     -12.085  13.072  70.884  1.00  0.00    -0.090 C  
HETATM   13  O   UNL     1     -13.361  12.824  71.461  1.00  0.00    -0.308 OA 
HETATM   14  C   UNL     1     -11.755  14.548  70.933  1.00  0.00    -0.308 C  
HETATM   15  H   UNL     1     -13.388  13.061  72.381  1.00  0.00     0.000 HD 
HETATM   16  C   UNL     1     -10.776  14.663  69.807  1.00  0.00    -0.104 C  
HETATM   17  O   UNL     1      -9.973  15.585  69.729  1.00  0.00    -0.274 OA 
HETATM   18  C   UNL     1     -10.895  13.539  68.788  1.00  0.00    -0.279 C  
BRANCH  18  19
HETATM   19  C   UNL     1     -11.259  14.054  67.382  1.00  0.00    -0.328 C  
BRANCH  19  20
HETATM   20  C   UNL     1     -12.526  13.419  66.792  1.00  0.00    -0.162 C  
BRANCH  20  21
HETATM   21  C   UNL     1     -12.743  13.821  65.331  1.00  0.00    -0.513 C  
BRANCH  21  22
HETATM   22  C   UNL     1     -11.405  14.010  64.609  1.00  0.00    -0.378 C  
BRANCH  22  23
HETATM   23  C   UNL     1     -11.207  12.959  63.517  1.00  0.00    -0.350 C  
BRANCH  23  24
HETATM   24  C   UNL     1     -11.302  11.538  64.075  1.00  0.00    -0.380 C  
HETATM   25  C   UNL     1     -10.032  11.135  64.790  1.00  0.00    -0.287 C  
HETATM   26  O   UNL     1      -9.042  11.832  64.923  1.00  0.00     0.050 OA 
HETATM   27  O   UNL     1     -10.104   9.877  65.283  1.00  0.00    -0.313 OA 
ENDBRANCH  23  24
ENDBRANCH  22  23
ENDBRANCH  21  22
ENDBRANCH  20  21
ENDBRANCH  19  20
ENDBRANCH  18  19
ENDBRANCH  10  11
ENDBRANCH   6   9
ENDBRANCH   5   6
ENDBRANCH   4   5
ENDBRANCH   3   4
ENDBRANCH   2   3
TORSDOF 12
ENDMDL
MODEL      296
REMARK 921   NORMALIZED FREE ENERGY PREDICTED BY IDOCK:   -3.44 KCAL/MOL
REMARK 922        TOTAL FREE ENERGY PREDICTED BY IDOCK:   -7.80 KCAL/MOL
REMARK 923 INTER-LIGAND FREE ENERGY PREDICTED BY IDOCK:   -5.97 KCAL/MOL
REMARK 924 INTRA-LIGAND FREE ENERGY PREDICTED BY IDOCK:   -1.84 KCAL/MOL
REMARK 927      BINDING AFFINITY PREDICTED BY RF-SCORE:    0.00 PKD
ROOT
HETATM    1  C   UNL     1     -12.285  14.454  64.474  1.00  0.00    -0.483 C  
HETATM    2  C   UNL     1     -11.470  13.381  63.775  1.00  0.00    -0.286 C  
ENDROOT
BRANCH   2   3
HETATM    3  C   UNL     1     -12.098  11.994  63.925  1.00  0.00    -0.557 C  
BRANCH   3   4
HETATM    4  C   UNL     1     -11.082  10.915  63.555  1.00  0.00     0.348 C  
BRANCH   4   5
HETATM    5  C   UNL     1      -9.671  11.242  64.049  1.00  0.00    -0.301 C  
BRANCH   5   6
HETATM    6  C   UNL     1      -9.284  10.474  65.325  1.00  0.00    -0.200 C  
HETATM    7  O   UNL     1      -9.870   9.180  65.234  1.00  0.00    -0.444 OA 
HETATM    8  H   UNL     1      -9.631   8.705  66.022  1.00  0.00     0.000 HD 
BRANCH   6   9
HETATM    9  C   UNL     1      -9.723  11.177  66.591  1.00  0.00    -0.224 C  
HETATM   10  C   UNL     1      -9.676  12.494  66.847  1.00  0.00    -0.232 C  
BRANCH  10  11
HETATM   11  C   UNL     1      -9.985  13.112  68.194  1.00  0.00    -0.234 C  
HETATM   12  C   UNL     1      -9.021  14.286  68.469  1.00  0.00    -0.185 C  
HETATM   13  O   UNL     1      -7.750  13.839  68.922  1.00  0.00    -0.243 OA 
HETATM   14  C   UNL     1      -9.701  15.128  69.527  1.00  0.00    -0.172 C  
HETATM   15  H   UNL     1      -7.158  14.562  69.091  1.00  0.00     0.000 HD 
HETATM   16  C   UNL     1     -11.139  14.964  69.148  1.00  0.00    -0.269 C  
HETATM   17  O   UNL     1     -12.002  15.763  69.491  1.00  0.00    -0.361 OA 
HETATM   18  C   UNL     1     -11.405  13.716  68.319  1.00  0.00    -0.322 C  
BRANCH  18  19
HETATM   19  C   UNL     1     -12.370  12.739  69.018  1.00  0.00     0.146 C  
BRANCH  19  20
HETATM   20  C   UNL     1     -11.828  12.152  70.328  1.00  0.00    -0.339 C  
BRANCH  20  21
HETATM   21  C   UNL     1     -11.767  10.623  70.291  1.00  0.00    -0.433 C  
BRANCH  21  22
HETATM   22  C   UNL     1     -11.291  10.060  71.634  1.00  0.00     0.060 C  
BRANCH  22  23
HETATM   23  C   UNL     1     -10.572   8.722  71.455  1.00  0.00    -0.349 C  
BRANCH  23  24
HETATM   24  C   UNL     1     -11.017   7.698  72.500  1.00  0.00    -0.377 C  
HETATM   25  C   UNL     1      -9.985   6.608  72.685  1.00  0.00    -0.171 C  
HETATM   26  O   UNL     1      -8.923   6.529  72.091  1.00  0.00    -0.139 OA 
HETATM   27  O   UNL     1     -10.371   5.693  73.603  1.00  0.00    -0.203 OA 
ENDBRANCH  23  24
ENDBRANCH  22  23
ENDBRANCH  21  22
ENDBRANCH  20  21
ENDBRANCH  19  20
ENDBRANCH  18  19
ENDBRANCH  10  11
ENDBRANCH   6   9
ENDBRANCH   5   6
ENDBRANCH   4   5
ENDBRANCH   3   4
ENDBRANCH   2   3
TORSDOF 12
ENDMDL
MODEL      297
REMARK 921   NORMALIZED FREE ENERGY PREDICTED BY IDOCK:   -3.43 KCAL/MOL
REMARK 922        TOTAL FREE ENERGY PREDICTED BY IDOCK:   -7.79 KCAL/MOL
REMARK 923 INTER-LIGAND FREE ENERGY PREDICTED BY IDOCK:   -6.65 KCAL/MOL
REMARK 924 INTRA-LIGAND FREE ENERGY PREDICTED BY IDOCK:   -1.14 KCAL/MOL
REMARK 927      BINDING AFFINITY PREDICTED BY RF-SCORE:    0.00 PKD
ROOT
HETATM    1  C   UNL     1     -10.576   3.216  62.814  1.00  0.00    -0.182 C  
HETATM    2  C   UNL     1     -10.636   3.718  64.246  1.00  0.00    -0.241 C  
ENDROOT
BRANCH   2   3
HETATM    3  C   UNL     1      -9.408   3.294  65.054  1.00  0.00    -0.150 C  
BRANCH   3   4
HETATM    4  C   UNL     1      -9.518   3.815  66.486  1.00  0.00    -0.204 C  
BRANCH   4   5
HETATM    5  C   UNL     1      -9.594   5.342  66.553  1.00  0.00    -0.166 C  
BRANCH   5   6
HETATM    6  C   UNL     1     -10.804   5.852  67.354  1.00  0.00    -0.248 C  
HETATM    7  O   UNL     1     -11.234   7.065  66.745  1.00  0.00    -0.580 OA 
HETATM    8  H   UNL     1     -11.982   7.381  67.241  1.00  0.00     0.000 HD 
BRANCH   6   9
HETATM    9  C   UNL     1     -10.493   6.065  68.820  1.00  0.00    -0.307 C  
HETATM   10  C   UNL     1      -9.294   6.328  69.365  1.00  0.00    -0.145 C  
BRANCH  10  11
HETATM   11  C   UNL     1      -9.028   6.373  70.855  1.00  0.00    -0.144 C  
HETATM   12  C   UNL     1      -7.592   5.889  71.148  1.00  0.00    -0.100 C  
HETATM   13  O   UNL     1      -7.493   4.471  71.136  1.00  0.00    -0.056 OA 
HETATM   14  C   UNL     1      -7.252   6.436  72.518  1.00  0.00    -0.083 C  
HETATM   15  H   UNL     1      -6.609   4.173  71.316  1.00  0.00     0.000 HD 
HETATM   16  C   UNL     1      -7.979   7.744  72.495  1.00  0.00    -0.113 C  
HETATM   17  O   UNL     1      -7.676   8.675  73.234  1.00  0.00    -0.377 OA 
HETATM   18  C   UNL     1      -9.116   7.784  71.486  1.00  0.00    -0.158 C  
BRANCH  18  19
HETATM   19  C   UNL     1     -10.487   8.017  72.150  1.00  0.00    -0.329 C  
BRANCH  19  20
HETATM   20  C   UNL     1     -11.187   9.307  71.704  1.00  0.00    -0.449 C  
BRANCH  20  21
HETATM   21  C   UNL     1     -12.648   9.064  71.316  1.00  0.00    -0.336 C  
BRANCH  21  22
HETATM   22  C   UNL     1     -13.401  10.388  71.155  1.00  0.00    -0.294 C  
BRANCH  22  23
HETATM   23  C   UNL     1     -12.640  11.545  71.801  1.00  0.00    -0.225 C  
BRANCH  23  24
HETATM   24  C   UNL     1     -12.647  12.792  70.915  1.00  0.00    -0.342 C  
HETATM   25  C   UNL     1     -13.206  13.991  71.647  1.00  0.00    -0.368 C  
HETATM   26  O   UNL     1     -13.606  13.996  72.798  1.00  0.00    -0.629 OA 
HETATM   27  O   UNL     1     -13.222  15.098  70.870  1.00  0.00    -0.425 OA 
ENDBRANCH  23  24
ENDBRANCH  22  23
ENDBRANCH  21  22
ENDBRANCH  20  21
ENDBRANCH  19  20
ENDBRANCH  18  19
ENDBRANCH  10  11
ENDBRANCH   6   9
ENDBRANCH   5   6
ENDBRANCH   4   5
ENDBRANCH   3   4
ENDBRANCH   2   3
TORSDOF 12
ENDMDL
MODEL      298
REMARK 921   NORMALIZED FREE ENERGY PREDICTED BY IDOCK:   -3.42 KCAL/MOL
REMARK 922        TOTAL FREE ENERGY PREDICTED BY IDOCK:   -7.77 KCAL/MOL
REMARK 923 INTER-LIGAND FREE ENERGY PREDICTED BY IDOCK:   -6.52 KCAL/MOL
REMARK 924 INTRA-LIGAND FREE ENERGY PREDICTED BY IDOCK:   -1.25 KCAL/MOL
REMARK 927      BINDING AFFINITY PREDICTED BY RF-SCORE:    0.00 PKD
ROOT
HETATM    1  C   UNL     1     -10.105  16.427  65.483  1.00  0.00    -0.238 C  
HETATM    2  C   UNL     1      -9.117  16.355  66.633  1.00  0.00    -0.278 C  
ENDROOT
BRANCH   2   3
HETATM    3  C   UNL     1      -8.805  14.911  67.032  1.00  0.00    -0.255 C  
BRANCH   3   4
HETATM    4  C   UNL     1      -8.985  14.734  68.539  1.00  0.00    -0.182 C  
BRANCH   4   5
HETATM    5  C   UNL     1     -10.295  15.337  69.051  1.00  0.00    -0.242 C  
BRANCH   5   6
HETATM    6  C   UNL     1     -11.520  14.451  68.766  1.00  0.00    -0.289 C  
HETATM    7  O   UNL     1     -11.632  13.525  69.843  1.00  0.00    -0.393 OA 
HETATM    8  H   UNL     1     -12.389  12.978  69.667  1.00  0.00     0.000 HD 
BRANCH   6   9
HETATM    9  C   UNL     1     -11.428  13.727  67.440  1.00  0.00    -0.372 C  
HETATM   10  C   UNL     1     -11.735  12.443  67.193  1.00  0.00    -0.415 C  
BRANCH  10  11
HETATM   11  C   UNL     1     -11.470  11.742  65.878  1.00  0.00    -0.273 C  
HETATM   12  C   UNL     1     -11.976  12.611  64.707  1.00  0.00    -0.402 C  
HETATM   13  O   UNL     1     -13.381  12.499  64.526  1.00  0.00    -0.780 OA 
HETATM   14  C   UNL     1     -11.239  12.110  63.483  1.00  0.00    -0.536 C  
HETATM   15  H   UNL     1     -13.692  13.034  63.805  1.00  0.00     0.000 HD 
HETATM   16  C   UNL     1      -9.914  11.741  64.075  1.00  0.00    -0.293 C  
HETATM   17  O   UNL     1      -8.896  11.653  63.398  1.00  0.00     0.112 OA 
HETATM   18  C   UNL     1      -9.974  11.482  65.573  1.00  0.00    -0.282 C  
BRANCH  18  19
HETATM   19  C   UNL     1      -9.569  10.042  65.939  1.00  0.00    -0.283 C  
BRANCH  19  20
HETATM   20  C   UNL     1     -10.660   9.253  66.675  1.00  0.00    -0.161 C  
BRANCH  20  21
HETATM   21  C   UNL     1     -10.380   9.148  68.177  1.00  0.00    -0.263 C  
BRANCH  21  22
HETATM   22  C   UNL     1     -10.851   7.799  68.730  1.00  0.00    -0.006 C  
BRANCH  22  23
HETATM   23  C   UNL     1     -10.476   6.651  67.793  1.00  0.00    -0.275 C  
BRANCH  23  24
HETATM   24  C   UNL     1      -9.079   6.107  68.096  1.00  0.00    -0.111 C  
HETATM   25  C   UNL     1      -8.201   6.110  66.865  1.00  0.00    -0.106 C  
HETATM   26  O   UNL     1      -8.536   6.494  65.757  1.00  0.00    -0.141 OA 
HETATM   27  O   UNL     1      -6.965   5.626  67.121  1.00  0.00    -0.062 OA 
ENDBRANCH  23  24
ENDBRANCH  22  23
ENDBRANCH  21  22
ENDBRANCH  20  21
ENDBRANCH  19  20
ENDBRANCH  18  19
ENDBRANCH  10  11
ENDBRANCH   6   9
ENDBRANCH   5   6
ENDBRANCH   4   5
ENDBRANCH   3   4
ENDBRANCH   2   3
TORSDOF 12
ENDMDL
MODEL      299
REMARK 921   NORMALIZED FREE ENERGY PREDICTED BY IDOCK:   -3.42 KCAL/MOL
REMARK 922        TOTAL FREE ENERGY PREDICTED BY IDOCK:   -7.76 KCAL/MOL
REMARK 923 INTER-LIGAND FREE ENERGY PREDICTED BY IDOCK:   -5.92 KCAL/MOL
REMARK 924 INTRA-LIGAND FREE ENERGY PREDICTED BY IDOCK:   -1.84 KCAL/MOL
REMARK 927      BINDING AFFINITY PREDICTED BY RF-SCORE:    0.00 PKD
ROOT
HETATM    1  C   UNL     1     -11.979  13.369  63.423  1.00  0.00    -0.406 C  
HETATM    2  C   UNL     1     -11.739  12.035  64.106  1.00  0.00    -0.457 C  
ENDROOT
BRANCH   2   3
HETATM    3  C   UNL     1     -10.884  11.097  63.251  1.00  0.00    -0.115 C  
BRANCH   3   4
HETATM    4  C   UNL     1      -9.495  10.946  63.868  1.00  0.00    -0.295 C  
BRANCH   4   5
HETATM    5  C   UNL     1      -9.507  10.101  65.144  1.00  0.00    -0.319 C  
BRANCH   5   6
HETATM    6  C   UNL     1      -8.868  10.815  66.348  1.00  0.00    -0.165 C  
HETATM    7  O   UNL     1      -9.381  10.200  67.525  1.00  0.00    -0.149 OA 
HETATM    8  H   UNL     1      -8.986  10.641  68.269  1.00  0.00     0.000 HD 
BRANCH   6   9
HETATM    9  C   UNL     1      -9.134  12.304  66.358  1.00  0.00    -0.158 C  
HETATM   10  C   UNL     1      -9.707  13.020  67.340  1.00  0.00    -0.213 C  
BRANCH  10  11
HETATM   11  C   UNL     1     -10.086  14.481  67.219  1.00  0.00    -0.247 C  
HETATM   12  C   UNL     1     -11.333  14.774  68.078  1.00  0.00    -0.316 C  
HETATM   13  O   UNL     1     -12.534  14.371  67.433  1.00  0.00    -0.603 OA 
HETATM   14  C   UNL     1     -11.326  16.271  68.305  1.00  0.00    -0.280 C  
HETATM   15  H   UNL     1     -13.302  14.552  67.962  1.00  0.00     0.000 HD 
HETATM   16  C   UNL     1      -9.856  16.544  68.387  1.00  0.00    -0.237 C  
HETATM   17  O   UNL     1      -9.405  17.543  68.935  1.00  0.00    -0.252 OA 
HETATM   18  C   UNL     1      -9.007  15.473  67.719  1.00  0.00    -0.173 C  
BRANCH  18  19
HETATM   19  C   UNL     1      -8.170  16.028  66.550  1.00  0.00    -0.334 C  
BRANCH  19  20
HETATM   20  C   UNL     1      -6.985  16.900  66.988  1.00  0.00    -0.235 C  
BRANCH  20  21
HETATM   21  C   UNL     1      -5.889  16.078  67.672  1.00  0.00    -0.174 C  
BRANCH  21  22
HETATM   22  C   UNL     1      -6.186  15.903  69.164  1.00  0.00    -0.140 C  
BRANCH  22  23
HETATM   23  C   UNL     1      -5.683  14.554  69.679  1.00  0.00    -0.099 C  
BRANCH  23  24
HETATM   24  C   UNL     1      -6.046  13.415  68.725  1.00  0.00    -0.086 C  
HETATM   25  C   UNL     1      -6.207  12.104  69.461  1.00  0.00    -0.124 C  
HETATM   26  O   UNL     1      -6.074  11.944  70.662  1.00  0.00    -0.296 OA 
HETATM   27  O   UNL     1      -6.523  11.088  68.626  1.00  0.00    -0.049 OA 
ENDBRANCH  23  24
ENDBRANCH  22  23
ENDBRANCH  21  22
ENDBRANCH  20  21
ENDBRANCH  19  20
ENDBRANCH  18  19
ENDBRANCH  10  11
ENDBRANCH   6   9
ENDBRANCH   5   6
ENDBRANCH   4   5
ENDBRANCH   3   4
ENDBRANCH   2   3
TORSDOF 12
ENDMDL
MODEL      300
REMARK 921   NORMALIZED FREE ENERGY PREDICTED BY IDOCK:   -3.41 KCAL/MOL
REMARK 922        TOTAL FREE ENERGY PREDICTED BY IDOCK:   -7.76 KCAL/MOL
REMARK 923 INTER-LIGAND FREE ENERGY PREDICTED BY IDOCK:   -6.04 KCAL/MOL
REMARK 924 INTRA-LIGAND FREE ENERGY PREDICTED BY IDOCK:   -1.72 KCAL/MOL
REMARK 927      BINDING AFFINITY PREDICTED BY RF-SCORE:    0.00 PKD
ROOT
HETATM    1  C   UNL     1     -12.549  15.493  70.505  1.00  0.00    -0.462 C  
HETATM    2  C   UNL     1     -11.927  14.179  70.941  1.00  0.00    -0.371 C  
ENDROOT
BRANCH   2   3
HETATM    3  C   UNL     1     -12.808  12.981  70.584  1.00  0.00    -0.081 C  
BRANCH   3   4
HETATM    4  C   UNL     1     -11.946  11.833  70.062  1.00  0.00    -0.421 C  
BRANCH   4   5
HETATM    5  C   UNL     1     -11.573  12.001  68.587  1.00  0.00    -0.372 C  
BRANCH   5   6
HETATM    6  C   UNL     1     -10.097  12.380  68.376  1.00  0.00    -0.217 C  
HETATM    7  O   UNL     1     -10.072  13.692  67.822  1.00  0.00    -0.233 OA 
HETATM    8  H   UNL     1      -9.160  13.926  67.692  1.00  0.00     0.000 HD 
BRANCH   6   9
HETATM    9  C   UNL     1      -9.360  11.405  67.485  1.00  0.00    -0.166 C  
HETATM   10  C   UNL     1      -9.876  10.350  66.833  1.00  0.00    -0.236 C  
BRANCH  10  11
HETATM   11  C   UNL     1      -9.051   9.324  66.086  1.00  0.00    -0.224 C  
HETATM   12  C   UNL     1      -7.721   9.954  65.622  1.00  0.00    -0.121 C  
HETATM   13  O   UNL     1      -7.882  10.737  64.446  1.00  0.00    -0.358 OA 
HETATM   14  C   UNL     1      -6.789   8.789  65.365  1.00  0.00    -0.072 C  
HETATM   15  H   UNL     1      -7.063  11.124  64.160  1.00  0.00     0.000 HD 
HETATM   16  C   UNL     1      -7.229   7.828  66.424  1.00  0.00    -0.075 C  
HETATM   17  O   UNL     1      -6.508   6.922  66.827  1.00  0.00    -0.043 OA 
HETATM   18  C   UNL     1      -8.643   8.087  66.923  1.00  0.00    -0.130 C  
BRANCH  18  19
HETATM   19  C   UNL     1      -9.587   6.898  66.664  1.00  0.00    -0.218 C  
BRANCH  19  20
HETATM   20  C   UNL     1     -10.682   6.725  67.726  1.00  0.00    -0.334 C  
BRANCH  20  21
HETATM   21  C   UNL     1     -10.105   6.342  69.091  1.00  0.00    -0.204 C  
BRANCH  21  22
HETATM   22  C   UNL     1     -11.049   6.759  70.222  1.00  0.00    -0.360 C  
BRANCH  22  23
HETATM   23  C   UNL     1     -10.820   8.214  70.633  1.00  0.00    -0.246 C  
BRANCH  23  24
HETATM   24  C   UNL     1     -10.341   8.324  72.081  1.00  0.00    -0.370 C  
HETATM   25  C   UNL     1      -8.842   8.512  72.159  1.00  0.00    -0.216 C  
HETATM   26  O   UNL     1      -8.085   8.573  71.205  1.00  0.00    -0.107 OA 
HETATM   27  O   UNL     1      -8.407   8.605  73.435  1.00  0.00    -0.398 OA 
ENDBRANCH  23  24
ENDBRANCH  22  23
ENDBRANCH  21  22
ENDBRANCH  20  21
ENDBRANCH  19  20
ENDBRANCH  18  19
ENDBRANCH  10  11
ENDBRANCH   6   9
ENDBRANCH   5   6
ENDBRANCH   4   5
ENDBRANCH   3   4
ENDBRANCH   2   3
TORSDOF 12
ENDMDL
MODEL      301
REMARK 921   NORMALIZED FREE ENERGY PREDICTED BY IDOCK:   -3.41 KCAL/MOL
REMARK 922        TOTAL FREE ENERGY PREDICTED BY IDOCK:   -7.75 KCAL/MOL
REMARK 923 INTER-LIGAND FREE ENERGY PREDICTED BY IDOCK:   -6.05 KCAL/MOL
REMARK 924 INTRA-LIGAND FREE ENERGY PREDICTED BY IDOCK:   -1.70 KCAL/MOL
REMARK 927      BINDING AFFINITY PREDICTED BY RF-SCORE:    0.00 PKD
ROOT
HETATM    1  C   UNL     1     -12.015  12.221  68.637  1.00  0.00    -0.276 C  
HETATM    2  C   UNL     1     -11.606  12.984  67.390  1.00  0.00    -0.407 C  
ENDROOT
BRANCH   2   3
HETATM    3  C   UNL     1     -10.323  12.426  66.771  1.00  0.00    -0.239 C  
BRANCH   3   4
HETATM    4  C   UNL     1      -9.520  11.666  67.825  1.00  0.00    -0.178 C  
BRANCH   4   5
HETATM    5  C   UNL     1      -8.073  12.155  67.928  1.00  0.00    -0.153 C  
BRANCH   5   6
HETATM    6  C   UNL     1      -7.065  11.204  67.261  1.00  0.00    -0.109 C  
HETATM    7  O   UNL     1      -6.510  11.891  66.144  1.00  0.00    -0.398 OA 
HETATM    8  H   UNL     1      -5.887  11.303  65.732  1.00  0.00     0.000 HD 
BRANCH   6   9
HETATM    9  C   UNL     1      -7.686   9.892  66.833  1.00  0.00    -0.098 C  
HETATM   10  C   UNL     1      -7.739   9.386  65.590  1.00  0.00    -0.099 C  
BRANCH  10  11
HETATM   11  C   UNL     1      -8.515   8.143  65.209  1.00  0.00    -0.157 C  
HETATM   12  C   UNL     1      -7.662   7.254  64.280  1.00  0.00    -0.124 C  
HETATM   13  O   UNL     1      -7.674   7.719  62.937  1.00  0.00    -0.117 OA 
HETATM   14  C   UNL     1      -8.270   5.871  64.372  1.00  0.00    -0.099 C  
HETATM   15  H   UNL     1      -7.149   7.172  62.365  1.00  0.00     0.000 HD 
HETATM   16  C   UNL     1      -8.713   5.845  65.801  1.00  0.00    -0.151 C  
HETATM   17  O   UNL     1      -8.908   4.797  66.407  1.00  0.00    -0.112 OA 
HETATM   18  C   UNL     1      -8.901   7.231  66.400  1.00  0.00    -0.167 C  
BRANCH  18  19
HETATM   19  C   UNL     1     -10.351   7.485  66.854  1.00  0.00    -0.379 C  
BRANCH  19  20
HETATM   20  C   UNL     1     -10.827   6.555  67.978  1.00  0.00    -0.372 C  
BRANCH  20  21
HETATM   21  C   UNL     1     -10.538   7.135  69.365  1.00  0.00    -0.246 C  
BRANCH  21  22
HETATM   22  C   UNL     1     -10.549   8.666  69.332  1.00  0.00    -0.207 C  
BRANCH  22  23
HETATM   23  C   UNL     1     -10.397   9.256  70.735  1.00  0.00    -0.348 C  
BRANCH  23  24
HETATM   24  C   UNL     1     -11.716   9.833  71.251  1.00  0.00    -0.472 C  
HETATM   25  C   UNL     1     -12.465   8.835  72.104  1.00  0.00    -0.393 C  
HETATM   26  O   UNL     1     -12.090   7.705  72.367  1.00  0.00    -0.284 OA 
HETATM   27  O   UNL     1     -13.636   9.334  72.561  1.00  0.00    -0.467 OA 
ENDBRANCH  23  24
ENDBRANCH  22  23
ENDBRANCH  21  22
ENDBRANCH  20  21
ENDBRANCH  19  20
ENDBRANCH  18  19
ENDBRANCH  10  11
ENDBRANCH   6   9
ENDBRANCH   5   6
ENDBRANCH   4   5
ENDBRANCH   3   4
ENDBRANCH   2   3
TORSDOF 12
ENDMDL
MODEL      302
REMARK 921   NORMALIZED FREE ENERGY PREDICTED BY IDOCK:   -3.40 KCAL/MOL
REMARK 922        TOTAL FREE ENERGY PREDICTED BY IDOCK:   -7.74 KCAL/MOL
REMARK 923 INTER-LIGAND FREE ENERGY PREDICTED BY IDOCK:   -6.22 KCAL/MOL
REMARK 924 INTRA-LIGAND FREE ENERGY PREDICTED BY IDOCK:   -1.52 KCAL/MOL
REMARK 927      BINDING AFFINITY PREDICTED BY RF-SCORE:    0.00 PKD
ROOT
HETATM    1  C   UNL     1     -10.055   5.557  66.684  1.00  0.00    -0.245 C  
HETATM    2  C   UNL     1      -9.459   5.608  68.079  1.00  0.00    -0.121 C  
ENDROOT
BRANCH   2   3
HETATM    3  C   UNL     1      -8.055   6.215  68.082  1.00  0.00    -0.111 C  
BRANCH   3   4
HETATM    4  C   UNL     1      -8.075   7.581  68.767  1.00  0.00    -0.128 C  
BRANCH   4   5
HETATM    5  C   UNL     1      -8.991   7.610  69.993  1.00  0.00    -0.143 C  
BRANCH   5   6
HETATM    6  C   UNL     1     -10.030   8.743  69.944  1.00  0.00    -0.187 C  
HETATM    7  O   UNL     1     -11.315   8.135  69.866  1.00  0.00    -0.450 OA 
HETATM    8  H   UNL     1     -11.958   8.835  69.836  1.00  0.00     0.000 HD 
BRANCH   6   9
HETATM    9  C   UNL     1      -9.812   9.693  68.788  1.00  0.00    -0.173 C  
HETATM   10  C   UNL     1     -10.746  10.208  67.972  1.00  0.00    -0.305 C  
BRANCH  10  11
HETATM   11  C   UNL     1     -10.440  11.028  66.737  1.00  0.00    -0.300 C  
HETATM   12  C   UNL     1     -10.119  10.094  65.551  1.00  0.00    -0.268 C  
HETATM   13  O   UNL     1      -8.786   9.605  65.602  1.00  0.00    -0.129 OA 
HETATM   14  C   UNL     1     -10.334  10.931  64.307  1.00  0.00    -0.436 C  
HETATM   15  H   UNL     1      -8.589   9.030  64.871  1.00  0.00     0.000 HD 
HETATM   16  C   UNL     1     -11.478  11.796  64.735  1.00  0.00    -0.215 C  
HETATM   17  O   UNL     1     -12.217  12.349  63.929  1.00  0.00    -0.436 OA 
HETATM   18  C   UNL     1     -11.608  11.919  66.246  1.00  0.00    -0.317 C  
BRANCH  18  19
HETATM   19  C   UNL     1     -11.449  13.372  66.735  1.00  0.00    -0.376 C  
BRANCH  19  20
HETATM   20  C   UNL     1     -10.013  13.746  67.129  1.00  0.00    -0.243 C  
BRANCH  20  21
HETATM   21  C   UNL     1      -9.976  14.703  68.323  1.00  0.00    -0.222 C  
BRANCH  21  22
HETATM   22  C   UNL     1      -9.001  15.857  68.071  1.00  0.00    -0.182 C  
BRANCH  22  23
HETATM   23  C   UNL     1      -8.636  15.965  66.590  1.00  0.00    -0.320 C  
BRANCH  23  24
HETATM   24  C   UNL     1      -7.182  16.398  66.396  1.00  0.00     0.004 C  
HETATM   25  C   UNL     1      -7.086  17.835  65.934  1.00  0.00    -0.243 C  
HETATM   26  O   UNL     1      -8.030  18.580  65.735  1.00  0.00    -0.498 OA 
HETATM   27  O   UNL     1      -5.804  18.227  65.754  1.00  0.00    -0.174 OA 
ENDBRANCH  23  24
ENDBRANCH  22  23
ENDBRANCH  21  22
ENDBRANCH  20  21
ENDBRANCH  19  20
ENDBRANCH  18  19
ENDBRANCH  10  11
ENDBRANCH   6   9
ENDBRANCH   5   6
ENDBRANCH   4   5
ENDBRANCH   3   4
ENDBRANCH   2   3
TORSDOF 12
ENDMDL
MODEL      303
REMARK 921   NORMALIZED FREE ENERGY PREDICTED BY IDOCK:   -3.36 KCAL/MOL
REMARK 922        TOTAL FREE ENERGY PREDICTED BY IDOCK:   -7.66 KCAL/MOL
REMARK 923 INTER-LIGAND FREE ENERGY PREDICTED BY IDOCK:   -7.37 KCAL/MOL
REMARK 924 INTRA-LIGAND FREE ENERGY PREDICTED BY IDOCK:   -0.29 KCAL/MOL
REMARK 927      BINDING AFFINITY PREDICTED BY RF-SCORE:    0.00 PKD
ROOT
HETATM    1  C   UNL     1      -9.695  20.371  67.288  1.00  0.00    -0.602 C  
HETATM    2  C   UNL     1      -9.764  19.839  68.709  1.00  0.00    -0.428 C  
ENDROOT
BRANCH   2   3
HETATM    3  C   UNL     1      -9.425  18.349  68.780  1.00  0.00    -0.317 C  
BRANCH   3   4
HETATM    4  C   UNL     1     -10.618  17.516  68.316  1.00  0.00    -0.354 C  
BRANCH   4   5
HETATM    5  C   UNL     1     -10.544  17.159  66.830  1.00  0.00    -0.192 C  
BRANCH   5   6
HETATM    6  C   UNL     1      -9.414  16.168  66.502  1.00  0.00    -0.264 C  
HETATM    7  O   UNL     1      -8.456  16.866  65.712  1.00  0.00    -0.492 OA 
HETATM    8  H   UNL     1      -7.758  16.253  65.509  1.00  0.00     0.000 HD 
BRANCH   6   9
HETATM    9  C   UNL     1      -9.906  14.930  65.784  1.00  0.00    -0.380 C  
HETATM   10  C   UNL     1     -10.583  13.899  66.315  1.00  0.00    -0.289 C  
BRANCH  10  11
HETATM   11  C   UNL     1     -10.906  12.620  65.572  1.00  0.00    -0.310 C  
HETATM   12  C   UNL     1     -11.962  12.897  64.481  1.00  0.00    -0.395 C  
HETATM   13  O   UNL     1     -13.277  12.963  65.015  1.00  0.00    -0.765 OA 
HETATM   14  C   UNL     1     -11.840  11.750  63.501  1.00  0.00    -0.481 C  
HETATM   15  H   UNL     1     -13.927  13.133  64.343  1.00  0.00     0.000 HD 
HETATM   16  C   UNL     1     -10.369  11.480  63.551  1.00  0.00    -0.433 C  
HETATM   17  O   UNL     1      -9.778  10.900  62.648  1.00  0.00    -0.276 OA 
HETATM   18  C   UNL     1      -9.708  11.985  64.825  1.00  0.00    -0.108 C  
BRANCH  18  19
HETATM   19  C   UNL     1      -9.071  10.849  65.648  1.00  0.00    -0.223 C  
BRANCH  19  20
HETATM   20  C   UNL     1      -9.424   9.441  65.150  1.00  0.00    -0.255 C  
BRANCH  20  21
HETATM   21  C   UNL     1      -8.255   8.782  64.413  1.00  0.00    -0.169 C  
BRANCH  21  22
HETATM   22  C   UNL     1      -7.181   8.310  65.399  1.00  0.00    -0.071 C  
BRANCH  22  23
HETATM   23  C   UNL     1      -7.639   7.073  66.172  1.00  0.00    -0.095 C  
BRANCH  23  24
HETATM   24  C   UNL     1      -8.375   6.082  65.268  1.00  0.00    -0.148 C  
HETATM   25  C   UNL     1      -8.324   4.677  65.826  1.00  0.00    -0.115 C  
HETATM   26  O   UNL     1      -7.775   4.345  66.863  1.00  0.00    -0.091 OA 
HETATM   27  O   UNL     1      -8.966   3.791  65.031  1.00  0.00    -0.121 OA 
ENDBRANCH  23  24
ENDBRANCH  22  23
ENDBRANCH  21  22
ENDBRANCH  20  21
ENDBRANCH  19  20
ENDBRANCH  18  19
ENDBRANCH  10  11
ENDBRANCH   6   9
ENDBRANCH   5   6
ENDBRANCH   4   5
ENDBRANCH   3   4
ENDBRANCH   2   3
TORSDOF 12
ENDMDL
MODEL      304
REMARK 921   NORMALIZED FREE ENERGY PREDICTED BY IDOCK:   -3.36 KCAL/MOL
REMARK 922        TOTAL FREE ENERGY PREDICTED BY IDOCK:   -7.66 KCAL/MOL
REMARK 923 INTER-LIGAND FREE ENERGY PREDICTED BY IDOCK:   -6.43 KCAL/MOL
REMARK 924 INTRA-LIGAND FREE ENERGY PREDICTED BY IDOCK:   -1.22 KCAL/MOL
REMARK 927      BINDING AFFINITY PREDICTED BY RF-SCORE:    0.00 PKD
ROOT
HETATM    1  C   UNL     1      -9.484   5.094  73.201  1.00  0.00    -0.145 C  
HETATM    2  C   UNL     1     -10.537   6.179  73.341  1.00  0.00    -0.288 C  
ENDROOT
BRANCH   2   3
HETATM    3  C   UNL     1      -9.916   7.575  73.418  1.00  0.00    -0.378 C  
BRANCH   3   4
HETATM    4  C   UNL     1     -10.203   8.349  72.132  1.00  0.00    -0.390 C  
BRANCH   4   5
HETATM    5  C   UNL     1     -11.675   8.748  72.002  1.00  0.00    -0.442 C  
BRANCH   5   6
HETATM    6  C   UNL     1     -11.901   9.909  71.018  1.00  0.00    -0.376 C  
HETATM    7  O   UNL     1     -13.278   9.895  70.657  1.00  0.00    -0.594 OA 
HETATM    8  H   UNL     1     -13.418  10.612  70.049  1.00  0.00     0.000 HD 
BRANCH   6   9
HETATM    9  C   UNL     1     -11.021   9.821  69.790  1.00  0.00    -0.287 C  
HETATM   10  C   UNL     1     -10.324  10.816  69.217  1.00  0.00    -0.228 C  
BRANCH  10  11
HETATM   11  C   UNL     1      -9.590  10.693  67.899  1.00  0.00    -0.174 C  
HETATM   12  C   UNL     1     -10.236   9.587  67.038  1.00  0.00    -0.255 C  
HETATM   13  O   UNL     1      -9.819   8.288  67.435  1.00  0.00    -0.161 OA 
HETATM   14  C   UNL     1      -9.804   9.876  65.617  1.00  0.00    -0.368 C  
HETATM   15  H   UNL     1     -10.217   7.607  66.905  1.00  0.00     0.000 HD 
HETATM   16  C   UNL     1      -9.769  11.372  65.624  1.00  0.00    -0.231 C  
HETATM   17  O   UNL     1      -9.840  12.034  64.594  1.00  0.00    -0.237 OA 
HETATM   18  C   UNL     1      -9.625  11.965  67.018  1.00  0.00    -0.196 C  
BRANCH  18  19
HETATM   19  C   UNL     1      -8.335  12.793  67.176  1.00  0.00    -0.164 C  
BRANCH  19  20
HETATM   20  C   UNL     1      -7.661  12.646  68.547  1.00  0.00    -0.114 C  
BRANCH  20  21
HETATM   21  C   UNL     1      -7.443  13.999  69.229  1.00  0.00     0.059 C  
BRANCH  21  22
HETATM   22  C   UNL     1      -8.371  15.066  68.640  1.00  0.00    -0.166 C  
BRANCH  22  23
HETATM   23  C   UNL     1      -9.500  15.419  69.608  1.00  0.00    -0.220 C  
BRANCH  23  24
HETATM   24  C   UNL     1     -10.709  14.500  69.425  1.00  0.00    -0.213 C  
HETATM   25  C   UNL     1     -11.885  14.955  70.259  1.00  0.00    -0.307 C  
HETATM   26  O   UNL     1     -11.900  15.929  70.993  1.00  0.00    -0.374 OA 
HETATM   27  O   UNL     1     -12.958  14.145  70.110  1.00  0.00    -0.184 OA 
ENDBRANCH  23  24
ENDBRANCH  22  23
ENDBRANCH  21  22
ENDBRANCH  20  21
ENDBRANCH  19  20
ENDBRANCH  18  19
ENDBRANCH  10  11
ENDBRANCH   6   9
ENDBRANCH   5   6
ENDBRANCH   4   5
ENDBRANCH   3   4
ENDBRANCH   2   3
TORSDOF 12
ENDMDL
MODEL      305
REMARK 921   NORMALIZED FREE ENERGY PREDICTED BY IDOCK:   -3.35 KCAL/MOL
REMARK 922        TOTAL FREE ENERGY PREDICTED BY IDOCK:   -7.65 KCAL/MOL
REMARK 923 INTER-LIGAND FREE ENERGY PREDICTED BY IDOCK:   -5.74 KCAL/MOL
REMARK 924 INTRA-LIGAND FREE ENERGY PREDICTED BY IDOCK:   -1.91 KCAL/MOL
REMARK 927      BINDING AFFINITY PREDICTED BY RF-SCORE:    0.00 PKD
ROOT
HETATM    1  C   UNL     1      -5.400  12.949  71.063  1.00  0.00    -0.181 C  
HETATM    2  C   UNL     1      -5.446  14.419  70.684  1.00  0.00    -0.143 C  
ENDROOT
BRANCH   2   3
HETATM    3  C   UNL     1      -6.117  14.641  69.327  1.00  0.00    -0.107 C  
BRANCH   3   4
HETATM    4  C   UNL     1      -6.986  13.436  68.969  1.00  0.00    -0.084 C  
BRANCH   4   5
HETATM    5  C   UNL     1      -8.410  13.835  68.575  1.00  0.00    -0.120 C  
BRANCH   5   6
HETATM    6  C   UNL     1      -9.212  12.678  67.955  1.00  0.00    -0.201 C  
HETATM    7  O   UNL     1     -10.138  12.230  68.939  1.00  0.00    -0.406 OA 
HETATM    8  H   UNL     1     -10.634  11.515  68.555  1.00  0.00     0.000 HD 
BRANCH   6   9
HETATM    9  C   UNL     1      -8.334  11.539  67.483  1.00  0.00    -0.143 C  
HETATM   10  C   UNL     1      -8.597  10.224  67.561  1.00  0.00    -0.118 C  
BRANCH  10  11
HETATM   11  C   UNL     1      -7.605   9.135  67.214  1.00  0.00    -0.088 C  
HETATM   12  C   UNL     1      -7.815   7.917  68.138  1.00  0.00    -0.127 C  
HETATM   13  O   UNL     1      -7.218   8.106  69.414  1.00  0.00    -0.064 OA 
HETATM   14  C   UNL     1      -7.179   6.748  67.418  1.00  0.00    -0.090 C  
HETATM   15  H   UNL     1      -7.348   7.356  69.983  1.00  0.00     0.000 HD 
HETATM   16  C   UNL     1      -7.466   7.096  65.991  1.00  0.00    -0.080 C  
HETATM   17  O   UNL     1      -7.470   6.254  65.100  1.00  0.00    -0.074 OA 
HETATM   18  C   UNL     1      -7.734   8.578  65.775  1.00  0.00    -0.098 C  
BRANCH  18  19
HETATM   19  C   UNL     1      -6.709   9.230  64.827  1.00  0.00    -0.080 C  
BRANCH  19  20
HETATM   20  C   UNL     1      -7.300   9.693  63.489  1.00  0.00    -0.113 C  
BRANCH  20  21
HETATM   21  C   UNL     1      -8.817   9.495  63.431  1.00  0.00    -0.236 C  
BRANCH  21  22
HETATM   22  C   UNL     1      -9.536  10.828  63.199  1.00  0.00    -0.359 C  
BRANCH  22  23
HETATM   23  C   UNL     1     -10.533  11.127  64.318  1.00  0.00    -0.427 C  
BRANCH  23  24
HETATM   24  C   UNL     1     -10.889  12.613  64.377  1.00  0.00    -0.386 C  
HETATM   25  C   UNL     1     -12.226  12.892  63.728  1.00  0.00    -0.476 C  
HETATM   26  O   UNL     1     -12.953  12.057  63.216  1.00  0.00    -0.736 OA 
HETATM   27  O   UNL     1     -12.548  14.204  63.769  1.00  0.00    -0.804 OA 
ENDBRANCH  23  24
ENDBRANCH  22  23
ENDBRANCH  21  22
ENDBRANCH  20  21
ENDBRANCH  19  20
ENDBRANCH  18  19
ENDBRANCH  10  11
ENDBRANCH   6   9
ENDBRANCH   5   6
ENDBRANCH   4   5
ENDBRANCH   3   4
ENDBRANCH   2   3
TORSDOF 12
ENDMDL
MODEL      306
REMARK 921   NORMALIZED FREE ENERGY PREDICTED BY IDOCK:   -3.34 KCAL/MOL
REMARK 922        TOTAL FREE ENERGY PREDICTED BY IDOCK:   -7.64 KCAL/MOL
REMARK 923 INTER-LIGAND FREE ENERGY PREDICTED BY IDOCK:   -6.19 KCAL/MOL
REMARK 924 INTRA-LIGAND FREE ENERGY PREDICTED BY IDOCK:   -1.45 KCAL/MOL
REMARK 927      BINDING AFFINITY PREDICTED BY RF-SCORE:    0.00 PKD
ROOT
HETATM    1  C   UNL     1     -11.618  14.042  67.049  1.00  0.00    -0.394 C  
HETATM    2  C   UNL     1     -12.236  13.636  65.723  1.00  0.00    -0.503 C  
ENDROOT
BRANCH   2   3
HETATM    3  C   UNL     1     -11.818  12.226  65.303  1.00  0.00    -0.411 C  
BRANCH   3   4
HETATM    4  C   UNL     1     -10.316  12.040  65.514  1.00  0.00    -0.298 C  
BRANCH   4   5
HETATM    5  C   UNL     1      -9.998  11.062  66.647  1.00  0.00    -0.249 C  
BRANCH   5   6
HETATM    6  C   UNL     1      -9.381   9.742  66.152  1.00  0.00    -0.191 C  
HETATM    7  O   UNL     1      -9.839   9.535  64.820  1.00  0.00    -0.416 OA 
HETATM    8  H   UNL     1      -9.458   8.720  64.514  1.00  0.00     0.000 HD 
BRANCH   6   9
HETATM    9  C   UNL     1      -9.731   8.562  67.032  1.00  0.00    -0.266 C  
HETATM   10  C   UNL     1      -8.990   7.463  67.248  1.00  0.00    -0.128 C  
BRANCH  10  11
HETATM   11  C   UNL     1      -9.470   6.249  68.015  1.00  0.00    -0.116 C  
HETATM   12  C   UNL     1      -9.936   5.155  67.032  1.00  0.00    -0.196 C  
HETATM   13  O   UNL     1     -11.244   5.405  66.534  1.00  0.00    -0.502 OA 
HETATM   14  C   UNL     1      -9.901   3.862  67.819  1.00  0.00    -0.060 C  
HETATM   15  H   UNL     1     -11.530   4.731  65.929  1.00  0.00     0.000 HD 
HETATM   16  C   UNL     1      -8.722   4.097  68.710  1.00  0.00    -0.096 C  
HETATM   17  O   UNL     1      -8.105   3.178  69.235  1.00  0.00    -0.049 OA 
HETATM   18  C   UNL     1      -8.391   5.571  68.895  1.00  0.00    -0.102 C  
BRANCH  18  19
HETATM   19  C   UNL     1      -8.501   6.020  70.364  1.00  0.00    -0.132 C  
BRANCH  19  20
HETATM   20  C   UNL     1      -9.885   6.560  70.751  1.00  0.00    -0.201 C  
BRANCH  20  21
HETATM   21  C   UNL     1      -9.815   7.524  71.939  1.00  0.00    -0.196 C  
BRANCH  21  22
HETATM   22  C   UNL     1      -9.263   8.886  71.507  1.00  0.00    -0.322 C  
BRANCH  22  23
HETATM   23  C   UNL     1     -10.092   9.489  70.373  1.00  0.00    -0.329 C  
BRANCH  23  24
HETATM   24  C   UNL     1     -11.593   9.324  70.619  1.00  0.00    -0.305 C  
HETATM   25  C   UNL     1     -12.323  10.643  70.511  1.00  0.00    -0.359 C  
HETATM   26  O   UNL     1     -11.809  11.720  70.258  1.00  0.00    -0.329 OA 
HETATM   27  O   UNL     1     -13.650  10.509  70.733  1.00  0.00    -0.044 OA 
ENDBRANCH  23  24
ENDBRANCH  22  23
ENDBRANCH  21  22
ENDBRANCH  20  21
ENDBRANCH  19  20
ENDBRANCH  18  19
ENDBRANCH  10  11
ENDBRANCH   6   9
ENDBRANCH   5   6
ENDBRANCH   4   5
ENDBRANCH   3   4
ENDBRANCH   2   3
TORSDOF 12
ENDMDL
MODEL      307
REMARK 921   NORMALIZED FREE ENERGY PREDICTED BY IDOCK:   -3.34 KCAL/MOL
REMARK 922        TOTAL FREE ENERGY PREDICTED BY IDOCK:   -7.63 KCAL/MOL
REMARK 923 INTER-LIGAND FREE ENERGY PREDICTED BY IDOCK:   -5.91 KCAL/MOL
REMARK 924 INTRA-LIGAND FREE ENERGY PREDICTED BY IDOCK:   -1.72 KCAL/MOL
REMARK 927      BINDING AFFINITY PREDICTED BY RF-SCORE:    0.00 PKD
ROOT
HETATM    1  C   UNL     1     -12.315  12.563  64.132  1.00  0.00    -0.548 C  
HETATM    2  C   UNL     1     -11.498  11.363  64.574  1.00  0.00    -0.123 C  
ENDROOT
BRANCH   2   3
HETATM    3  C   UNL     1     -10.159  11.277  63.838  1.00  0.00    -0.392 C  
BRANCH   3   4
HETATM    4  C   UNL     1      -9.196  10.373  64.606  1.00  0.00    -0.282 C  
BRANCH   4   5
HETATM    5  C   UNL     1      -9.914   9.240  65.343  1.00  0.00     0.095 C  
BRANCH   5   6
HETATM    6  C   UNL     1      -9.321   8.953  66.733  1.00  0.00    -0.175 C  
HETATM    7  O   UNL     1     -10.382   8.477  67.556  1.00  0.00    -0.232 OA 
HETATM    8  H   UNL     1     -10.016   8.300  68.415  1.00  0.00     0.000 HD 
BRANCH   6   9
HETATM    9  C   UNL     1      -8.660  10.164  67.354  1.00  0.00    -0.122 C  
HETATM   10  C   UNL     1      -9.262  11.181  67.992  1.00  0.00    -0.159 C  
BRANCH  10  11
HETATM   11  C   UNL     1      -8.553  12.438  68.449  1.00  0.00    -0.129 C  
HETATM   12  C   UNL     1      -7.064  12.135  68.717  1.00  0.00    -0.110 C  
HETATM   13  O   UNL     1      -6.862  11.517  69.981  1.00  0.00    -0.351 OA 
HETATM   14  C   UNL     1      -6.362  13.475  68.660  1.00  0.00    -0.091 C  
HETATM   15  H   UNL     1      -5.945  11.331  70.145  1.00  0.00     0.000 HD 
HETATM   16  C   UNL     1      -7.160  14.175  67.605  1.00  0.00    -0.183 C  
HETATM   17  O   UNL     1      -6.718  15.128  66.974  1.00  0.00    -0.235 OA 
HETATM   18  C   UNL     1      -8.553  13.593  67.418  1.00  0.00    -0.212 C  
BRANCH  18  19
HETATM   19  C   UNL     1      -9.665  14.615  67.720  1.00  0.00    -0.215 C  
BRANCH  19  20
HETATM   20  C   UNL     1     -10.657  14.821  66.567  1.00  0.00    -0.299 C  
BRANCH  20  21
HETATM   21  C   UNL     1     -10.244  15.978  65.653  1.00  0.00    -0.412 C  
BRANCH  21  22
HETATM   22  C   UNL     1     -10.012  17.259  66.461  1.00  0.00    -0.310 C  
BRANCH  22  23
HETATM   23  C   UNL     1      -8.532  17.639  66.490  1.00  0.00    -0.294 C  
BRANCH  23  24
HETATM   24  C   UNL     1      -8.047  17.915  67.915  1.00  0.00    -0.244 C  
HETATM   25  C   UNL     1      -7.487  19.313  68.051  1.00  0.00    -0.277 C  
HETATM   26  O   UNL     1      -7.420  20.140  67.158  1.00  0.00    -0.262 OA 
HETATM   27  O   UNL     1      -7.050  19.566  69.306  1.00  0.00    -0.353 OA 
ENDBRANCH  23  24
ENDBRANCH  22  23
ENDBRANCH  21  22
ENDBRANCH  20  21
ENDBRANCH  19  20
ENDBRANCH  18  19
ENDBRANCH  10  11
ENDBRANCH   6   9
ENDBRANCH   5   6
ENDBRANCH   4   5
ENDBRANCH   3   4
ENDBRANCH   2   3
TORSDOF 12
ENDMDL
MODEL      308
REMARK 921   NORMALIZED FREE ENERGY PREDICTED BY IDOCK:   -3.34 KCAL/MOL
REMARK 922        TOTAL FREE ENERGY PREDICTED BY IDOCK:   -7.63 KCAL/MOL
REMARK 923 INTER-LIGAND FREE ENERGY PREDICTED BY IDOCK:   -5.42 KCAL/MOL
REMARK 924 INTRA-LIGAND FREE ENERGY PREDICTED BY IDOCK:   -2.21 KCAL/MOL
REMARK 927      BINDING AFFINITY PREDICTED BY RF-SCORE:    0.00 PKD
ROOT
HETATM    1  C   UNL     1      -7.011  15.944  67.487  1.00  0.00    -0.209 C  
HETATM    2  C   UNL     1      -7.550  14.880  68.426  1.00  0.00    -0.113 C  
ENDROOT
BRANCH   2   3
HETATM    3  C   UNL     1      -7.810  13.556  67.705  1.00  0.00    -0.167 C  
BRANCH   3   4
HETATM    4  C   UNL     1      -8.122  12.458  68.721  1.00  0.00     0.074 C  
BRANCH   4   5
HETATM    5  C   UNL     1      -6.936  12.150  69.638  1.00  0.00     0.194 C  
BRANCH   5   6
HETATM    6  C   UNL     1      -6.722  10.644  69.865  1.00  0.00    -0.147 C  
HETATM    7  O   UNL     1      -6.035  10.138  68.725  1.00  0.00    -0.041 OA 
HETATM    8  H   UNL     1      -5.903   9.207  68.865  1.00  0.00     0.000 HD 
BRANCH   6   9
HETATM    9  C   UNL     1      -8.016   9.893  70.092  1.00  0.00    -0.181 C  
HETATM   10  C   UNL     1      -8.655   9.095  69.222  1.00  0.00    -0.137 C  
BRANCH  10  11
HETATM   11  C   UNL     1     -10.027   8.501  69.460  1.00  0.00    -0.193 C  
HETATM   12  C   UNL     1     -10.367   7.494  68.340  1.00  0.00    -0.195 C  
HETATM   13  O   UNL     1     -10.812   8.142  67.156  1.00  0.00    -0.464 OA 
HETATM   14  C   UNL     1     -11.457   6.610  68.908  1.00  0.00    -0.103 C  
HETATM   15  H   UNL     1     -11.021   7.522  66.467  1.00  0.00     0.000 HD 
HETATM   16  C   UNL     1     -11.056   6.545  70.348  1.00  0.00    -0.332 C  
HETATM   17  O   UNL     1     -11.428   5.644  71.091  1.00  0.00    -0.088 OA 
HETATM   18  C   UNL     1     -10.166   7.702  70.779  1.00  0.00    -0.201 C  
BRANCH  18  19
HETATM   19  C   UNL     1     -10.808   8.557  71.888  1.00  0.00    -0.392 C  
BRANCH  19  20
HETATM   20  C   UNL     1     -12.190   9.117  71.527  1.00  0.00    -0.422 C  
BRANCH  20  21
HETATM   21  C   UNL     1     -12.198  10.647  71.484  1.00  0.00    -0.345 C  
BRANCH  21  22
HETATM   22  C   UNL     1     -12.710  11.156  70.133  1.00  0.00    -0.157 C  
BRANCH  22  23
HETATM   23  C   UNL     1     -11.631  11.941  69.387  1.00  0.00    -0.388 C  
BRANCH  23  24
HETATM   24  C   UNL     1     -11.585  11.569  67.904  1.00  0.00    -0.352 C  
HETATM   25  C   UNL     1     -11.646  12.795  67.021  1.00  0.00    -0.360 C  
HETATM   26  O   UNL     1     -11.721  13.947  67.412  1.00  0.00    -0.345 OA 
HETATM   27  O   UNL     1     -11.612  12.478  65.707  1.00  0.00    -0.351 OA 
ENDBRANCH  23  24
ENDBRANCH  22  23
ENDBRANCH  21  22
ENDBRANCH  20  21
ENDBRANCH  19  20
ENDBRANCH  18  19
ENDBRANCH  10  11
ENDBRANCH   6   9
ENDBRANCH   5   6
ENDBRANCH   4   5
ENDBRANCH   3   4
ENDBRANCH   2   3
TORSDOF 12
ENDMDL
MODEL      309
REMARK 921   NORMALIZED FREE ENERGY PREDICTED BY IDOCK:   -3.34 KCAL/MOL
REMARK 922        TOTAL FREE ENERGY PREDICTED BY IDOCK:   -7.63 KCAL/MOL
REMARK 923 INTER-LIGAND FREE ENERGY PREDICTED BY IDOCK:   -6.21 KCAL/MOL
REMARK 924 INTRA-LIGAND FREE ENERGY PREDICTED BY IDOCK:   -1.42 KCAL/MOL
REMARK 927      BINDING AFFINITY PREDICTED BY RF-SCORE:    0.00 PKD
ROOT
HETATM    1  C   UNL     1      -9.471   2.530  70.368  1.00  0.00    -0.178 C  
HETATM    2  C   UNL     1      -8.206   2.061  69.671  1.00  0.00    -0.065 C  
ENDROOT
BRANCH   2   3
HETATM    3  C   UNL     1      -7.739   3.051  68.602  1.00  0.00    -0.051 C  
BRANCH   3   4
HETATM    4  C   UNL     1      -8.902   3.944  68.171  1.00  0.00    -0.140 C  
BRANCH   4   5
HETATM    5  C   UNL     1      -8.970   4.130  66.654  1.00  0.00    -0.128 C  
BRANCH   5   6
HETATM    6  C   UNL     1      -9.822   5.339  66.231  1.00  0.00    -0.182 C  
HETATM    7  O   UNL     1      -9.290   5.822  65.001  1.00  0.00    -0.352 OA 
HETATM    8  H   UNL     1      -9.817   6.569  64.740  1.00  0.00     0.000 HD 
BRANCH   6   9
HETATM    9  C   UNL     1      -9.848   6.435  67.274  1.00  0.00    -0.169 C  
HETATM   10  C   UNL     1     -10.653   7.510  67.302  1.00  0.00    -0.394 C  
BRANCH  10  11
HETATM   11  C   UNL     1     -10.518   8.649  68.290  1.00  0.00    -0.234 C  
HETATM   12  C   UNL     1     -10.366   8.090  69.721  1.00  0.00    -0.219 C  
HETATM   13  O   UNL     1     -11.615   7.704  70.279  1.00  0.00    -0.454 OA 
HETATM   14  C   UNL     1      -9.743   9.209  70.528  1.00  0.00    -0.287 C  
HETATM   15  H   UNL     1     -11.521   7.360  71.160  1.00  0.00     0.000 HD 
HETATM   16  C   UNL     1      -8.854   9.843  69.505  1.00  0.00    -0.197 C  
HETATM   17  O   UNL     1      -7.890  10.535  69.814  1.00  0.00    -0.139 OA 
HETATM   18  C   UNL     1      -9.278   9.551  68.074  1.00  0.00    -0.136 C  
BRANCH  18  19
HETATM   19  C   UNL     1      -9.642  10.828  67.294  1.00  0.00    -0.182 C  
BRANCH  19  20
HETATM   20  C   UNL     1     -11.152  11.063  67.148  1.00  0.00    -0.333 C  
BRANCH  20  21
HETATM   21  C   UNL     1     -11.493  12.551  67.024  1.00  0.00    -0.419 C  
BRANCH  21  22
HETATM   22  C   UNL     1     -10.794  13.366  68.116  1.00  0.00    -0.273 C  
BRANCH  22  23
HETATM   23  C   UNL     1     -11.805  14.090  69.005  1.00  0.00    -0.391 C  
BRANCH  23  24
HETATM   24  C   UNL     1     -12.464  13.138  70.005  1.00  0.00    -0.143 C  
HETATM   25  C   UNL     1     -12.692  13.806  71.342  1.00  0.00    -0.367 C  
HETATM   26  O   UNL     1     -12.401  14.957  71.619  1.00  0.00    -0.307 OA 
HETATM   27  O   UNL     1     -13.269  12.970  72.236  1.00  0.00    -0.471 OA 
ENDBRANCH  23  24
ENDBRANCH  22  23
ENDBRANCH  21  22
ENDBRANCH  20  21
ENDBRANCH  19  20
ENDBRANCH  18  19
ENDBRANCH  10  11
ENDBRANCH   6   9
ENDBRANCH   5   6
ENDBRANCH   4   5
ENDBRANCH   3   4
ENDBRANCH   2   3
TORSDOF 12
ENDMDL
MODEL      310
REMARK 921   NORMALIZED FREE ENERGY PREDICTED BY IDOCK:   -3.33 KCAL/MOL
REMARK 922        TOTAL FREE ENERGY PREDICTED BY IDOCK:   -7.62 KCAL/MOL
REMARK 923 INTER-LIGAND FREE ENERGY PREDICTED BY IDOCK:   -5.94 KCAL/MOL
REMARK 924 INTRA-LIGAND FREE ENERGY PREDICTED BY IDOCK:   -1.68 KCAL/MOL
REMARK 927      BINDING AFFINITY PREDICTED BY RF-SCORE:    0.00 PKD
ROOT
HETATM    1  C   UNL     1     -12.190  12.603  63.496  1.00  0.00    -0.638 C  
HETATM    2  C   UNL     1     -12.300  12.807  64.997  1.00  0.00    -0.559 C  
ENDROOT
BRANCH   2   3
HETATM    3  C   UNL     1     -11.958  14.241  65.408  1.00  0.00    -0.383 C  
BRANCH   3   4
HETATM    4  C   UNL     1     -10.461  14.492  65.238  1.00  0.00    -0.411 C  
BRANCH   4   5
HETATM    5  C   UNL     1      -9.745  14.708  66.573  1.00  0.00    -0.297 C  
BRANCH   5   6
HETATM    6  C   UNL     1      -9.839  13.494  67.513  1.00  0.00    -0.227 C  
HETATM    7  O   UNL     1      -9.655  13.972  68.842  1.00  0.00    -0.371 OA 
HETATM    8  H   UNL     1      -9.713  13.222  69.423  1.00  0.00     0.000 HD 
BRANCH   6   9
HETATM    9  C   UNL     1      -8.831  12.415  67.184  1.00  0.00    -0.197 C  
HETATM   10  C   UNL     1      -8.982  11.399  66.318  1.00  0.00    -0.205 C  
BRANCH  10  11
HETATM   11  C   UNL     1      -7.993  10.265  66.155  1.00  0.00    -0.131 C  
HETATM   12  C   UNL     1      -6.635  10.658  66.773  1.00  0.00    -0.091 C  
HETATM   13  O   UNL     1      -5.876  11.493  65.909  1.00  0.00    -0.485 OA 
HETATM   14  C   UNL     1      -5.912   9.352  67.024  1.00  0.00    -0.056 C  
HETATM   15  H   UNL     1      -5.040  11.735  66.290  1.00  0.00     0.000 HD 
HETATM   16  C   UNL     1      -7.054   8.453  67.382  1.00  0.00    -0.080 C  
HETATM   17  O   UNL     1      -6.897   7.419  68.021  1.00  0.00    -0.065 OA 
HETATM   18  C   UNL     1      -8.396   8.949  66.864  1.00  0.00    -0.112 C  
BRANCH  18  19
HETATM   19  C   UNL     1      -9.050   7.959  65.881  1.00  0.00    -0.139 C  
BRANCH  19  20
HETATM   20  C   UNL     1      -9.985   6.941  66.548  1.00  0.00    -0.150 C  
BRANCH  20  21
HETATM   21  C   UNL     1     -10.760   7.552  67.718  1.00  0.00    -0.233 C  
BRANCH  21  22
HETATM   22  C   UNL     1     -11.034   6.504  68.801  1.00  0.00    -0.371 C  
BRANCH  22  23
HETATM   23  C   UNL     1      -9.736   6.010  69.441  1.00  0.00    -0.176 C  
BRANCH  23  24
HETATM   24  C   UNL     1      -9.753   4.496  69.660  1.00  0.00    -0.288 C  
HETATM   25  C   UNL     1      -8.806   3.787  68.718  1.00  0.00    -0.110 C  
HETATM   26  O   UNL     1      -8.103   4.327  67.881  1.00  0.00    -0.093 OA 
HETATM   27  O   UNL     1      -8.818   2.447  68.899  1.00  0.00    -0.076 OA 
ENDBRANCH  23  24
ENDBRANCH  22  23
ENDBRANCH  21  22
ENDBRANCH  20  21
ENDBRANCH  19  20
ENDBRANCH  18  19
ENDBRANCH  10  11
ENDBRANCH   6   9
ENDBRANCH   5   6
ENDBRANCH   4   5
ENDBRANCH   3   4
ENDBRANCH   2   3
TORSDOF 12
ENDMDL
MODEL      311
REMARK 921   NORMALIZED FREE ENERGY PREDICTED BY IDOCK:   -3.33 KCAL/MOL
REMARK 922        TOTAL FREE ENERGY PREDICTED BY IDOCK:   -7.62 KCAL/MOL
REMARK 923 INTER-LIGAND FREE ENERGY PREDICTED BY IDOCK:   -5.81 KCAL/MOL
REMARK 924 INTRA-LIGAND FREE ENERGY PREDICTED BY IDOCK:   -1.81 KCAL/MOL
REMARK 927      BINDING AFFINITY PREDICTED BY RF-SCORE:    0.00 PKD
ROOT
HETATM    1  C   UNL     1      -8.936   5.860  66.592  1.00  0.00    -0.125 C  
HETATM    2  C   UNL     1      -9.035   4.512  67.284  1.00  0.00    -0.125 C  
ENDROOT
BRANCH   2   3
HETATM    3  C   UNL     1      -7.992   4.358  68.393  1.00  0.00    -0.078 C  
BRANCH   3   4
HETATM    4  C   UNL     1      -8.565   4.847  69.723  1.00  0.00    -0.102 C  
BRANCH   4   5
HETATM    5  C   UNL     1     -10.094   4.805  69.755  1.00  0.00    -0.289 C  
BRANCH   5   6
HETATM    6  C   UNL     1     -10.723   6.102  70.295  1.00  0.00    -0.291 C  
HETATM    7  O   UNL     1     -11.692   6.530  69.344  1.00  0.00    -0.649 OA 
HETATM    8  H   UNL     1     -12.080   7.331  69.677  1.00  0.00     0.000 HD 
BRANCH   6   9
HETATM    9  C   UNL     1      -9.702   7.189  70.552  1.00  0.00    -0.176 C  
HETATM   10  C   UNL     1      -9.720   8.447  70.082  1.00  0.00    -0.175 C  
BRANCH  10  11
HETATM   11  C   UNL     1      -8.585   9.435  70.250  1.00  0.00    -0.249 C  
HETATM   12  C   UNL     1      -7.483   8.825  71.142  1.00  0.00    -0.101 C  
HETATM   13  O   UNL     1      -7.809   8.906  72.524  1.00  0.00    -0.369 OA 
HETATM   14  C   UNL     1      -6.231   9.620  70.840  1.00  0.00    -0.087 C  
HETATM   15  H   UNL     1      -7.130   8.531  73.073  1.00  0.00     0.000 HD 
HETATM   16  C   UNL     1      -6.418   9.911  69.384  1.00  0.00    -0.046 C  
HETATM   17  O   UNL     1      -5.480  10.197  68.648  1.00  0.00    -0.039 OA 
HETATM   18  C   UNL     1      -7.869   9.827  68.934  1.00  0.00    -0.087 C  
BRANCH  18  19
HETATM   19  C   UNL     1      -8.395  11.168  68.388  1.00  0.00    -0.149 C  
BRANCH  19  20
HETATM   20  C   UNL     1      -9.167  11.046  67.067  1.00  0.00    -0.164 C  
BRANCH  20  21
HETATM   21  C   UNL     1     -10.047  12.270  66.799  1.00  0.00    -0.224 C  
BRANCH  21  22
HETATM   22  C   UNL     1     -11.497  12.004  67.214  1.00  0.00    -0.403 C  
BRANCH  22  23
HETATM   23  C   UNL     1     -11.744  12.406  68.668  1.00  0.00    -0.372 C  
BRANCH  23  24
HETATM   24  C   UNL     1     -11.986  11.187  69.559  1.00  0.00    -0.425 C  
HETATM   25  C   UNL     1     -12.431  11.590  70.947  1.00  0.00    -0.366 C  
HETATM   26  O   UNL     1     -12.587  12.735  71.336  1.00  0.00    -0.316 OA 
HETATM   27  O   UNL     1     -12.642  10.519  71.745  1.00  0.00    -0.405 OA 
ENDBRANCH  23  24
ENDBRANCH  22  23
ENDBRANCH  21  22
ENDBRANCH  20  21
ENDBRANCH  19  20
ENDBRANCH  18  19
ENDBRANCH  10  11
ENDBRANCH   6   9
ENDBRANCH   5   6
ENDBRANCH   4   5
ENDBRANCH   3   4
ENDBRANCH   2   3
TORSDOF 12
ENDMDL
MODEL      312
REMARK 921   NORMALIZED FREE ENERGY PREDICTED BY IDOCK:   -3.33 KCAL/MOL
REMARK 922        TOTAL FREE ENERGY PREDICTED BY IDOCK:   -7.62 KCAL/MOL
REMARK 923 INTER-LIGAND FREE ENERGY PREDICTED BY IDOCK:   -6.08 KCAL/MOL
REMARK 924 INTRA-LIGAND FREE ENERGY PREDICTED BY IDOCK:   -1.53 KCAL/MOL
REMARK 927      BINDING AFFINITY PREDICTED BY RF-SCORE:    0.00 PKD
ROOT
HETATM    1  C   UNL     1     -12.190  12.701  63.338  1.00  0.00    -0.610 C  
HETATM    2  C   UNL     1     -12.736  12.635  64.754  1.00  0.00    -0.460 C  
ENDROOT
BRANCH   2   3
HETATM    3  C   UNL     1     -12.922  14.026  65.363  1.00  0.00    -0.346 C  
BRANCH   3   4
HETATM    4  C   UNL     1     -11.561  14.656  65.655  1.00  0.00    -0.328 C  
BRANCH   4   5
HETATM    5  C   UNL     1     -11.371  14.985  67.137  1.00  0.00    -0.323 C  
BRANCH   5   6
HETATM    6  C   UNL     1     -11.520  13.757  68.052  1.00  0.00    -0.310 C  
HETATM    7  O   UNL     1     -11.465  14.222  69.397  1.00  0.00    -0.262 OA 
HETATM    8  H   UNL     1     -11.557  13.464  69.962  1.00  0.00     0.000 HD 
BRANCH   6   9
HETATM    9  C   UNL     1     -10.462  12.704  67.803  1.00  0.00    -0.228 C  
HETATM   10  C   UNL     1     -10.643  11.478  67.284  1.00  0.00    -0.266 C  
BRANCH  10  11
HETATM   11  C   UNL     1      -9.565  10.418  67.209  1.00  0.00    -0.182 C  
HETATM   12  C   UNL     1      -8.240  11.048  66.729  1.00  0.00    -0.149 C  
HETATM   13  O   UNL     1      -8.214  11.228  65.319  1.00  0.00    -0.370 OA 
HETATM   14  C   UNL     1      -7.154  10.087  67.165  1.00  0.00    -0.089 C  
HETATM   15  H   UNL     1      -7.398  11.615  65.024  1.00  0.00     0.000 HD 
HETATM   16  C   UNL     1      -7.717   9.582  68.457  1.00  0.00    -0.081 C  
HETATM   17  O   UNL     1      -7.013   9.083  69.327  1.00  0.00    -0.055 OA 
HETATM   18  C   UNL     1      -9.226   9.742  68.560  1.00  0.00    -0.134 C  
BRANCH  18  19
HETATM   19  C   UNL     1      -9.954   8.392  68.710  1.00  0.00    -0.197 C  
BRANCH  19  20
HETATM   20  C   UNL     1     -10.809   8.280  69.979  1.00  0.00    -0.232 C  
BRANCH  20  21
HETATM   21  C   UNL     1     -10.152   8.969  71.178  1.00  0.00    -0.365 C  
BRANCH  21  22
HETATM   22  C   UNL     1     -10.064   8.019  72.376  1.00  0.00    -0.332 C  
BRANCH  22  23
HETATM   23  C   UNL     1      -8.947   6.991  72.191  1.00  0.00    -0.140 C  
BRANCH  23  24
HETATM   24  C   UNL     1      -8.029   6.927  73.413  1.00  0.00    -0.108 C  
HETATM   25  C   UNL     1      -7.015   8.049  73.406  1.00  0.00    -0.110 C  
HETATM   26  O   UNL     1      -6.917   8.911  72.550  1.00  0.00    -0.312 OA 
HETATM   27  O   UNL     1      -6.194   7.998  74.480  1.00  0.00    -0.097 OA 
ENDBRANCH  23  24
ENDBRANCH  22  23
ENDBRANCH  21  22
ENDBRANCH  20  21
ENDBRANCH  19  20
ENDBRANCH  18  19
ENDBRANCH  10  11
ENDBRANCH   6   9
ENDBRANCH   5   6
ENDBRANCH   4   5
ENDBRANCH   3   4
ENDBRANCH   2   3
TORSDOF 12
ENDMDL
MODEL      313
REMARK 921   NORMALIZED FREE ENERGY PREDICTED BY IDOCK:   -3.33 KCAL/MOL
REMARK 922        TOTAL FREE ENERGY PREDICTED BY IDOCK:   -7.62 KCAL/MOL
REMARK 923 INTER-LIGAND FREE ENERGY PREDICTED BY IDOCK:   -5.89 KCAL/MOL
REMARK 924 INTRA-LIGAND FREE ENERGY PREDICTED BY IDOCK:   -1.73 KCAL/MOL
REMARK 927      BINDING AFFINITY PREDICTED BY RF-SCORE:    0.00 PKD
ROOT
HETATM    1  C   UNL     1      -9.782   6.403  66.711  1.00  0.00    -0.199 C  
HETATM    2  C   UNL     1      -9.988   5.131  67.514  1.00  0.00    -0.211 C  
ENDROOT
BRANCH   2   3
HETATM    3  C   UNL     1      -8.777   4.803  68.390  1.00  0.00    -0.112 C  
BRANCH   3   4
HETATM    4  C   UNL     1      -9.085   5.123  69.852  1.00  0.00    -0.162 C  
BRANCH   4   5
HETATM    5  C   UNL     1     -10.587   5.150  70.144  1.00  0.00    -0.225 C  
BRANCH   5   6
HETATM    6  C   UNL     1     -11.105   6.549  70.520  1.00  0.00    -0.319 C  
HETATM    7  O   UNL     1     -12.248   6.808  69.713  1.00  0.00    -0.610 OA 
HETATM    8  H   UNL     1     -12.568   7.673  69.945  1.00  0.00     0.000 HD 
BRANCH   6   9
HETATM    9  C   UNL     1     -10.062   7.631  70.341  1.00  0.00    -0.190 C  
HETATM   10  C   UNL     1     -10.220   8.819  69.736  1.00  0.00    -0.205 C  
BRANCH  10  11
HETATM   11  C   UNL     1      -9.091   9.788  69.453  1.00  0.00    -0.209 C  
HETATM   12  C   UNL     1      -7.777   9.259  70.066  1.00  0.00    -0.104 C  
HETATM   13  O   UNL     1      -7.698   9.514  71.462  1.00  0.00    -0.266 OA 
HETATM   14  C   UNL     1      -6.668   9.977  69.327  1.00  0.00    -0.057 C  
HETATM   15  H   UNL     1      -6.889   9.189  71.839  1.00  0.00     0.000 HD 
HETATM   16  C   UNL     1      -7.263  10.097  67.959  1.00  0.00    -0.085 C  
HETATM   17  O   UNL     1      -6.575  10.266  66.959  1.00  0.00    -0.071 OA 
HETATM   18  C   UNL     1      -8.781  10.000  67.951  1.00  0.00    -0.125 C  
BRANCH  18  19
HETATM   19  C   UNL     1      -9.451  11.280  67.415  1.00  0.00    -0.175 C  
BRANCH  19  20
HETATM   20  C   UNL     1     -10.566  11.022  66.393  1.00  0.00    -0.308 C  
BRANCH  20  21
HETATM   21  C   UNL     1     -10.751  12.202  65.434  1.00  0.00    -0.323 C  
BRANCH  21  22
HETATM   22  C   UNL     1     -12.075  12.924  65.703  1.00  0.00    -0.511 C  
BRANCH  22  23
HETATM   23  C   UNL     1     -11.912  14.013  66.763  1.00  0.00    -0.473 C  
BRANCH  23  24
HETATM   24  C   UNL     1     -10.990  15.135  66.282  1.00  0.00    -0.335 C  
HETATM   25  C   UNL     1      -9.827  15.344  67.226  1.00  0.00    -0.217 C  
HETATM   26  O   UNL     1      -9.622  14.711  68.248  1.00  0.00    -0.196 OA 
HETATM   27  O   UNL     1      -9.009  16.338  66.814  1.00  0.00    -0.199 OA 
ENDBRANCH  23  24
ENDBRANCH  22  23
ENDBRANCH  21  22
ENDBRANCH  20  21
ENDBRANCH  19  20
ENDBRANCH  18  19
ENDBRANCH  10  11
ENDBRANCH   6   9
ENDBRANCH   5   6
ENDBRANCH   4   5
ENDBRANCH   3   4
ENDBRANCH   2   3
TORSDOF 12
ENDMDL
MODEL      314
REMARK 921   NORMALIZED FREE ENERGY PREDICTED BY IDOCK:   -3.32 KCAL/MOL
REMARK 922        TOTAL FREE ENERGY PREDICTED BY IDOCK:   -7.60 KCAL/MOL
REMARK 923 INTER-LIGAND FREE ENERGY PREDICTED BY IDOCK:   -5.08 KCAL/MOL
REMARK 924 INTRA-LIGAND FREE ENERGY PREDICTED BY IDOCK:   -2.52 KCAL/MOL
REMARK 927      BINDING AFFINITY PREDICTED BY RF-SCORE:    0.00 PKD
ROOT
HETATM    1  C   UNL     1     -11.805   6.663  71.969  1.00  0.00    -0.365 C  
HETATM    2  C   UNL     1     -11.988   8.023  71.321  1.00  0.00    -0.321 C  
ENDROOT
BRANCH   2   3
HETATM    3  C   UNL     1     -11.060   9.078  71.928  1.00  0.00    -0.433 C  
BRANCH   3   4
HETATM    4  C   UNL     1     -10.130   9.638  70.853  1.00  0.00    -0.257 C  
BRANCH   4   5
HETATM    5  C   UNL     1     -10.679   9.440  69.438  1.00  0.00    -0.234 C  
BRANCH   5   6
HETATM    6  C   UNL     1     -11.298  10.718  68.846  1.00  0.00    -0.284 C  
HETATM    7  O   UNL     1     -11.881  10.365  67.596  1.00  0.00    -0.549 OA 
HETATM    8  H   UNL     1     -12.264  11.154  67.230  1.00  0.00     0.000 HD 
BRANCH   6   9
HETATM    9  C   UNL     1     -10.293  11.836  68.675  1.00  0.00    -0.228 C  
HETATM   10  C   UNL     1     -10.042  12.539  67.559  1.00  0.00    -0.207 C  
BRANCH  10  11
HETATM   11  C   UNL     1      -8.912  13.537  67.417  1.00  0.00    -0.219 C  
HETATM   12  C   UNL     1      -9.475  14.917  67.018  1.00  0.00    -0.229 C  
HETATM   13  O   UNL     1      -9.768  14.993  65.629  1.00  0.00    -0.339 OA 
HETATM   14  C   UNL     1      -8.402  15.916  67.393  1.00  0.00    -0.192 C  
HETATM   15  H   UNL     1     -10.114  15.843  65.384  1.00  0.00     0.000 HD 
HETATM   16  C   UNL     1      -7.837  15.284  68.627  1.00  0.00    -0.142 C  
HETATM   17  O   UNL     1      -7.216  15.926  69.466  1.00  0.00    -0.207 OA 
HETATM   18  C   UNL     1      -8.104  13.788  68.713  1.00  0.00    -0.022 C  
BRANCH  18  19
HETATM   19  C   UNL     1      -6.806  12.958  68.736  1.00  0.00    -0.099 C  
BRANCH  19  20
HETATM   20  C   UNL     1      -6.896  11.679  69.578  1.00  0.00    -0.051 C  
BRANCH  20  21
HETATM   21  C   UNL     1      -6.190  10.498  68.907  1.00  0.00    -0.043 C  
BRANCH  21  22
HETATM   22  C   UNL     1      -5.934  10.782  67.424  1.00  0.00    -0.049 C  
BRANCH  22  23
HETATM   23  C   UNL     1      -6.593   9.730  66.532  1.00  0.00    -0.072 C  
BRANCH  23  24
HETATM   24  C   UNL     1      -8.112   9.708  66.711  1.00  0.00    -0.113 C  
HETATM   25  C   UNL     1      -8.824   9.475  65.397  1.00  0.00    -0.178 C  
HETATM   26  O   UNL     1      -8.283   9.320  64.316  1.00  0.00    -0.135 OA 
HETATM   27  O   UNL     1     -10.168   9.460  65.543  1.00  0.00    -0.112 OA 
ENDBRANCH  23  24
ENDBRANCH  22  23
ENDBRANCH  21  22
ENDBRANCH  20  21
ENDBRANCH  19  20
ENDBRANCH  18  19
ENDBRANCH  10  11
ENDBRANCH   6   9
ENDBRANCH   5   6
ENDBRANCH   4   5
ENDBRANCH   3   4
ENDBRANCH   2   3
TORSDOF 12
ENDMDL
MODEL      315
REMARK 921   NORMALIZED FREE ENERGY PREDICTED BY IDOCK:   -3.32 KCAL/MOL
REMARK 922        TOTAL FREE ENERGY PREDICTED BY IDOCK:   -7.59 KCAL/MOL
REMARK 923 INTER-LIGAND FREE ENERGY PREDICTED BY IDOCK:   -6.23 KCAL/MOL
REMARK 924 INTRA-LIGAND FREE ENERGY PREDICTED BY IDOCK:   -1.36 KCAL/MOL
REMARK 927      BINDING AFFINITY PREDICTED BY RF-SCORE:    0.00 PKD
ROOT
HETATM    1  C   UNL     1     -10.735  15.222  65.310  1.00  0.00    -0.433 C  
HETATM    2  C   UNL     1     -11.064  13.793  64.918  1.00  0.00    -0.364 C  
ENDROOT
BRANCH   2   3
HETATM    3  C   UNL     1     -12.137  13.183  65.822  1.00  0.00    -0.502 C  
BRANCH   3   4
HETATM    4  C   UNL     1     -11.649  11.851  66.390  1.00  0.00    -0.315 C  
BRANCH   4   5
HETATM    5  C   UNL     1     -10.551  12.027  67.441  1.00  0.00    -0.253 C  
BRANCH   5   6
HETATM    6  C   UNL     1      -9.474  10.931  67.380  1.00  0.00    -0.155 C  
HETATM    7  O   UNL     1      -9.371  10.515  66.022  1.00  0.00    -0.167 OA 
HETATM    8  H   UNL     1      -8.705   9.838  65.984  1.00  0.00     0.000 HD 
BRANCH   6   9
HETATM    9  C   UNL     1      -9.777   9.755  68.282  1.00  0.00    -0.160 C  
HETATM   10  C   UNL     1      -9.698   9.718  69.622  1.00  0.00    -0.242 C  
BRANCH  10  11
HETATM   11  C   UNL     1      -9.864   8.462  70.451  1.00  0.00    -0.194 C  
HETATM   12  C   UNL     1      -9.892   8.821  71.952  1.00  0.00    -0.324 C  
HETATM   13  O   UNL     1      -8.588   9.039  72.474  1.00  0.00    -0.328 OA 
HETATM   14  C   UNL     1     -10.553   7.644  72.637  1.00  0.00    -0.354 C  
HETATM   15  H   UNL     1      -8.606   9.260  73.398  1.00  0.00     0.000 HD 
HETATM   16  C   UNL     1     -11.544   7.223  71.598  1.00  0.00    -0.274 C  
HETATM   17  O   UNL     1     -12.539   6.562  71.872  1.00  0.00    -0.341 OA 
HETATM   18  C   UNL     1     -11.180   7.687  70.195  1.00  0.00    -0.193 C  
BRANCH  18  19
HETATM   19  C   UNL     1     -10.959   6.511  69.225  1.00  0.00    -0.389 C  
BRANCH  19  20
HETATM   20  C   UNL     1      -9.622   5.782  69.420  1.00  0.00    -0.179 C  
BRANCH  20  21
HETATM   21  C   UNL     1      -9.815   4.363  69.963  1.00  0.00    -0.294 C  
BRANCH  21  22
HETATM   22  C   UNL     1      -9.459   3.317  68.902  1.00  0.00    -0.191 C  
BRANCH  22  23
HETATM   23  C   UNL     1      -8.743   3.952  67.710  1.00  0.00    -0.119 C  
BRANCH  23  24
HETATM   24  C   UNL     1      -9.440   3.621  66.390  1.00  0.00    -0.184 C  
HETATM   25  C   UNL     1      -8.525   2.867  65.451  1.00  0.00    -0.102 C  
HETATM   26  O   UNL     1      -7.373   2.547  65.689  1.00  0.00    -0.064 OA 
HETATM   27  O   UNL     1      -9.130   2.575  64.277  1.00  0.00    -0.110 OA 
ENDBRANCH  23  24
ENDBRANCH  22  23
ENDBRANCH  21  22
ENDBRANCH  20  21
ENDBRANCH  19  20
ENDBRANCH  18  19
ENDBRANCH  10  11
ENDBRANCH   6   9
ENDBRANCH   5   6
ENDBRANCH   4   5
ENDBRANCH   3   4
ENDBRANCH   2   3
TORSDOF 12
ENDMDL
MODEL      316
REMARK 921   NORMALIZED FREE ENERGY PREDICTED BY IDOCK:   -3.30 KCAL/MOL
REMARK 922        TOTAL FREE ENERGY PREDICTED BY IDOCK:   -7.56 KCAL/MOL
REMARK 923 INTER-LIGAND FREE ENERGY PREDICTED BY IDOCK:   -5.55 KCAL/MOL
REMARK 924 INTRA-LIGAND FREE ENERGY PREDICTED BY IDOCK:   -2.01 KCAL/MOL
REMARK 927      BINDING AFFINITY PREDICTED BY RF-SCORE:    0.00 PKD
ROOT
HETATM    1  C   UNL     1      -8.525   6.982  65.660  1.00  0.00    -0.144 C  
HETATM    2  C   UNL     1      -8.771   5.527  66.016  1.00  0.00    -0.141 C  
ENDROOT
BRANCH   2   3
HETATM    3  C   UNL     1     -10.070   5.341  66.803  1.00  0.00    -0.255 C  
BRANCH   3   4
HETATM    4  C   UNL     1      -9.824   4.449  68.019  1.00  0.00    -0.135 C  
BRANCH   4   5
HETATM    5  C   UNL     1      -8.731   4.999  68.939  1.00  0.00    -0.100 C  
BRANCH   5   6
HETATM    6  C   UNL     1      -9.286   5.613  70.236  1.00  0.00    -0.152 C  
HETATM    7  O   UNL     1     -10.498   4.931  70.542  1.00  0.00    -0.216 OA 
HETATM    8  H   UNL     1     -10.841   5.311  71.344  1.00  0.00     0.000 HD 
BRANCH   6   9
HETATM    9  C   UNL     1      -9.519   7.104  70.129  1.00  0.00    -0.161 C  
HETATM   10  C   UNL     1      -8.973   7.950  69.239  1.00  0.00    -0.145 C  
BRANCH  10  11
HETATM   11  C   UNL     1      -9.128   9.455  69.289  1.00  0.00    -0.152 C  
HETATM   12  C   UNL     1      -7.742  10.129  69.213  1.00  0.00    -0.126 C  
HETATM   13  O   UNL     1      -7.074  10.119  70.467  1.00  0.00    -0.266 OA 
HETATM   14  C   UNL     1      -8.008  11.549  68.760  1.00  0.00    -0.107 C  
HETATM   15  H   UNL     1      -6.221  10.535  70.420  1.00  0.00     0.000 HD 
HETATM   16  C   UNL     1      -9.174  11.348  67.844  1.00  0.00    -0.164 C  
HETATM   17  O   UNL     1      -9.471  12.158  66.974  1.00  0.00    -0.192 OA 
HETATM   18  C   UNL     1      -9.938  10.061  68.116  1.00  0.00    -0.176 C  
BRANCH  18  19
HETATM   19  C   UNL     1     -11.402  10.319  68.521  1.00  0.00    -0.231 C  
BRANCH  19  20
HETATM   20  C   UNL     1     -11.609  10.520  70.028  1.00  0.00    -0.392 C  
BRANCH  20  21
HETATM   21  C   UNL     1     -12.257  11.871  70.344  1.00  0.00    -0.399 C  
BRANCH  21  22
HETATM   22  C   UNL     1     -12.149  12.825  69.151  1.00  0.00    -0.206 C  
BRANCH  22  23
HETATM   23  C   UNL     1     -11.962  14.271  69.607  1.00  0.00    -0.387 C  
BRANCH  23  24
HETATM   24  C   UNL     1     -11.541  15.180  68.451  1.00  0.00    -0.356 C  
HETATM   25  C   UNL     1     -10.999  16.500  68.949  1.00  0.00    -0.325 C  
HETATM   26  O   UNL     1     -10.896  16.828  70.119  1.00  0.00    -0.257 OA 
HETATM   27  O   UNL     1     -10.629  17.314  67.934  1.00  0.00    -0.365 OA 
ENDBRANCH  23  24
ENDBRANCH  22  23
ENDBRANCH  21  22
ENDBRANCH  20  21
ENDBRANCH  19  20
ENDBRANCH  18  19
ENDBRANCH  10  11
ENDBRANCH   6   9
ENDBRANCH   5   6
ENDBRANCH   4   5
ENDBRANCH   3   4
ENDBRANCH   2   3
TORSDOF 12
ENDMDL
MODEL      317
REMARK 921   NORMALIZED FREE ENERGY PREDICTED BY IDOCK:   -3.27 KCAL/MOL
REMARK 922        TOTAL FREE ENERGY PREDICTED BY IDOCK:   -7.51 KCAL/MOL
REMARK 923 INTER-LIGAND FREE ENERGY PREDICTED BY IDOCK:   -6.02 KCAL/MOL
REMARK 924 INTRA-LIGAND FREE ENERGY PREDICTED BY IDOCK:   -1.49 KCAL/MOL
REMARK 927      BINDING AFFINITY PREDICTED BY RF-SCORE:    0.00 PKD
ROOT
HETATM    1  C   UNL     1     -12.033  12.786  63.244  1.00  0.00    -0.522 C  
HETATM    2  C   UNL     1     -11.971  13.170  64.712  1.00  0.00    -0.435 C  
ENDROOT
BRANCH   2   3
HETATM    3  C   UNL     1     -11.742  14.671  64.904  1.00  0.00    -0.403 C  
BRANCH   3   4
HETATM    4  C   UNL     1     -10.249  14.986  64.839  1.00  0.00    -0.260 C  
BRANCH   4   5
HETATM    5  C   UNL     1      -9.746  15.713  66.088  1.00  0.00    -0.348 C  
BRANCH   5   6
HETATM    6  C   UNL     1     -10.002  14.930  67.387  1.00  0.00    -0.223 C  
HETATM    7  O   UNL     1     -10.193  15.885  68.426  1.00  0.00    -0.219 OA 
HETATM    8  H   UNL     1     -10.351  15.401  69.229  1.00  0.00     0.000 HD 
BRANCH   6   9
HETATM    9  C   UNL     1      -8.880  13.976  67.731  1.00  0.00    -0.187 C  
HETATM   10  C   UNL     1      -8.795  12.673  67.415  1.00  0.00    -0.189 C  
BRANCH  10  11
HETATM   11  C   UNL     1      -7.719  11.740  67.927  1.00  0.00    -0.125 C  
HETATM   12  C   UNL     1      -6.500  12.556  68.407  1.00  0.00    -0.066 C  
HETATM   13  O   UNL     1      -5.677  12.973  67.326  1.00  0.00    -0.334 OA 
HETATM   14  C   UNL     1      -5.737  11.635  69.335  1.00  0.00    -0.065 C  
HETATM   15  H   UNL     1      -4.926  13.475  67.622  1.00  0.00     0.000 HD 
HETATM   16  C   UNL     1      -6.857  10.872  69.970  1.00  0.00    -0.088 C  
HETATM   17  O   UNL     1      -6.731  10.297  71.046  1.00  0.00    -0.339 OA 
HETATM   18  C   UNL     1      -8.135  10.878  69.144  1.00  0.00    -0.104 C  
BRANCH  18  19
HETATM   19  C   UNL     1      -8.563   9.464  68.710  1.00  0.00    -0.127 C  
BRANCH  19  20
HETATM   20  C   UNL     1      -9.653   8.842  69.594  1.00  0.00    -0.171 C  
BRANCH  20  21
HETATM   21  C   UNL     1     -10.753   9.848  69.944  1.00  0.00    -0.318 C  
BRANCH  21  22
HETATM   22  C   UNL     1     -11.864   9.183  70.763  1.00  0.00    -0.280 C  
BRANCH  22  23
HETATM   23  C   UNL     1     -11.410   8.902  72.195  1.00  0.00    -0.369 C  
BRANCH  23  24
HETATM   24  C   UNL     1     -11.832   7.507  72.659  1.00  0.00    -0.221 C  
HETATM   25  C   UNL     1     -10.644   6.579  72.783  1.00  0.00    -0.230 C  
HETATM   26  O   UNL     1      -9.485   6.877  72.552  1.00  0.00    -0.140 OA 
HETATM   27  O   UNL     1     -11.006   5.340  73.187  1.00  0.00    -0.257 OA 
ENDBRANCH  23  24
ENDBRANCH  22  23
ENDBRANCH  21  22
ENDBRANCH  20  21
ENDBRANCH  19  20
ENDBRANCH  18  19
ENDBRANCH  10  11
ENDBRANCH   6   9
ENDBRANCH   5   6
ENDBRANCH   4   5
ENDBRANCH   3   4
ENDBRANCH   2   3
TORSDOF 12
ENDMDL
MODEL      318
REMARK 921   NORMALIZED FREE ENERGY PREDICTED BY IDOCK:   -3.26 KCAL/MOL
REMARK 922        TOTAL FREE ENERGY PREDICTED BY IDOCK:   -7.50 KCAL/MOL
REMARK 923 INTER-LIGAND FREE ENERGY PREDICTED BY IDOCK:   -5.60 KCAL/MOL
REMARK 924 INTRA-LIGAND FREE ENERGY PREDICTED BY IDOCK:   -1.90 KCAL/MOL
REMARK 927      BINDING AFFINITY PREDICTED BY RF-SCORE:    0.00 PKD
ROOT
HETATM    1  C   UNL     1      -7.990  16.788  68.566  1.00  0.00    -0.235 C  
HETATM    2  C   UNL     1      -7.781  16.058  67.252  1.00  0.00    -0.215 C  
ENDROOT
BRANCH   2   3
HETATM    3  C   UNL     1      -9.105  15.630  66.616  1.00  0.00    -0.313 C  
BRANCH   3   4
HETATM    4  C   UNL     1      -9.778  14.561  67.475  1.00  0.00    -0.211 C  
BRANCH   4   5
HETATM    5  C   UNL     1     -10.361  13.417  66.642  1.00  0.00    -0.269 C  
BRANCH   5   6
HETATM    6  C   UNL     1     -10.629  12.146  67.466  1.00  0.00    -0.214 C  
HETATM    7  O   UNL     1     -10.031  12.335  68.744  1.00  0.00    -0.376 OA 
HETATM    8  H   UNL     1     -10.197  11.549  69.252  1.00  0.00     0.000 HD 
BRANCH   6   9
HETATM    9  C   UNL     1     -10.101  10.892  66.803  1.00  0.00    -0.259 C  
HETATM   10  C   UNL     1      -9.435  10.808  65.640  1.00  0.00    -0.250 C  
BRANCH  10  11
HETATM   11  C   UNL     1      -9.074   9.505  64.958  1.00  0.00    -0.281 C  
HETATM   12  C   UNL     1      -8.734   9.763  63.475  1.00  0.00    -0.222 C  
HETATM   13  O   UNL     1      -9.901   9.902  62.676  1.00  0.00    -0.533 OA 
HETATM   14  C   UNL     1      -7.921   8.566  63.032  1.00  0.00    -0.163 C  
HETATM   15  H   UNL     1      -9.691  10.061  61.763  1.00  0.00     0.000 HD 
HETATM   16  C   UNL     1      -7.166   8.249  64.284  1.00  0.00    -0.089 C  
HETATM   17  O   UNL     1      -6.124   7.604  64.275  1.00  0.00    -0.047 OA 
HETATM   18  C   UNL     1      -7.828   8.793  65.541  1.00  0.00    -0.098 C  
BRANCH  18  19
HETATM   19  C   UNL     1      -8.229   7.678  66.526  1.00  0.00    -0.125 C  
BRANCH  19  20
HETATM   20  C   UNL     1      -9.143   6.605  65.919  1.00  0.00    -0.059 C  
BRANCH  20  21
HETATM   21  C   UNL     1     -10.340   6.292  66.820  1.00  0.00    -0.285 C  
BRANCH  21  22
HETATM   22  C   UNL     1     -10.685   7.491  67.710  1.00  0.00    -0.233 C  
BRANCH  22  23
HETATM   23  C   UNL     1     -10.988   7.053  69.143  1.00  0.00    -0.193 C  
BRANCH  23  24
HETATM   24  C   UNL     1      -9.889   7.492  70.113  1.00  0.00    -0.180 C  
HETATM   25  C   UNL     1     -10.061   8.935  70.531  1.00  0.00    -0.205 C  
HETATM   26  O   UNL     1     -10.954   9.679  70.161  1.00  0.00    -0.242 OA 
HETATM   27  O   UNL     1      -9.092   9.336  71.384  1.00  0.00    -0.299 OA 
ENDBRANCH  23  24
ENDBRANCH  22  23
ENDBRANCH  21  22
ENDBRANCH  20  21
ENDBRANCH  19  20
ENDBRANCH  18  19
ENDBRANCH  10  11
ENDBRANCH   6   9
ENDBRANCH   5   6
ENDBRANCH   4   5
ENDBRANCH   3   4
ENDBRANCH   2   3
TORSDOF 12
ENDMDL
MODEL      319
REMARK 921   NORMALIZED FREE ENERGY PREDICTED BY IDOCK:   -3.26 KCAL/MOL
REMARK 922        TOTAL FREE ENERGY PREDICTED BY IDOCK:   -7.50 KCAL/MOL
REMARK 923 INTER-LIGAND FREE ENERGY PREDICTED BY IDOCK:   -5.92 KCAL/MOL
REMARK 924 INTRA-LIGAND FREE ENERGY PREDICTED BY IDOCK:   -1.57 KCAL/MOL
REMARK 927      BINDING AFFINITY PREDICTED BY RF-SCORE:    0.00 PKD
ROOT
HETATM    1  C   UNL     1      -8.694  18.391  66.139  1.00  0.00    -0.126 C  
HETATM    2  C   UNL     1      -7.792  17.177  66.274  1.00  0.00    -0.351 C  
ENDROOT
BRANCH   2   3
HETATM    3  C   UNL     1      -7.630  16.741  67.731  1.00  0.00    -0.180 C  
BRANCH   3   4
HETATM    4  C   UNL     1      -6.541  15.675  67.842  1.00  0.00    -0.171 C  
BRANCH   4   5
HETATM    5  C   UNL     1      -7.004  14.306  67.339  1.00  0.00    -0.077 C  
BRANCH   5   6
HETATM    6  C   UNL     1      -8.339  13.856  67.957  1.00  0.00    -0.166 C  
HETATM    7  O   UNL     1      -8.309  14.212  69.335  1.00  0.00    -0.344 OA 
HETATM    8  H   UNL     1      -9.134  13.933  69.717  1.00  0.00     0.000 HD 
BRANCH   6   9
HETATM    9  C   UNL     1      -8.596  12.374  67.788  1.00  0.00    -0.172 C  
HETATM   10  C   UNL     1      -8.518  11.423  68.734  1.00  0.00    -0.089 C  
BRANCH  10  11
HETATM   11  C   UNL     1      -8.634   9.939  68.461  1.00  0.00    -0.117 C  
HETATM   12  C   UNL     1      -9.301   9.233  69.661  1.00  0.00    -0.179 C  
HETATM   13  O   UNL     1      -8.385   9.005  70.723  1.00  0.00    -0.158 OA 
HETATM   14  C   UNL     1      -9.827   7.922  69.117  1.00  0.00    -0.174 C  
HETATM   15  H   UNL     1      -8.796   8.570  71.461  1.00  0.00     0.000 HD 
HETATM   16  C   UNL     1     -10.222   8.321  67.730  1.00  0.00    -0.223 C  
HETATM   17  O   UNL     1     -11.034   7.682  67.070  1.00  0.00    -0.277 OA 
HETATM   18  C   UNL     1      -9.509   9.572  67.237  1.00  0.00    -0.170 C  
BRANCH  18  19
HETATM   19  C   UNL     1      -8.646   9.306  65.989  1.00  0.00    -0.158 C  
BRANCH  19  20
HETATM   20  C   UNL     1      -9.135  10.025  64.725  1.00  0.00    -0.268 C  
BRANCH  20  21
HETATM   21  C   UNL     1     -10.171  11.106  65.043  1.00  0.00    -0.354 C  
BRANCH  21  22
HETATM   22  C   UNL     1     -10.148  12.216  63.987  1.00  0.00    -0.357 C  
BRANCH  22  23
HETATM   23  C   UNL     1     -11.277  13.222  64.210  1.00  0.00    -0.417 C  
BRANCH  23  24
HETATM   24  C   UNL     1     -11.212  13.844  65.606  1.00  0.00    -0.306 C  
HETATM   25  C   UNL     1     -11.128  15.352  65.541  1.00  0.00    -0.298 C  
HETATM   26  O   UNL     1     -11.114  16.017  64.520  1.00  0.00    -0.572 OA 
HETATM   27  O   UNL     1     -11.065  15.911  66.770  1.00  0.00    -0.217 OA 
ENDBRANCH  23  24
ENDBRANCH  22  23
ENDBRANCH  21  22
ENDBRANCH  20  21
ENDBRANCH  19  20
ENDBRANCH  18  19
ENDBRANCH  10  11
ENDBRANCH   6   9
ENDBRANCH   5   6
ENDBRANCH   4   5
ENDBRANCH   3   4
ENDBRANCH   2   3
TORSDOF 12
ENDMDL
MODEL      320
REMARK 921   NORMALIZED FREE ENERGY PREDICTED BY IDOCK:   -3.26 KCAL/MOL
REMARK 922        TOTAL FREE ENERGY PREDICTED BY IDOCK:   -7.49 KCAL/MOL
REMARK 923 INTER-LIGAND FREE ENERGY PREDICTED BY IDOCK:   -6.78 KCAL/MOL
REMARK 924 INTRA-LIGAND FREE ENERGY PREDICTED BY IDOCK:   -0.71 KCAL/MOL
REMARK 927      BINDING AFFINITY PREDICTED BY RF-SCORE:    0.00 PKD
ROOT
HETATM    1  C   UNL     1      -9.362   2.125  68.590  1.00  0.00    -0.235 C  
HETATM    2  C   UNL     1      -8.572   3.373  68.239  1.00  0.00    -0.117 C  
ENDROOT
BRANCH   2   3
HETATM    3  C   UNL     1      -9.416   4.642  68.370  1.00  0.00    -0.201 C  
BRANCH   3   4
HETATM    4  C   UNL     1      -9.282   5.493  67.108  1.00  0.00    -0.111 C  
BRANCH   4   5
HETATM    5  C   UNL     1      -9.029   6.970  67.419  1.00  0.00    -0.117 C  
BRANCH   5   6
HETATM    6  C   UNL     1     -10.295   7.719  67.868  1.00  0.00    -0.217 C  
HETATM    7  O   UNL     1     -11.409   7.062  67.273  1.00  0.00    -0.605 OA 
HETATM    8  H   UNL     1     -12.191   7.525  67.550  1.00  0.00     0.000 HD 
BRANCH   6   9
HETATM    9  C   UNL     1     -10.274   9.186  67.500  1.00  0.00    -0.304 C  
HETATM   10  C   UNL     1      -9.633  10.176  68.142  1.00  0.00    -0.151 C  
BRANCH  10  11
HETATM   11  C   UNL     1      -9.784  11.645  67.810  1.00  0.00    -0.177 C  
HETATM   12  C   UNL     1      -9.515  11.875  66.307  1.00  0.00    -0.227 C  
HETATM   13  O   UNL     1      -8.124  11.912  66.013  1.00  0.00    -0.364 OA 
HETATM   14  C   UNL     1     -10.166  13.201  65.978  1.00  0.00    -0.287 C  
HETATM   15  H   UNL     1      -7.959  12.054  65.088  1.00  0.00     0.000 HD 
HETATM   16  C   UNL     1     -11.360  13.168  66.879  1.00  0.00    -0.318 C  
HETATM   17  O   UNL     1     -12.357  13.851  66.671  1.00  0.00    -0.435 OA 
HETATM   18  C   UNL     1     -11.198  12.224  68.061  1.00  0.00    -0.321 C  
BRANCH  18  19
HETATM   19  C   UNL     1     -11.272  12.956  69.415  1.00  0.00    -0.197 C  
BRANCH  19  20
HETATM   20  C   UNL     1     -12.472  13.903  69.549  1.00  0.00    -0.141 C  
BRANCH  20  21
HETATM   21  C   UNL     1     -12.204  15.033  70.548  1.00  0.00    -0.391 C  
BRANCH  21  22
HETATM   22  C   UNL     1     -10.946  15.817  70.164  1.00  0.00    -0.361 C  
BRANCH  22  23
HETATM   23  C   UNL     1     -11.136  16.567  68.846  1.00  0.00    -0.300 C  
BRANCH  23  24
HETATM   24  C   UNL     1      -9.818  17.147  68.329  1.00  0.00    -0.288 C  
HETATM   25  C   UNL     1     -10.050  18.326  67.412  1.00  0.00    -0.352 C  
HETATM   26  O   UNL     1     -11.138  18.782  67.105  1.00  0.00    -0.284 OA 
HETATM   27  O   UNL     1      -8.891  18.842  66.944  1.00  0.00    -0.280 OA 
ENDBRANCH  23  24
ENDBRANCH  22  23
ENDBRANCH  21  22
ENDBRANCH  20  21
ENDBRANCH  19  20
ENDBRANCH  18  19
ENDBRANCH  10  11
ENDBRANCH   6   9
ENDBRANCH   5   6
ENDBRANCH   4   5
ENDBRANCH   3   4
ENDBRANCH   2   3
TORSDOF 12
ENDMDL
MODEL      321
REMARK 921   NORMALIZED FREE ENERGY PREDICTED BY IDOCK:   -3.24 KCAL/MOL
REMARK 922        TOTAL FREE ENERGY PREDICTED BY IDOCK:   -7.47 KCAL/MOL
REMARK 923 INTER-LIGAND FREE ENERGY PREDICTED BY IDOCK:   -6.25 KCAL/MOL
REMARK 924 INTRA-LIGAND FREE ENERGY PREDICTED BY IDOCK:   -1.22 KCAL/MOL
REMARK 927      BINDING AFFINITY PREDICTED BY RF-SCORE:    0.00 PKD
ROOT
HETATM    1  C   UNL     1     -12.239  14.103  66.566  1.00  0.00    -0.463 C  
HETATM    2  C   UNL     1     -12.076  13.535  65.167  1.00  0.00    -0.432 C  
ENDROOT
BRANCH   2   3
HETATM    3  C   UNL     1     -11.502  12.117  65.187  1.00  0.00    -0.376 C  
BRANCH   3   4
HETATM    4  C   UNL     1     -10.484  11.980  66.318  1.00  0.00    -0.273 C  
BRANCH   4   5
HETATM    5  C   UNL     1     -10.617  10.655  67.072  1.00  0.00    -0.317 C  
BRANCH   5   6
HETATM    6  C   UNL     1     -10.603  10.827  68.601  1.00  0.00    -0.199 C  
HETATM    7  O   UNL     1      -9.670  11.859  68.903  1.00  0.00    -0.396 OA 
HETATM    8  H   UNL     1      -9.661  11.965  69.847  1.00  0.00     0.000 HD 
BRANCH   6   9
HETATM    9  C   UNL     1     -10.250   9.551  69.334  1.00  0.00    -0.215 C  
HETATM   10  C   UNL     1     -10.962   8.944  70.298  1.00  0.00    -0.266 C  
BRANCH  10  11
HETATM   11  C   UNL     1     -10.473   7.756  71.098  1.00  0.00    -0.227 C  
HETATM   12  C   UNL     1     -10.344   8.141  72.587  1.00  0.00    -0.328 C  
HETATM   13  O   UNL     1      -9.146   8.860  72.851  1.00  0.00    -0.235 OA 
HETATM   14  C   UNL     1     -10.360   6.832  73.346  1.00  0.00    -0.319 C  
HETATM   15  H   UNL     1      -9.067   9.096  73.768  1.00  0.00     0.000 HD 
HETATM   16  C   UNL     1     -11.297   6.022  72.507  1.00  0.00    -0.300 C  
HETATM   17  O   UNL     1     -11.892   5.044  72.947  1.00  0.00    -0.231 OA 
HETATM   18  C   UNL     1     -11.417   6.529  71.077  1.00  0.00    -0.392 C  
BRANCH  18  19
HETATM   19  C   UNL     1     -10.958   5.485  70.041  1.00  0.00    -0.205 C  
BRANCH  19  20
HETATM   20  C   UNL     1      -9.436   5.309  69.963  1.00  0.00    -0.216 C  
BRANCH  20  21
HETATM   21  C   UNL     1      -9.043   3.922  69.445  1.00  0.00    -0.196 C  
BRANCH  21  22
HETATM   22  C   UNL     1      -9.437   3.754  67.975  1.00  0.00    -0.221 C  
BRANCH  22  23
HETATM   23  C   UNL     1      -9.073   4.992  67.155  1.00  0.00    -0.115 C  
BRANCH  23  24
HETATM   24  C   UNL     1      -7.771   4.792  66.376  1.00  0.00    -0.091 C  
HETATM   25  C   UNL     1      -7.442   5.996  65.523  1.00  0.00    -0.082 C  
HETATM   26  O   UNL     1      -8.109   7.014  65.446  1.00  0.00    -0.122 OA 
HETATM   27  O   UNL     1      -6.296   5.828  64.825  1.00  0.00    -0.035 OA 
ENDBRANCH  23  24
ENDBRANCH  22  23
ENDBRANCH  21  22
ENDBRANCH  20  21
ENDBRANCH  19  20
ENDBRANCH  18  19
ENDBRANCH  10  11
ENDBRANCH   6   9
ENDBRANCH   5   6
ENDBRANCH   4   5
ENDBRANCH   3   4
ENDBRANCH   2   3
TORSDOF 12
ENDMDL
MODEL      322
REMARK 921   NORMALIZED FREE ENERGY PREDICTED BY IDOCK:   -3.23 KCAL/MOL
REMARK 922        TOTAL FREE ENERGY PREDICTED BY IDOCK:   -7.44 KCAL/MOL
REMARK 923 INTER-LIGAND FREE ENERGY PREDICTED BY IDOCK:   -6.38 KCAL/MOL
REMARK 924 INTRA-LIGAND FREE ENERGY PREDICTED BY IDOCK:   -1.06 KCAL/MOL
REMARK 927      BINDING AFFINITY PREDICTED BY RF-SCORE:    0.00 PKD
ROOT
HETATM    1  C   UNL     1     -12.250  15.259  64.371  1.00  0.00    -0.222 C  
HETATM    2  C   UNL     1     -10.995  16.018  64.764  1.00  0.00    -0.373 C  
ENDROOT
BRANCH   2   3
HETATM    3  C   UNL     1     -10.263  15.353  65.931  1.00  0.00    -0.365 C  
BRANCH   3   4
HETATM    4  C   UNL     1     -10.920  14.015  66.267  1.00  0.00    -0.300 C  
BRANCH   4   5
HETATM    5  C   UNL     1      -9.932  12.847  66.220  1.00  0.00    -0.271 C  
BRANCH   5   6
HETATM    6  C   UNL     1     -10.211  11.865  65.069  1.00  0.00    -0.278 C  
HETATM    7  O   UNL     1     -11.564  12.057  64.667  1.00  0.00    -0.331 OA 
HETATM    8  H   UNL     1     -11.736  11.450  63.956  1.00  0.00     0.000 HD 
BRANCH   6   9
HETATM    9  C   UNL     1      -9.962  10.422  65.451  1.00  0.00    -0.362 C  
HETATM   10  C   UNL     1      -8.846   9.906  65.992  1.00  0.00    -0.166 C  
BRANCH  10  11
HETATM   11  C   UNL     1      -8.608   8.426  66.203  1.00  0.00    -0.157 C  
HETATM   12  C   UNL     1      -7.742   7.864  65.057  1.00  0.00    -0.106 C  
HETATM   13  O   UNL     1      -8.505   7.612  63.885  1.00  0.00    -0.370 OA 
HETATM   14  C   UNL     1      -7.146   6.580  65.593  1.00  0.00    -0.061 C  
HETATM   15  H   UNL     1      -7.972   7.265  63.179  1.00  0.00     0.000 HD 
HETATM   16  C   UNL     1      -6.952   6.930  67.034  1.00  0.00    -0.070 C  
HETATM   17  O   UNL     1      -6.156   6.335  67.752  1.00  0.00    -0.019 OA 
HETATM   18  C   UNL     1      -7.841   8.074  67.501  1.00  0.00    -0.118 C  
BRANCH  18  19
HETATM   19  C   UNL     1      -8.805   7.649  68.625  1.00  0.00    -0.127 C  
BRANCH  19  20
HETATM   20  C   UNL     1     -10.286   7.886  68.301  1.00  0.00    -0.239 C  
BRANCH  20  21
HETATM   21  C   UNL     1     -11.149   6.665  68.633  1.00  0.00    -0.288 C  
BRANCH  21  22
HETATM   22  C   UNL     1     -10.652   5.971  69.905  1.00  0.00    -0.345 C  
BRANCH  22  23
HETATM   23  C   UNL     1     -10.999   6.781  71.154  1.00  0.00    -0.298 C  
BRANCH  23  24
HETATM   24  C   UNL     1     -12.505   7.015  71.277  1.00  0.00    -0.430 C  
HETATM   25  C   UNL     1     -12.811   8.358  71.901  1.00  0.00    -0.353 C  
HETATM   26  O   UNL     1     -11.983   9.173  72.269  1.00  0.00    -0.321 OA 
HETATM   27  O   UNL     1     -14.141   8.572  72.020  1.00  0.00    -0.407 OA 
ENDBRANCH  23  24
ENDBRANCH  22  23
ENDBRANCH  21  22
ENDBRANCH  20  21
ENDBRANCH  19  20
ENDBRANCH  18  19
ENDBRANCH  10  11
ENDBRANCH   6   9
ENDBRANCH   5   6
ENDBRANCH   4   5
ENDBRANCH   3   4
ENDBRANCH   2   3
TORSDOF 12
ENDMDL
MODEL      323
REMARK 921   NORMALIZED FREE ENERGY PREDICTED BY IDOCK:   -3.22 KCAL/MOL
REMARK 922        TOTAL FREE ENERGY PREDICTED BY IDOCK:   -7.43 KCAL/MOL
REMARK 923 INTER-LIGAND FREE ENERGY PREDICTED BY IDOCK:   -6.18 KCAL/MOL
REMARK 924 INTRA-LIGAND FREE ENERGY PREDICTED BY IDOCK:   -1.25 KCAL/MOL
REMARK 927      BINDING AFFINITY PREDICTED BY RF-SCORE:    0.00 PKD
ROOT
HETATM    1  C   UNL     1     -10.554  15.016  65.646  1.00  0.00    -0.360 C  
HETATM    2  C   UNL     1     -11.001  13.671  65.099  1.00  0.00    -0.334 C  
ENDROOT
BRANCH   2   3
HETATM    3  C   UNL     1     -11.815  12.878  66.123  1.00  0.00    -0.487 C  
BRANCH   3   4
HETATM    4  C   UNL     1     -11.135  11.541  66.412  1.00  0.00    -0.328 C  
BRANCH   4   5
HETATM    5  C   UNL     1      -9.730  11.709  66.993  1.00  0.00    -0.201 C  
BRANCH   5   6
HETATM    6  C   UNL     1      -8.748  10.621  66.525  1.00  0.00    -0.146 C  
HETATM    7  O   UNL     1      -8.577  10.782  65.121  1.00  0.00    -0.210 OA 
HETATM    8  H   UNL     1      -7.970  10.110  64.831  1.00  0.00     0.000 HD 
BRANCH   6   9
HETATM    9  C   UNL     1      -9.218   9.221  66.854  1.00  0.00    -0.178 C  
HETATM   10  C   UNL     1      -8.808   8.445  67.871  1.00  0.00    -0.138 C  
BRANCH  10  11
HETATM   11  C   UNL     1      -9.205   6.995  68.048  1.00  0.00    -0.129 C  
HETATM   12  C   UNL     1     -10.067   6.535  66.853  1.00  0.00    -0.192 C  
HETATM   13  O   UNL     1     -11.418   6.959  66.974  1.00  0.00    -0.670 OA 
HETATM   14  C   UNL     1      -9.980   5.023  66.850  1.00  0.00    -0.238 C  
HETATM   15  H   UNL     1     -11.949   6.675  66.239  1.00  0.00     0.000 HD 
HETATM   16  C   UNL     1      -8.577   4.814  67.327  1.00  0.00    -0.104 C  
HETATM   17  O   UNL     1      -7.961   3.776  67.114  1.00  0.00    -0.090 OA 
HETATM   18  C   UNL     1      -8.020   6.001  68.099  1.00  0.00    -0.110 C  
BRANCH  18  19
HETATM   19  C   UNL     1      -7.652   5.639  69.551  1.00  0.00    -0.072 C  
BRANCH  19  20
HETATM   20  C   UNL     1      -8.715   6.040  70.584  1.00  0.00    -0.138 C  
BRANCH  20  21
HETATM   21  C   UNL     1      -8.833   5.014  71.714  1.00  0.00    -0.144 C  
BRANCH  21  22
HETATM   22  C   UNL     1     -10.263   4.475  71.819  1.00  0.00    -0.226 C  
BRANCH  22  23
HETATM   23  C   UNL     1     -11.047   5.182  72.924  1.00  0.00    -0.359 C  
BRANCH  23  24
HETATM   24  C   UNL     1     -11.880   6.340  72.374  1.00  0.00    -0.272 C  
HETATM   25  C   UNL     1     -11.255   7.679  72.696  1.00  0.00    -0.366 C  
HETATM   26  O   UNL     1     -10.217   7.846  73.313  1.00  0.00    -0.324 OA 
HETATM   27  O   UNL     1     -11.987   8.710  72.219  1.00  0.00    -0.364 OA 
ENDBRANCH  23  24
ENDBRANCH  22  23
ENDBRANCH  21  22
ENDBRANCH  20  21
ENDBRANCH  19  20
ENDBRANCH  18  19
ENDBRANCH  10  11
ENDBRANCH   6   9
ENDBRANCH   5   6
ENDBRANCH   4   5
ENDBRANCH   3   4
ENDBRANCH   2   3
TORSDOF 12
ENDMDL
MODEL      324
REMARK 921   NORMALIZED FREE ENERGY PREDICTED BY IDOCK:   -3.21 KCAL/MOL
REMARK 922        TOTAL FREE ENERGY PREDICTED BY IDOCK:   -7.42 KCAL/MOL
REMARK 923 INTER-LIGAND FREE ENERGY PREDICTED BY IDOCK:   -6.09 KCAL/MOL
REMARK 924 INTRA-LIGAND FREE ENERGY PREDICTED BY IDOCK:   -1.33 KCAL/MOL
REMARK 927      BINDING AFFINITY PREDICTED BY RF-SCORE:    0.00 PKD
ROOT
HETATM    1  C   UNL     1      -7.752  10.770  66.112  1.00  0.00    -0.149 C  
HETATM    2  C   UNL     1      -9.251  10.934  66.290  1.00  0.00    -0.197 C  
ENDROOT
BRANCH   2   3
HETATM    3  C   UNL     1     -10.003   9.621  66.063  1.00  0.00    -0.344 C  
BRANCH   3   4
HETATM    4  C   UNL     1      -9.061   8.435  66.268  1.00  0.00    -0.241 C  
BRANCH   4   5
HETATM    5  C   UNL     1      -9.788   7.185  66.768  1.00  0.00    -0.272 C  
BRANCH   5   6
HETATM    6  C   UNL     1      -8.850   5.985  66.982  1.00  0.00    -0.113 C  
HETATM    7  O   UNL     1      -9.061   5.085  65.900  1.00  0.00    -0.140 OA 
HETATM    8  H   UNL     1      -8.482   4.343  66.032  1.00  0.00     0.000 HD 
BRANCH   6   9
HETATM    9  C   UNL     1      -9.072   5.294  68.310  1.00  0.00    -0.122 C  
HETATM   10  C   UNL     1     -10.205   5.263  69.031  1.00  0.00    -0.269 C  
BRANCH  10  11
HETATM   11  C   UNL     1     -10.311   4.686  70.426  1.00  0.00    -0.101 C  
HETATM   12  C   UNL     1      -9.207   3.630  70.644  1.00  0.00    -0.134 C  
HETATM   13  O   UNL     1      -9.542   2.378  70.060  1.00  0.00    -0.095 OA 
HETATM   14  C   UNL     1      -9.064   3.497  72.146  1.00  0.00    -0.152 C  
HETATM   15  H   UNL     1      -8.862   1.728  70.195  1.00  0.00     0.000 HD 
HETATM   16  C   UNL     1      -9.332   4.902  72.586  1.00  0.00    -0.133 C  
HETATM   17  O   UNL     1      -8.952   5.332  73.669  1.00  0.00    -0.124 OA 
HETATM   18  C   UNL     1     -10.120   5.713  71.568  1.00  0.00    -0.253 C  
BRANCH  18  19
HETATM   19  C   UNL     1     -11.475   6.196  72.121  1.00  0.00    -0.361 C  
BRANCH  19  20
HETATM   20  C   UNL     1     -12.229   7.148  71.183  1.00  0.00    -0.405 C  
BRANCH  20  21
HETATM   21  C   UNL     1     -11.453   8.444  70.933  1.00  0.00    -0.295 C  
BRANCH  21  22
HETATM   22  C   UNL     1     -12.068   9.611  71.712  1.00  0.00    -0.446 C  
BRANCH  22  23
HETATM   23  C   UNL     1     -13.016  10.429  70.835  1.00  0.00    -0.475 C  
BRANCH  23  24
HETATM   24  C   UNL     1     -12.273  11.123  69.692  1.00  0.00    -0.360 C  
HETATM   25  C   UNL     1     -11.993  12.574  70.011  1.00  0.00    -0.299 C  
HETATM   26  O   UNL     1     -12.306  13.147  71.040  1.00  0.00    -0.358 OA 
HETATM   27  O   UNL     1     -11.341  13.199  69.004  1.00  0.00    -0.254 OA 
ENDBRANCH  23  24
ENDBRANCH  22  23
ENDBRANCH  21  22
ENDBRANCH  20  21
ENDBRANCH  19  20
ENDBRANCH  18  19
ENDBRANCH  10  11
ENDBRANCH   6   9
ENDBRANCH   5   6
ENDBRANCH   4   5
ENDBRANCH   3   4
ENDBRANCH   2   3
TORSDOF 12
ENDMDL
MODEL      325
REMARK 921   NORMALIZED FREE ENERGY PREDICTED BY IDOCK:   -3.21 KCAL/MOL
REMARK 922        TOTAL FREE ENERGY PREDICTED BY IDOCK:   -7.41 KCAL/MOL
REMARK 923 INTER-LIGAND FREE ENERGY PREDICTED BY IDOCK:   -6.44 KCAL/MOL
REMARK 924 INTRA-LIGAND FREE ENERGY PREDICTED BY IDOCK:   -0.97 KCAL/MOL
REMARK 927      BINDING AFFINITY PREDICTED BY RF-SCORE:    0.00 PKD
ROOT
HETATM    1  C   UNL     1      -9.252  17.652  68.188  1.00  0.00    -0.282 C  
HETATM    2  C   UNL     1      -8.976  16.921  66.887  1.00  0.00    -0.244 C  
ENDROOT
BRANCH   2   3
HETATM    3  C   UNL     1     -10.266  16.477  66.194  1.00  0.00    -0.360 C  
BRANCH   3   4
HETATM    4  C   UNL     1     -11.004  15.459  67.063  1.00  0.00    -0.306 C  
BRANCH   4   5
HETATM    5  C   UNL     1     -11.379  14.191  66.293  1.00  0.00    -0.340 C  
BRANCH   5   6
HETATM    6  C   UNL     1     -11.733  13.009  67.212  1.00  0.00    -0.375 C  
HETATM    7  O   UNL     1     -11.648  13.476  68.555  1.00  0.00    -0.287 OA 
HETATM    8  H   UNL     1     -11.867  12.746  69.122  1.00  0.00     0.000 HD 
BRANCH   6   9
HETATM    9  C   UNL     1     -10.837  11.809  67.001  1.00  0.00    -0.306 C  
HETATM   10  C   UNL     1      -9.755  11.732  66.209  1.00  0.00    -0.242 C  
BRANCH  10  11
HETATM   11  C   UNL     1      -8.997  10.453  65.924  1.00  0.00    -0.182 C  
HETATM   12  C   UNL     1      -8.751  10.314  64.406  1.00  0.00    -0.198 C  
HETATM   13  O   UNL     1      -9.899   9.831  63.721  1.00  0.00    -0.466 OA 
HETATM   14  C   UNL     1      -7.599   9.342  64.270  1.00  0.00    -0.112 C  
HETATM   15  H   UNL     1      -9.748   9.745  62.787  1.00  0.00     0.000 HD 
HETATM   16  C   UNL     1      -6.787   9.685  65.479  1.00  0.00    -0.089 C  
HETATM   17  O   UNL     1      -5.594   9.418  65.564  1.00  0.00    -0.047 OA 
HETATM   18  C   UNL     1      -7.592  10.376  66.570  1.00  0.00    -0.118 C  
BRANCH  18  19
HETATM   19  C   UNL     1      -7.621   9.569  67.882  1.00  0.00    -0.087 C  
BRANCH  19  20
HETATM   20  C   UNL     1      -9.014   9.461  68.519  1.00  0.00    -0.128 C  
BRANCH  20  21
HETATM   21  C   UNL     1      -8.968   9.658  70.037  1.00  0.00    -0.266 C  
BRANCH  21  22
HETATM   22  C   UNL     1      -9.670   8.505  70.761  1.00  0.00    -0.221 C  
BRANCH  22  23
HETATM   23  C   UNL     1     -10.486   9.009  71.952  1.00  0.00    -0.373 C  
BRANCH  23  24
HETATM   24  C   UNL     1     -11.939   8.535  71.883  1.00  0.00    -0.409 C  
HETATM   25  C   UNL     1     -12.850   9.612  71.340  1.00  0.00    -0.379 C  
HETATM   26  O   UNL     1     -12.501  10.727  70.991  1.00  0.00    -0.349 OA 
HETATM   27  O   UNL     1     -14.139   9.206  71.280  1.00  0.00    -0.275 OA 
ENDBRANCH  23  24
ENDBRANCH  22  23
ENDBRANCH  21  22
ENDBRANCH  20  21
ENDBRANCH  19  20
ENDBRANCH  18  19
ENDBRANCH  10  11
ENDBRANCH   6   9
ENDBRANCH   5   6
ENDBRANCH   4   5
ENDBRANCH   3   4
ENDBRANCH   2   3
TORSDOF 12
ENDMDL
MODEL      326
REMARK 921   NORMALIZED FREE ENERGY PREDICTED BY IDOCK:   -3.20 KCAL/MOL
REMARK 922        TOTAL FREE ENERGY PREDICTED BY IDOCK:   -7.40 KCAL/MOL
REMARK 923 INTER-LIGAND FREE ENERGY PREDICTED BY IDOCK:   -6.67 KCAL/MOL
REMARK 924 INTRA-LIGAND FREE ENERGY PREDICTED BY IDOCK:   -0.72 KCAL/MOL
REMARK 927      BINDING AFFINITY PREDICTED BY RF-SCORE:    0.00 PKD
ROOT
HETATM    1  C   UNL     1      -5.786  20.760  68.622  1.00  0.00    -0.388 C  
HETATM    2  C   UNL     1      -6.288  19.572  69.424  1.00  0.00    -0.355 C  
ENDROOT
BRANCH   2   3
HETATM    3  C   UNL     1      -7.103  18.604  68.564  1.00  0.00    -0.297 C  
BRANCH   3   4
HETATM    4  C   UNL     1      -8.075  19.380  67.677  1.00  0.00    -0.317 C  
BRANCH   4   5
HETATM    5  C   UNL     1      -8.696  18.510  66.582  1.00  0.00    -0.294 C  
BRANCH   5   6
HETATM    6  C   UNL     1     -10.189  18.220  66.814  1.00  0.00    -0.378 C  
HETATM    7  O   UNL     1     -10.746  19.361  67.459  1.00  0.00    -0.459 OA 
HETATM    8  H   UNL     1     -11.668  19.182  67.603  1.00  0.00     0.000 HD 
BRANCH   6   9
HETATM    9  C   UNL     1     -10.426  16.969  67.632  1.00  0.00    -0.343 C  
HETATM   10  C   UNL     1     -10.802  16.899  68.919  1.00  0.00    -0.274 C  
BRANCH  10  11
HETATM   11  C   UNL     1     -10.868  15.615  69.719  1.00  0.00    -0.310 C  
HETATM   12  C   UNL     1     -11.973  15.719  70.791  1.00  0.00    -0.407 C  
HETATM   13  O   UNL     1     -11.545  16.451  71.931  1.00  0.00    -0.481 OA 
HETATM   14  C   UNL     1     -12.306  14.291  71.167  1.00  0.00    -0.440 C  
HETATM   15  H   UNL     1     -12.226  16.515  72.591  1.00  0.00     0.000 HD 
HETATM   16  C   UNL     1     -12.121  13.595  69.855  1.00  0.00    -0.341 C  
HETATM   17  O   UNL     1     -12.645  12.515  69.607  1.00  0.00     0.095 OA 
HETATM   18  C   UNL     1     -11.222  14.355  68.892  1.00  0.00    -0.284 C  
BRANCH  18  19
HETATM   19  C   UNL     1      -9.958  13.559  68.513  1.00  0.00    -0.202 C  
BRANCH  19  20
HETATM   20  C   UNL     1     -10.226  12.359  67.595  1.00  0.00    -0.210 C  
BRANCH  20  21
HETATM   21  C   UNL     1      -9.059  11.368  67.588  1.00  0.00    -0.155 C  
BRANCH  21  22
HETATM   22  C   UNL     1      -9.503  10.002  67.057  1.00  0.00    -0.197 C  
BRANCH  22  23
HETATM   23  C   UNL     1      -8.860   8.861  67.847  1.00  0.00    -0.133 C  
BRANCH  23  24
HETATM   24  C   UNL     1      -9.138   7.501  67.203  1.00  0.00    -0.144 C  
HETATM   25  C   UNL     1      -8.183   7.219  66.066  1.00  0.00    -0.138 C  
HETATM   26  O   UNL     1      -7.292   7.960  65.687  1.00  0.00    -0.075 OA 
HETATM   27  O   UNL     1      -8.423   6.021  65.485  1.00  0.00    -0.145 OA 
ENDBRANCH  23  24
ENDBRANCH  22  23
ENDBRANCH  21  22
ENDBRANCH  20  21
ENDBRANCH  19  20
ENDBRANCH  18  19
ENDBRANCH  10  11
ENDBRANCH   6   9
ENDBRANCH   5   6
ENDBRANCH   4   5
ENDBRANCH   3   4
ENDBRANCH   2   3
TORSDOF 12
ENDMDL
MODEL      327
REMARK 921   NORMALIZED FREE ENERGY PREDICTED BY IDOCK:   -3.16 KCAL/MOL
REMARK 922        TOTAL FREE ENERGY PREDICTED BY IDOCK:   -7.32 KCAL/MOL
REMARK 923 INTER-LIGAND FREE ENERGY PREDICTED BY IDOCK:   -5.85 KCAL/MOL
REMARK 924 INTRA-LIGAND FREE ENERGY PREDICTED BY IDOCK:   -1.47 KCAL/MOL
REMARK 927      BINDING AFFINITY PREDICTED BY RF-SCORE:    0.00 PKD
ROOT
HETATM    1  C   UNL     1      -8.384  16.341  68.893  1.00  0.00    -0.231 C  
HETATM    2  C   UNL     1      -8.996  17.286  67.875  1.00  0.00    -0.235 C  
ENDROOT
BRANCH   2   3
HETATM    3  C   UNL     1     -10.433  16.895  67.520  1.00  0.00    -0.328 C  
BRANCH   3   4
HETATM    4  C   UNL     1     -11.087  16.176  68.699  1.00  0.00    -0.356 C  
BRANCH   4   5
HETATM    5  C   UNL     1     -11.746  14.857  68.290  1.00  0.00    -0.342 C  
BRANCH   5   6
HETATM    6  C   UNL     1     -11.627  14.562  66.786  1.00  0.00    -0.376 C  
HETATM    7  O   UNL     1     -12.925  14.209  66.319  1.00  0.00    -0.451 OA 
HETATM    8  H   UNL     1     -12.851  14.026  65.389  1.00  0.00     0.000 HD 
BRANCH   6   9
HETATM    9  C   UNL     1     -10.627  13.468  66.478  1.00  0.00    -0.281 C  
HETATM   10  C   UNL     1      -9.706  12.952  67.308  1.00  0.00    -0.220 C  
BRANCH  10  11
HETATM   11  C   UNL     1      -8.634  11.970  66.886  1.00  0.00    -0.189 C  
HETATM   12  C   UNL     1      -7.286  12.352  67.535  1.00  0.00    -0.146 C  
HETATM   13  O   UNL     1      -6.641  13.412  66.843  1.00  0.00    -0.369 OA 
HETATM   14  C   UNL     1      -6.445  11.094  67.490  1.00  0.00    -0.069 C  
HETATM   15  H   UNL     1      -5.811  13.646  67.242  1.00  0.00     0.000 HD 
HETATM   16  C   UNL     1      -7.490  10.040  67.684  1.00  0.00    -0.090 C  
HETATM   17  O   UNL     1      -7.219   8.916  68.091  1.00  0.00    -0.077 OA 
HETATM   18  C   UNL     1      -8.891  10.506  67.317  1.00  0.00    -0.138 C  
BRANCH  18  19
HETATM   19  C   UNL     1      -9.504   9.682  66.169  1.00  0.00    -0.274 C  
BRANCH  19  20
HETATM   20  C   UNL     1     -10.500   8.609  66.631  1.00  0.00    -0.239 C  
BRANCH  20  21
HETATM   21  C   UNL     1      -9.843   7.232  66.757  1.00  0.00    -0.281 C  
BRANCH  21  22
HETATM   22  C   UNL     1     -10.897   6.137  66.946  1.00  0.00    -0.411 C  
BRANCH  22  23
HETATM   23  C   UNL     1     -10.588   4.911  66.086  1.00  0.00    -0.322 C  
BRANCH  23  24
HETATM   24  C   UNL     1      -9.164   4.955  65.530  1.00  0.00    -0.160 C  
HETATM   25  C   UNL     1      -8.293   3.883  66.146  1.00  0.00    -0.108 C  
HETATM   26  O   UNL     1      -8.652   3.071  66.981  1.00  0.00    -0.099 OA 
HETATM   27  O   UNL     1      -7.029   3.916  65.665  1.00  0.00    -0.059 OA 
ENDBRANCH  23  24
ENDBRANCH  22  23
ENDBRANCH  21  22
ENDBRANCH  20  21
ENDBRANCH  19  20
ENDBRANCH  18  19
ENDBRANCH  10  11
ENDBRANCH   6   9
ENDBRANCH   5   6
ENDBRANCH   4   5
ENDBRANCH   3   4
ENDBRANCH   2   3
TORSDOF 12
ENDMDL
MODEL      328
REMARK 921   NORMALIZED FREE ENERGY PREDICTED BY IDOCK:   -3.16 KCAL/MOL
REMARK 922        TOTAL FREE ENERGY PREDICTED BY IDOCK:   -7.32 KCAL/MOL
REMARK 923 INTER-LIGAND FREE ENERGY PREDICTED BY IDOCK:   -5.28 KCAL/MOL
REMARK 924 INTRA-LIGAND FREE ENERGY PREDICTED BY IDOCK:   -2.04 KCAL/MOL
REMARK 927      BINDING AFFINITY PREDICTED BY RF-SCORE:    0.00 PKD
ROOT
HETATM    1  C   UNL     1      -8.571   6.876  65.670  1.00  0.00    -0.119 C  
HETATM    2  C   UNL     1      -8.593   5.359  65.716  1.00  0.00    -0.139 C  
ENDROOT
BRANCH   2   3
HETATM    3  C   UNL     1      -9.891   4.822  66.324  1.00  0.00    -0.236 C  
BRANCH   3   4
HETATM    4  C   UNL     1      -9.579   3.728  67.343  1.00  0.00    -0.208 C  
BRANCH   4   5
HETATM    5  C   UNL     1      -8.291   4.001  68.124  1.00  0.00    -0.100 C  
BRANCH   5   6
HETATM    6  C   UNL     1      -8.538   4.287  69.615  1.00  0.00    -0.072 C  
HETATM    7  O   UNL     1      -9.653   3.498  70.019  1.00  0.00    -0.188 OA 
HETATM    8  H   UNL     1      -9.805   3.675  70.940  1.00  0.00     0.000 HD 
BRANCH   6   9
HETATM    9  C   UNL     1      -8.783   5.753  69.901  1.00  0.00    -0.128 C  
HETATM   10  C   UNL     1      -8.272   6.805  69.242  1.00  0.00    -0.124 C  
BRANCH  10  11
HETATM   11  C   UNL     1      -8.434   8.245  69.680  1.00  0.00    -0.125 C  
HETATM   12  C   UNL     1      -7.059   8.842  70.048  1.00  0.00    -0.047 C  
HETATM   13  O   UNL     1      -6.638   8.454  71.349  1.00  0.00    -0.049 OA 
HETATM   14  C   UNL     1      -7.235  10.343  69.969  1.00  0.00    -0.143 C  
HETATM   15  H   UNL     1      -5.792   8.821  71.574  1.00  0.00     0.000 HD 
HETATM   16  C   UNL     1      -8.208  10.461  68.838  1.00  0.00    -0.132 C  
HETATM   17  O   UNL     1      -8.336  11.493  68.189  1.00  0.00    -0.137 OA 
HETATM   18  C   UNL     1      -9.010   9.191  68.598  1.00  0.00    -0.136 C  
BRANCH  18  19
HETATM   19  C   UNL     1     -10.524   9.404  68.787  1.00  0.00    -0.236 C  
BRANCH  19  20
HETATM   20  C   UNL     1     -10.894  10.156  70.072  1.00  0.00    -0.361 C  
BRANCH  20  21
HETATM   21  C   UNL     1     -11.801  11.358  69.794  1.00  0.00    -0.435 C  
BRANCH  21  22
HETATM   22  C   UNL     1     -11.897  11.636  68.290  1.00  0.00    -0.335 C  
BRANCH  22  23
HETATM   23  C   UNL     1     -11.863  13.136  67.997  1.00  0.00    -0.398 C  
BRANCH  23  24
HETATM   24  C   UNL     1     -11.947  13.421  66.497  1.00  0.00    -0.452 C  
HETATM   25  C   UNL     1     -10.635  13.940  65.953  1.00  0.00    -0.293 C  
HETATM   26  O   UNL     1      -9.620  14.118  66.604  1.00  0.00    -0.268 OA 
HETATM   27  O   UNL     1     -10.701  14.201  64.628  1.00  0.00    -0.416 OA 
ENDBRANCH  23  24
ENDBRANCH  22  23
ENDBRANCH  21  22
ENDBRANCH  20  21
ENDBRANCH  19  20
ENDBRANCH  18  19
ENDBRANCH  10  11
ENDBRANCH   6   9
ENDBRANCH   5   6
ENDBRANCH   4   5
ENDBRANCH   3   4
ENDBRANCH   2   3
TORSDOF 12
ENDMDL
MODEL      329
REMARK 921   NORMALIZED FREE ENERGY PREDICTED BY IDOCK:   -3.15 KCAL/MOL
REMARK 922        TOTAL FREE ENERGY PREDICTED BY IDOCK:   -7.31 KCAL/MOL
REMARK 923 INTER-LIGAND FREE ENERGY PREDICTED BY IDOCK:   -6.45 KCAL/MOL
REMARK 924 INTRA-LIGAND FREE ENERGY PREDICTED BY IDOCK:   -0.86 KCAL/MOL
REMARK 927      BINDING AFFINITY PREDICTED BY RF-SCORE:    0.00 PKD
ROOT
HETATM    1  C   UNL     1      -6.842   7.984  64.845  1.00  0.00    -0.058 C  
HETATM    2  C   UNL     1      -8.256   7.460  64.668  1.00  0.00    -0.043 C  
ENDROOT
BRANCH   2   3
HETATM    3  C   UNL     1      -8.527   6.235  65.544  1.00  0.00    -0.145 C  
BRANCH   3   4
HETATM    4  C   UNL     1      -9.714   6.505  66.468  1.00  0.00    -0.177 C  
BRANCH   4   5
HETATM    5  C   UNL     1      -9.337   6.428  67.949  1.00  0.00    -0.114 C  
BRANCH   5   6
HETATM    6  C   UNL     1      -8.515   7.638  68.426  1.00  0.00    -0.125 C  
HETATM    7  O   UNL     1      -8.759   7.792  69.820  1.00  0.00    -0.137 OA 
HETATM    8  H   UNL     1      -8.251   8.540  70.115  1.00  0.00     0.000 HD 
BRANCH   6   9
HETATM    9  C   UNL     1      -8.849   8.910  67.677  1.00  0.00    -0.137 C  
HETATM   10  C   UNL     1      -9.234  10.084  68.202  1.00  0.00    -0.130 C  
BRANCH  10  11
HETATM   11  C   UNL     1      -9.704  11.269  67.385  1.00  0.00    -0.190 C  
HETATM   12  C   UNL     1      -9.176  11.154  65.939  1.00  0.00    -0.206 C  
HETATM   13  O   UNL     1      -7.821  11.570  65.831  1.00  0.00    -0.368 OA 
HETATM   14  C   UNL     1     -10.075  12.044  65.108  1.00  0.00    -0.295 C  
HETATM   15  H   UNL     1      -7.496  11.500  64.941  1.00  0.00     0.000 HD 
HETATM   16  C   UNL     1     -11.386  11.864  65.807  1.00  0.00    -0.299 C  
HETATM   17  O   UNL     1     -12.458  12.092  65.258  1.00  0.00    -0.427 OA 
HETATM   18  C   UNL     1     -11.242  11.390  67.245  1.00  0.00    -0.370 C  
BRANCH  18  19
HETATM   19  C   UNL     1     -11.820  12.396  68.259  1.00  0.00    -0.364 C  
BRANCH  19  20
HETATM   20  C   UNL     1     -11.895  13.837  67.736  1.00  0.00    -0.404 C  
BRANCH  20  21
HETATM   21  C   UNL     1     -10.836  14.738  68.377  1.00  0.00    -0.248 C  
BRANCH  21  22
HETATM   22  C   UNL     1     -10.538  15.950  67.490  1.00  0.00    -0.315 C  
BRANCH  22  23
HETATM   23  C   UNL     1      -9.731  15.552  66.254  1.00  0.00    -0.328 C  
BRANCH  23  24
HETATM   24  C   UNL     1     -10.634  15.305  65.045  1.00  0.00    -0.444 C  
HETATM   25  C   UNL     1     -11.242  16.590  64.532  1.00  0.00    -0.024 C  
HETATM   26  O   UNL     1     -11.054  17.700  65.000  1.00  0.00    -0.716 OA 
HETATM   27  O   UNL     1     -12.048  16.382  63.466  1.00  0.00    -0.383 OA 
ENDBRANCH  23  24
ENDBRANCH  22  23
ENDBRANCH  21  22
ENDBRANCH  20  21
ENDBRANCH  19  20
ENDBRANCH  18  19
ENDBRANCH  10  11
ENDBRANCH   6   9
ENDBRANCH   5   6
ENDBRANCH   4   5
ENDBRANCH   3   4
ENDBRANCH   2   3
TORSDOF 12
ENDMDL
MODEL      330
REMARK 921   NORMALIZED FREE ENERGY PREDICTED BY IDOCK:   -3.15 KCAL/MOL
REMARK 922        TOTAL FREE ENERGY PREDICTED BY IDOCK:   -7.31 KCAL/MOL
REMARK 923 INTER-LIGAND FREE ENERGY PREDICTED BY IDOCK:   -5.91 KCAL/MOL
REMARK 924 INTRA-LIGAND FREE ENERGY PREDICTED BY IDOCK:   -1.40 KCAL/MOL
REMARK 927      BINDING AFFINITY PREDICTED BY RF-SCORE:    0.00 PKD
ROOT
HETATM    1  C   UNL     1     -10.277   5.308  66.737  1.00  0.00    -0.287 C  
HETATM    2  C   UNL     1      -9.120   5.007  67.673  1.00  0.00    -0.121 C  
ENDROOT
BRANCH   2   3
HETATM    3  C   UNL     1      -9.597   4.446  69.014  1.00  0.00    -0.244 C  
BRANCH   3   4
HETATM    4  C   UNL     1      -9.669   5.563  70.054  1.00  0.00    -0.238 C  
BRANCH   4   5
HETATM    5  C   UNL     1     -11.074   6.157  70.183  1.00  0.00    -0.448 C  
BRANCH   5   6
HETATM    6  C   UNL     1     -11.067   7.645  70.572  1.00  0.00    -0.255 C  
HETATM    7  O   UNL     1     -12.340   7.940  71.138  1.00  0.00    -0.380 OA 
HETATM    8  H   UNL     1     -12.336   8.860  71.378  1.00  0.00     0.000 HD 
BRANCH   6   9
HETATM    9  C   UNL     1     -10.773   8.558  69.402  1.00  0.00    -0.166 C  
HETATM   10  C   UNL     1      -9.572   8.831  68.866  1.00  0.00    -0.158 C  
BRANCH  10  11
HETATM   11  C   UNL     1      -9.333   9.876  67.798  1.00  0.00    -0.154 C  
HETATM   12  C   UNL     1      -8.251   9.384  66.813  1.00  0.00    -0.112 C  
HETATM   13  O   UNL     1      -6.939   9.560  67.330  1.00  0.00    -0.082 OA 
HETATM   14  C   UNL     1      -8.444  10.206  65.556  1.00  0.00    -0.159 C  
HETATM   15  H   UNL     1      -6.273   9.257  66.724  1.00  0.00     0.000 HD 
HETATM   16  C   UNL     1      -9.931  10.375  65.547  1.00  0.00    -0.282 C  
HETATM   17  O   UNL     1     -10.553  10.642  64.525  1.00  0.00    -0.304 OA 
HETATM   18  C   UNL     1     -10.567  10.195  66.918  1.00  0.00    -0.267 C  
BRANCH  18  19
HETATM   19  C   UNL     1     -11.289  11.466  67.404  1.00  0.00    -0.359 C  
BRANCH  19  20
HETATM   20  C   UNL     1     -10.355  12.525  68.007  1.00  0.00    -0.226 C  
BRANCH  20  21
HETATM   21  C   UNL     1     -11.098  13.478  68.947  1.00  0.00    -0.305 C  
BRANCH  21  22
HETATM   22  C   UNL     1     -10.222  14.681  69.312  1.00  0.00    -0.156 C  
BRANCH  22  23
HETATM   23  C   UNL     1     -10.216  15.725  68.196  1.00  0.00    -0.230 C  
BRANCH  23  24
HETATM   24  C   UNL     1     -10.354  17.144  68.749  1.00  0.00    -0.353 C  
HETATM   25  C   UNL     1      -9.020  17.856  68.795  1.00  0.00    -0.196 C  
HETATM   26  O   UNL     1      -7.953  17.385  68.441  1.00  0.00    -0.239 OA 
HETATM   27  O   UNL     1      -9.130  19.110  69.288  1.00  0.00    -0.184 OA 
ENDBRANCH  23  24
ENDBRANCH  22  23
ENDBRANCH  21  22
ENDBRANCH  20  21
ENDBRANCH  19  20
ENDBRANCH  18  19
ENDBRANCH  10  11
ENDBRANCH   6   9
ENDBRANCH   5   6
ENDBRANCH   4   5
ENDBRANCH   3   4
ENDBRANCH   2   3
TORSDOF 12
ENDMDL
MODEL      331
REMARK 921   NORMALIZED FREE ENERGY PREDICTED BY IDOCK:   -3.15 KCAL/MOL
REMARK 922        TOTAL FREE ENERGY PREDICTED BY IDOCK:   -7.31 KCAL/MOL
REMARK 923 INTER-LIGAND FREE ENERGY PREDICTED BY IDOCK:   -5.17 KCAL/MOL
REMARK 924 INTRA-LIGAND FREE ENERGY PREDICTED BY IDOCK:   -2.14 KCAL/MOL
REMARK 927      BINDING AFFINITY PREDICTED BY RF-SCORE:    0.00 PKD
ROOT
HETATM    1  C   UNL     1      -7.412  16.075  69.052  1.00  0.00    -0.202 C  
HETATM    2  C   UNL     1      -6.941  15.019  70.036  1.00  0.00    -0.096 C  
ENDROOT
BRANCH   2   3
HETATM    3  C   UNL     1      -5.596  14.414  69.628  1.00  0.00    -0.095 C  
BRANCH   3   4
HETATM    4  C   UNL     1      -5.800  12.996  69.095  1.00  0.00    -0.081 C  
BRANCH   4   5
HETATM    5  C   UNL     1      -5.820  12.939  67.566  1.00  0.00    -0.115 C  
BRANCH   5   6
HETATM    6  C   UNL     1      -7.090  12.281  67.002  1.00  0.00    -0.037 C  
HETATM    7  O   UNL     1      -7.980  13.328  66.629  1.00  0.00    -0.358 OA 
HETATM    8  H   UNL     1      -8.765  12.921  66.280  1.00  0.00     0.000 HD 
BRANCH   6   9
HETATM    9  C   UNL     1      -7.750  11.338  67.984  1.00  0.00    -0.108 C  
HETATM   10  C   UNL     1      -7.593  10.006  68.063  1.00  0.00    -0.088 C  
BRANCH  10  11
HETATM   11  C   UNL     1      -8.405   9.104  68.967  1.00  0.00    -0.127 C  
HETATM   12  C   UNL     1      -7.463   8.229  69.821  1.00  0.00    -0.077 C  
HETATM   13  O   UNL     1      -6.964   7.114  69.094  1.00  0.00    -0.069 OA 
HETATM   14  C   UNL     1      -8.295   7.770  71.000  1.00  0.00    -0.114 C  
HETATM   15  H   UNL     1      -6.385   6.575  69.620  1.00  0.00     0.000 HD 
HETATM   16  C   UNL     1      -9.170   8.964  71.218  1.00  0.00    -0.258 C  
HETATM   17  O   UNL     1      -9.725   9.182  72.289  1.00  0.00    -0.186 OA 
HETATM   18  C   UNL     1      -9.302   9.848  69.987  1.00  0.00    -0.232 C  
BRANCH  18  19
HETATM   19  C   UNL     1     -10.755   9.950  69.486  1.00  0.00    -0.265 C  
BRANCH  19  20
HETATM   20  C   UNL     1     -11.440  11.283  69.819  1.00  0.00    -0.386 C  
BRANCH  20  21
HETATM   21  C   UNL     1     -11.452  12.237  68.622  1.00  0.00    -0.355 C  
BRANCH  21  22
HETATM   22  C   UNL     1     -11.796  11.491  67.329  1.00  0.00    -0.061 C  
BRANCH  22  23
HETATM   23  C   UNL     1     -11.290  12.244  66.099  1.00  0.00    -0.402 C  
BRANCH  23  24
HETATM   24  C   UNL     1     -10.441  11.346  65.196  1.00  0.00    -0.351 C  
HETATM   25  C   UNL     1     -10.888  11.425  63.754  1.00  0.00    -0.395 C  
HETATM   26  O   UNL     1     -11.804  12.109  63.332  1.00  0.00    -0.463 OA 
HETATM   27  O   UNL     1     -10.147  10.631  62.948  1.00  0.00    -0.248 OA 
ENDBRANCH  23  24
ENDBRANCH  22  23
ENDBRANCH  21  22
ENDBRANCH  20  21
ENDBRANCH  19  20
ENDBRANCH  18  19
ENDBRANCH  10  11
ENDBRANCH   6   9
ENDBRANCH   5   6
ENDBRANCH   4   5
ENDBRANCH   3   4
ENDBRANCH   2   3
TORSDOF 12
ENDMDL
MODEL      332
REMARK 921   NORMALIZED FREE ENERGY PREDICTED BY IDOCK:   -3.14 KCAL/MOL
REMARK 922        TOTAL FREE ENERGY PREDICTED BY IDOCK:   -7.29 KCAL/MOL
REMARK 923 INTER-LIGAND FREE ENERGY PREDICTED BY IDOCK:   -5.31 KCAL/MOL
REMARK 924 INTRA-LIGAND FREE ENERGY PREDICTED BY IDOCK:   -1.98 KCAL/MOL
REMARK 927      BINDING AFFINITY PREDICTED BY RF-SCORE:    0.00 PKD
ROOT
HETATM    1  C   UNL     1     -12.091  12.197  64.336  1.00  0.00    -0.443 C  
HETATM    2  C   UNL     1     -11.904  12.620  65.782  1.00  0.00    -0.497 C  
ENDROOT
BRANCH   2   3
HETATM    3  C   UNL     1     -12.363  14.060  66.022  1.00  0.00    -0.504 C  
BRANCH   3   4
HETATM    4  C   UNL     1     -11.152  14.978  66.173  1.00  0.00    -0.329 C  
BRANCH   4   5
HETATM    5  C   UNL     1     -11.081  15.636  67.553  1.00  0.00    -0.289 C  
BRANCH   5   6
HETATM    6  C   UNL     1     -10.680  14.657  68.670  1.00  0.00    -0.250 C  
HETATM    7  O   UNL     1     -11.117  15.220  69.903  1.00  0.00    -0.253 OA 
HETATM    8  H   UNL     1     -10.869  14.615  70.593  1.00  0.00     0.000 HD 
BRANCH   6   9
HETATM    9  C   UNL     1      -9.193  14.378  68.702  1.00  0.00    -0.181 C  
HETATM   10  C   UNL     1      -8.488  13.632  67.836  1.00  0.00    -0.177 C  
BRANCH  10  11
HETATM   11  C   UNL     1      -7.030  13.265  68.017  1.00  0.00    -0.120 C  
HETATM   12  C   UNL     1      -6.482  13.911  69.307  1.00  0.00    -0.115 C  
HETATM   13  O   UNL     1      -6.152  15.281  69.121  1.00  0.00    -0.098 OA 
HETATM   14  C   UNL     1      -5.249  13.109  69.668  1.00  0.00    -0.086 C  
HETATM   15  H   UNL     1      -5.814  15.678  69.915  1.00  0.00     0.000 HD 
HETATM   16  C   UNL     1      -5.654  11.740  69.222  1.00  0.00    -0.055 C  
HETATM   17  O   UNL     1      -5.126  10.725  69.661  1.00  0.00    -0.038 OA 
HETATM   18  C   UNL     1      -6.760  11.749  68.177  1.00  0.00    -0.064 C  
BRANCH  18  19
HETATM   19  C   UNL     1      -6.317  11.115  66.844  1.00  0.00    -0.114 C  
BRANCH  19  20
HETATM   20  C   UNL     1      -7.230   9.982  66.356  1.00  0.00    -0.103 C  
BRANCH  20  21
HETATM   21  C   UNL     1      -8.570  10.508  65.833  1.00  0.00    -0.170 C  
BRANCH  21  22
HETATM   22  C   UNL     1      -9.679   9.468  66.022  1.00  0.00    -0.341 C  
BRANCH  22  23
HETATM   23  C   UNL     1     -10.439   9.695  67.328  1.00  0.00    -0.323 C  
BRANCH  23  24
HETATM   24  C   UNL     1     -10.358   8.476  68.249  1.00  0.00    -0.246 C  
HETATM   25  C   UNL     1      -9.544   8.769  69.489  1.00  0.00    -0.167 C  
HETATM   26  O   UNL     1      -9.009   9.833  69.751  1.00  0.00    -0.192 OA 
HETATM   27  O   UNL     1      -9.460   7.696  70.308  1.00  0.00    -0.161 OA 
ENDBRANCH  23  24
ENDBRANCH  22  23
ENDBRANCH  21  22
ENDBRANCH  20  21
ENDBRANCH  19  20
ENDBRANCH  18  19
ENDBRANCH  10  11
ENDBRANCH   6   9
ENDBRANCH   5   6
ENDBRANCH   4   5
ENDBRANCH   3   4
ENDBRANCH   2   3
TORSDOF 12
ENDMDL
MODEL      333
REMARK 921   NORMALIZED FREE ENERGY PREDICTED BY IDOCK:   -3.14 KCAL/MOL
REMARK 922        TOTAL FREE ENERGY PREDICTED BY IDOCK:   -7.28 KCAL/MOL
REMARK 923 INTER-LIGAND FREE ENERGY PREDICTED BY IDOCK:   -6.08 KCAL/MOL
REMARK 924 INTRA-LIGAND FREE ENERGY PREDICTED BY IDOCK:   -1.20 KCAL/MOL
REMARK 927      BINDING AFFINITY PREDICTED BY RF-SCORE:    0.00 PKD
ROOT
HETATM    1  C   UNL     1      -5.419  12.963  71.021  1.00  0.00    -0.176 C  
HETATM    2  C   UNL     1      -5.573  14.397  70.547  1.00  0.00    -0.145 C  
ENDROOT
BRANCH   2   3
HETATM    3  C   UNL     1      -6.024  14.473  69.087  1.00  0.00    -0.094 C  
BRANCH   3   4
HETATM    4  C   UNL     1      -7.047  13.378  68.796  1.00  0.00    -0.101 C  
BRANCH   4   5
HETATM    5  C   UNL     1      -8.393  13.938  68.329  1.00  0.00    -0.163 C  
BRANCH   5   6
HETATM    6  C   UNL     1      -9.326  12.864  67.746  1.00  0.00    -0.203 C  
HETATM    7  O   UNL     1      -9.783  12.065  68.832  1.00  0.00    -0.406 OA 
HETATM    8  H   UNL     1     -10.360  11.401  68.472  1.00  0.00     0.000 HD 
BRANCH   6   9
HETATM    9  C   UNL     1      -8.654  12.008  66.694  1.00  0.00    -0.143 C  
HETATM   10  C   UNL     1      -8.563  10.668  66.673  1.00  0.00    -0.139 C  
BRANCH  10  11
HETATM   11  C   UNL     1      -7.740   9.886  65.672  1.00  0.00    -0.121 C  
HETATM   12  C   UNL     1      -7.149   8.628  66.344  1.00  0.00    -0.079 C  
HETATM   13  O   UNL     1      -5.994   8.928  67.116  1.00  0.00    -0.054 OA 
HETATM   14  C   UNL     1      -6.805   7.688  65.209  1.00  0.00    -0.048 C  
HETATM   15  H   UNL     1      -5.630   8.153  67.529  1.00  0.00     0.000 HD 
HETATM   16  C   UNL     1      -7.902   7.991  64.238  1.00  0.00    -0.137 C  
HETATM   17  O   UNL     1      -8.234   7.205  63.358  1.00  0.00    -0.048 OA 
HETATM   18  C   UNL     1      -8.535   9.358  64.453  1.00  0.00    -0.196 C  
BRANCH  18  19
HETATM   19  C   UNL     1      -8.369  10.283  63.232  1.00  0.00    -0.168 C  
BRANCH  19  20
HETATM   20  C   UNL     1      -9.680  10.910  62.738  1.00  0.00    -0.307 C  
BRANCH  20  21
HETATM   21  C   UNL     1     -10.607  11.290  63.896  1.00  0.00    -0.455 C  
BRANCH  21  22
HETATM   22  C   UNL     1     -11.583  12.394  63.478  1.00  0.00    -0.577 C  
BRANCH  22  23
HETATM   23  C   UNL     1     -12.241  13.046  64.694  1.00  0.00    -0.477 C  
BRANCH  23  24
HETATM   24  C   UNL     1     -12.393  14.557  64.513  1.00  0.00    -0.434 C  
HETATM   25  C   UNL     1     -11.050  15.252  64.482  1.00  0.00    -0.245 C  
HETATM   26  O   UNL     1      -9.966  14.703  64.585  1.00  0.00    -0.174 OA 
HETATM   27  O   UNL     1     -11.173  16.590  64.328  1.00  0.00    -0.992 OA 
ENDBRANCH  23  24
ENDBRANCH  22  23
ENDBRANCH  21  22
ENDBRANCH  20  21
ENDBRANCH  19  20
ENDBRANCH  18  19
ENDBRANCH  10  11
ENDBRANCH   6   9
ENDBRANCH   5   6
ENDBRANCH   4   5
ENDBRANCH   3   4
ENDBRANCH   2   3
TORSDOF 12
ENDMDL
MODEL      334
REMARK 921   NORMALIZED FREE ENERGY PREDICTED BY IDOCK:   -3.12 KCAL/MOL
REMARK 922        TOTAL FREE ENERGY PREDICTED BY IDOCK:   -7.26 KCAL/MOL
REMARK 923 INTER-LIGAND FREE ENERGY PREDICTED BY IDOCK:   -5.74 KCAL/MOL
REMARK 924 INTRA-LIGAND FREE ENERGY PREDICTED BY IDOCK:   -1.52 KCAL/MOL
REMARK 927      BINDING AFFINITY PREDICTED BY RF-SCORE:    0.00 PKD
ROOT
HETATM    1  C   UNL     1      -8.200   8.341  65.872  1.00  0.00    -0.119 C  
HETATM    2  C   UNL     1      -9.389   7.626  66.488  1.00  0.00    -0.241 C  
ENDROOT
BRANCH   2   3
HETATM    3  C   UNL     1      -9.433   6.146  66.099  1.00  0.00    -0.100 C  
BRANCH   3   4
HETATM    4  C   UNL     1     -10.483   5.416  66.934  1.00  0.00    -0.337 C  
BRANCH   4   5
HETATM    5  C   UNL     1      -9.903   4.219  67.692  1.00  0.00    -0.150 C  
BRANCH   5   6
HETATM    6  C   UNL     1      -8.701   4.589  68.578  1.00  0.00    -0.099 C  
HETATM    7  O   UNL     1      -8.117   3.372  69.029  1.00  0.00    -0.060 OA 
HETATM    8  H   UNL     1      -7.374   3.601  69.576  1.00  0.00     0.000 HD 
BRANCH   6   9
HETATM    9  C   UNL     1      -9.080   5.472  69.747  1.00  0.00    -0.157 C  
HETATM   10  C   UNL     1      -8.617   5.396  71.005  1.00  0.00    -0.127 C  
BRANCH  10  11
HETATM   11  C   UNL     1      -9.157   6.209  72.163  1.00  0.00    -0.141 C  
HETATM   12  C   UNL     1      -8.809   5.519  73.499  1.00  0.00    -0.122 C  
HETATM   13  O   UNL     1      -9.693   4.446  73.791  1.00  0.00    -0.124 OA 
HETATM   14  C   UNL     1      -8.915   6.601  74.552  1.00  0.00    -0.210 C  
HETATM   15  H   UNL     1      -9.479   4.021  74.614  1.00  0.00     0.000 HD 
HETATM   16  C   UNL     1      -8.441   7.797  73.787  1.00  0.00    -0.236 C  
HETATM   17  O   UNL     1      -8.006   8.799  74.342  1.00  0.00    -0.369 OA 
HETATM   18  C   UNL     1      -8.570   7.637  72.279  1.00  0.00    -0.157 C  
BRANCH  18  19
HETATM   19  C   UNL     1      -9.511   8.684  71.654  1.00  0.00    -0.339 C  
BRANCH  19  20
HETATM   20  C   UNL     1     -10.954   8.618  72.174  1.00  0.00    -0.434 C  
BRANCH  20  21
HETATM   21  C   UNL     1     -11.933   9.343  71.247  1.00  0.00    -0.430 C  
BRANCH  21  22
HETATM   22  C   UNL     1     -11.202   9.957  70.049  1.00  0.00    -0.327 C  
BRANCH  22  23
HETATM   23  C   UNL     1     -11.729  11.356  69.731  1.00  0.00    -0.418 C  
BRANCH  23  24
HETATM   24  C   UNL     1     -11.827  11.595  68.224  1.00  0.00    -0.335 C  
HETATM   25  C   UNL     1     -10.748  12.537  67.738  1.00  0.00    -0.219 C  
HETATM   26  O   UNL     1      -9.894  13.056  68.436  1.00  0.00    -0.228 OA 
HETATM   27  O   UNL     1     -10.829  12.759  66.407  1.00  0.00    -0.265 OA 
ENDBRANCH  23  24
ENDBRANCH  22  23
ENDBRANCH  21  22
ENDBRANCH  20  21
ENDBRANCH  19  20
ENDBRANCH  18  19
ENDBRANCH  10  11
ENDBRANCH   6   9
ENDBRANCH   5   6
ENDBRANCH   4   5
ENDBRANCH   3   4
ENDBRANCH   2   3
TORSDOF 12
ENDMDL
MODEL      335
REMARK 921   NORMALIZED FREE ENERGY PREDICTED BY IDOCK:   -3.12 KCAL/MOL
REMARK 922        TOTAL FREE ENERGY PREDICTED BY IDOCK:   -7.25 KCAL/MOL
REMARK 923 INTER-LIGAND FREE ENERGY PREDICTED BY IDOCK:   -5.35 KCAL/MOL
REMARK 924 INTRA-LIGAND FREE ENERGY PREDICTED BY IDOCK:   -1.90 KCAL/MOL
REMARK 927      BINDING AFFINITY PREDICTED BY RF-SCORE:    0.00 PKD
ROOT
HETATM    1  C   UNL     1     -12.269  14.496  64.445  1.00  0.00    -0.480 C  
HETATM    2  C   UNL     1     -11.356  13.630  63.594  1.00  0.00     0.134 C  
ENDROOT
BRANCH   2   3
HETATM    3  C   UNL     1     -11.858  12.188  63.499  1.00  0.00    -0.597 C  
BRANCH   3   4
HETATM    4  C   UNL     1     -10.746  11.279  62.980  1.00  0.00    -0.042 C  
BRANCH   4   5
HETATM    5  C   UNL     1      -9.379  11.622  63.576  1.00  0.00    -0.099 C  
BRANCH   5   6
HETATM    6  C   UNL     1      -8.982  10.705  64.745  1.00  0.00    -0.199 C  
HETATM    7  O   UNL     1      -9.457   9.398  64.438  1.00  0.00    -0.424 OA 
HETATM    8  H   UNL     1      -9.212   8.831  65.161  1.00  0.00     0.000 HD 
BRANCH   6   9
HETATM    9  C   UNL     1      -9.526  11.177  66.076  1.00  0.00    -0.234 C  
HETATM   10  C   UNL     1      -9.511  12.430  66.561  1.00  0.00    -0.242 C  
BRANCH  10  11
HETATM   11  C   UNL     1      -9.931  12.804  67.967  1.00  0.00    -0.225 C  
HETATM   12  C   UNL     1      -9.343  14.180  68.343  1.00  0.00    -0.208 C  
HETATM   13  O   UNL     1      -7.979  14.089  68.735  1.00  0.00    -0.180 OA 
HETATM   14  C   UNL     1     -10.195  14.684  69.488  1.00  0.00    -0.040 C  
HETATM   15  H   UNL     1      -7.618  14.937  68.967  1.00  0.00     0.000 HD 
HETATM   16  C   UNL     1     -11.537  14.138  69.113  1.00  0.00    -0.307 C  
HETATM   17  O   UNL     1     -12.581  14.612  69.544  1.00  0.00    -0.179 OA 
HETATM   18  C   UNL     1     -11.460  12.947  68.168  1.00  0.00    -0.354 C  
BRANCH  18  19
HETATM   19  C   UNL     1     -12.067  11.670  68.779  1.00  0.00    -0.221 C  
BRANCH  19  20
HETATM   20  C   UNL     1     -11.247  11.076  69.932  1.00  0.00    -0.327 C  
BRANCH  20  21
HETATM   21  C   UNL     1     -10.838   9.626  69.659  1.00  0.00    -0.266 C  
BRANCH  21  22
HETATM   22  C   UNL     1     -10.098   9.029  70.860  1.00  0.00    -0.329 C  
BRANCH  22  23
HETATM   23  C   UNL     1      -9.116   7.940  70.425  1.00  0.00    -0.154 C  
BRANCH  23  24
HETATM   24  C   UNL     1      -8.640   8.149  68.987  1.00  0.00    -0.133 C  
HETATM   25  C   UNL     1      -7.630   9.271  68.892  1.00  0.00    -0.075 C  
HETATM   26  O   UNL     1      -7.225   9.941  69.827  1.00  0.00    -0.085 OA 
HETATM   27  O   UNL     1      -7.207   9.468  67.624  1.00  0.00    -0.081 OA 
ENDBRANCH  23  24
ENDBRANCH  22  23
ENDBRANCH  21  22
ENDBRANCH  20  21
ENDBRANCH  19  20
ENDBRANCH  18  19
ENDBRANCH  10  11
ENDBRANCH   6   9
ENDBRANCH   5   6
ENDBRANCH   4   5
ENDBRANCH   3   4
ENDBRANCH   2   3
TORSDOF 12
ENDMDL
MODEL      336
REMARK 921   NORMALIZED FREE ENERGY PREDICTED BY IDOCK:   -3.11 KCAL/MOL
REMARK 922        TOTAL FREE ENERGY PREDICTED BY IDOCK:   -7.24 KCAL/MOL
REMARK 923 INTER-LIGAND FREE ENERGY PREDICTED BY IDOCK:   -5.61 KCAL/MOL
REMARK 924 INTRA-LIGAND FREE ENERGY PREDICTED BY IDOCK:   -1.63 KCAL/MOL
REMARK 927      BINDING AFFINITY PREDICTED BY RF-SCORE:    0.00 PKD
ROOT
HETATM    1  C   UNL     1     -12.214  14.613  64.400  1.00  0.00    -0.473 C  
HETATM    2  C   UNL     1     -11.174  15.705  64.575  1.00  0.00    -0.337 C  
ENDROOT
BRANCH   2   3
HETATM    3  C   UNL     1     -10.320  15.489  65.826  1.00  0.00    -0.384 C  
BRANCH   3   4
HETATM    4  C   UNL     1     -10.915  14.371  66.680  1.00  0.00    -0.318 C  
BRANCH   4   5
HETATM    5  C   UNL     1     -10.049  13.109  66.683  1.00  0.00    -0.264 C  
BRANCH   5   6
HETATM    6  C   UNL     1     -10.801  11.860  66.193  1.00  0.00    -0.292 C  
HETATM    7  O   UNL     1     -12.153  11.983  66.624  1.00  0.00    -0.615 OA 
HETATM    8  H   UNL     1     -12.617  11.211  66.321  1.00  0.00     0.000 HD 
BRANCH   6   9
HETATM    9  C   UNL     1     -10.191  10.570  66.696  1.00  0.00    -0.289 C  
HETATM   10  C   UNL     1     -10.773   9.647  67.479  1.00  0.00    -0.321 C  
BRANCH  10  11
HETATM   11  C   UNL     1     -10.051   8.456  68.074  1.00  0.00    -0.245 C  
HETATM   12  C   UNL     1      -9.653   8.758  69.534  1.00  0.00    -0.167 C  
HETATM   13  O   UNL     1      -8.480   9.557  69.613  1.00  0.00    -0.138 OA 
HETATM   14  C   UNL     1      -9.424   7.408  70.179  1.00  0.00    -0.165 C  
HETATM   15  H   UNL     1      -8.234   9.743  70.512  1.00  0.00     0.000 HD 
HETATM   16  C   UNL     1     -10.453   6.576  69.479  1.00  0.00    -0.222 C  
HETATM   17  O   UNL     1     -10.877   5.527  69.950  1.00  0.00    -0.326 OA 
HETATM   18  C   UNL     1     -10.892   7.158  68.144  1.00  0.00    -0.170 C  
BRANCH  18  19
HETATM   19  C   UNL     1     -10.579   6.222  66.961  1.00  0.00    -0.386 C  
BRANCH  19  20
HETATM   20  C   UNL     1      -9.262   6.543  66.241  1.00  0.00    -0.160 C  
BRANCH  20  21
HETATM   21  C   UNL     1      -8.475   5.277  65.891  1.00  0.00    -0.124 C  
BRANCH  21  22
HETATM   22  C   UNL     1      -7.156   5.626  65.196  1.00  0.00    -0.064 C  
BRANCH  22  23
HETATM   23  C   UNL     1      -6.281   6.520  66.076  1.00  0.00    -0.038 C  
BRANCH  23  24
HETATM   24  C   UNL     1      -6.073   5.915  67.466  1.00  0.00    -0.022 C  
HETATM   25  C   UNL     1      -6.113   6.974  68.545  1.00  0.00    -0.030 C  
HETATM   26  O   UNL     1      -6.289   8.166  68.362  1.00  0.00    -0.048 OA 
HETATM   27  O   UNL     1      -5.923   6.451  69.777  1.00  0.00    -0.017 OA 
ENDBRANCH  23  24
ENDBRANCH  22  23
ENDBRANCH  21  22
ENDBRANCH  20  21
ENDBRANCH  19  20
ENDBRANCH  18  19
ENDBRANCH  10  11
ENDBRANCH   6   9
ENDBRANCH   5   6
ENDBRANCH   4   5
ENDBRANCH   3   4
ENDBRANCH   2   3
TORSDOF 12
ENDMDL
MODEL      337
REMARK 921   NORMALIZED FREE ENERGY PREDICTED BY IDOCK:   -3.10 KCAL/MOL
REMARK 922        TOTAL FREE ENERGY PREDICTED BY IDOCK:   -7.23 KCAL/MOL
REMARK 923 INTER-LIGAND FREE ENERGY PREDICTED BY IDOCK:   -5.04 KCAL/MOL
REMARK 924 INTRA-LIGAND FREE ENERGY PREDICTED BY IDOCK:   -2.19 KCAL/MOL
REMARK 927      BINDING AFFINITY PREDICTED BY RF-SCORE:    0.00 PKD
ROOT
HETATM    1  C   UNL     1      -9.522   6.178  66.422  1.00  0.00    -0.172 C  
HETATM    2  C   UNL     1      -9.676   4.985  67.347  1.00  0.00    -0.183 C  
ENDROOT
BRANCH   2   3
HETATM    3  C   UNL     1      -8.485   4.836  68.295  1.00  0.00    -0.100 C  
BRANCH   3   4
HETATM    4  C   UNL     1      -8.901   5.194  69.721  1.00  0.00    -0.130 C  
BRANCH   4   5
HETATM    5  C   UNL     1     -10.414   5.103  69.932  1.00  0.00    -0.296 C  
BRANCH   5   6
HETATM    6  C   UNL     1     -11.032   6.414  70.447  1.00  0.00    -0.308 C  
HETATM    7  O   UNL     1     -12.127   6.731  69.594  1.00  0.00    -0.635 OA 
HETATM    8  H   UNL     1     -12.509   7.541  69.912  1.00  0.00     0.000 HD 
BRANCH   6   9
HETATM    9  C   UNL     1     -10.039   7.555  70.495  1.00  0.00    -0.188 C  
HETATM   10  C   UNL     1     -10.260   8.839  70.170  1.00  0.00    -0.207 C  
BRANCH  10  11
HETATM   11  C   UNL     1      -9.180   9.896  70.091  1.00  0.00    -0.184 C  
HETATM   12  C   UNL     1      -7.812   9.279  70.452  1.00  0.00    -0.148 C  
HETATM   13  O   UNL     1      -7.637   9.152  71.857  1.00  0.00    -0.340 OA 
HETATM   14  C   UNL     1      -6.778  10.217  69.868  1.00  0.00    -0.125 C  
HETATM   15  H   UNL     1      -6.795   8.773  72.079  1.00  0.00     0.000 HD 
HETATM   16  C   UNL     1      -7.473  10.676  68.624  1.00  0.00    -0.098 C  
HETATM   17  O   UNL     1      -6.864  11.138  67.666  1.00  0.00    -0.071 OA 
HETATM   18  C   UNL     1      -8.985  10.519  68.686  1.00  0.00    -0.162 C  
BRANCH  18  19
HETATM   19  C   UNL     1      -9.723  11.865  68.562  1.00  0.00    -0.173 C  
BRANCH  19  20
HETATM   20  C   UNL     1     -10.966  11.817  67.663  1.00  0.00    -0.286 C  
BRANCH  20  21
HETATM   21  C   UNL     1     -10.981  10.575  66.769  1.00  0.00    -0.150 C  
BRANCH  21  22
HETATM   22  C   UNL     1     -10.759  10.952  65.301  1.00  0.00    -0.194 C  
BRANCH  22  23
HETATM   23  C   UNL     1      -9.277  10.906  64.931  1.00  0.00    -0.230 C  
BRANCH  23  24
HETATM   24  C   UNL     1      -8.725   9.480  64.984  1.00  0.00    -0.205 C  
HETATM   25  C   UNL     1      -8.519   8.911  63.598  1.00  0.00    -0.138 C  
HETATM   26  O   UNL     1      -8.751   9.492  62.551  1.00  0.00    -0.192 OA 
HETATM   27  O   UNL     1      -8.037   7.648  63.633  1.00  0.00    -0.122 OA 
ENDBRANCH  23  24
ENDBRANCH  22  23
ENDBRANCH  21  22
ENDBRANCH  20  21
ENDBRANCH  19  20
ENDBRANCH  18  19
ENDBRANCH  10  11
ENDBRANCH   6   9
ENDBRANCH   5   6
ENDBRANCH   4   5
ENDBRANCH   3   4
ENDBRANCH   2   3
TORSDOF 12
ENDMDL
MODEL      338
REMARK 921   NORMALIZED FREE ENERGY PREDICTED BY IDOCK:   -3.07 KCAL/MOL
REMARK 922        TOTAL FREE ENERGY PREDICTED BY IDOCK:   -7.17 KCAL/MOL
REMARK 923 INTER-LIGAND FREE ENERGY PREDICTED BY IDOCK:   -5.83 KCAL/MOL
REMARK 924 INTRA-LIGAND FREE ENERGY PREDICTED BY IDOCK:   -1.34 KCAL/MOL
REMARK 927      BINDING AFFINITY PREDICTED BY RF-SCORE:    0.00 PKD
ROOT
HETATM    1  C   UNL     1     -10.701  16.757  66.428  1.00  0.00    -0.105 C  
HETATM    2  C   UNL     1     -10.040  17.132  67.742  1.00  0.00    -0.306 C  
ENDROOT
BRANCH   2   3
HETATM    3  C   UNL     1      -9.258  15.963  68.346  1.00  0.00    -0.197 C  
BRANCH   3   4
HETATM    4  C   UNL     1      -9.854  15.578  69.699  1.00  0.00    -0.281 C  
BRANCH   4   5
HETATM    5  C   UNL     1     -11.379  15.694  69.725  1.00  0.00    -0.327 C  
BRANCH   5   6
HETATM    6  C   UNL     1     -12.089  14.330  69.735  1.00  0.00    -0.347 C  
HETATM    7  O   UNL     1     -11.816  13.720  70.993  1.00  0.00    -0.494 OA 
HETATM    8  H   UNL     1     -12.255  12.877  70.999  1.00  0.00     0.000 HD 
BRANCH   6   9
HETATM    9  C   UNL     1     -11.657  13.432  68.596  1.00  0.00    -0.362 C  
HETATM   10  C   UNL     1     -11.410  12.113  68.650  1.00  0.00    -0.330 C  
BRANCH  10  11
HETATM   11  C   UNL     1     -10.829  11.308  67.508  1.00  0.00    -0.292 C  
HETATM   12  C   UNL     1     -10.964  12.095  66.187  1.00  0.00    -0.298 C  
HETATM   13  O   UNL     1     -12.272  11.999  65.639  1.00  0.00    -0.503 OA 
HETATM   14  C   UNL     1      -9.945  11.486  65.247  1.00  0.00    -0.302 C  
HETATM   15  H   UNL     1     -12.355  12.483  64.826  1.00  0.00     0.000 HD 
HETATM   16  C   UNL     1      -8.846  11.136  66.200  1.00  0.00    -0.190 C  
HETATM   17  O   UNL     1      -7.688  10.975  65.833  1.00  0.00    -0.116 OA 
HETATM   18  C   UNL     1      -9.319  10.994  67.639  1.00  0.00    -0.162 C  
BRANCH  18  19
HETATM   19  C   UNL     1      -9.086   9.578  68.199  1.00  0.00    -0.128 C  
BRANCH  19  20
HETATM   20  C   UNL     1      -9.995   8.505  67.583  1.00  0.00    -0.253 C  
BRANCH  20  21
HETATM   21  C   UNL     1     -10.975   7.925  68.606  1.00  0.00     0.140 C  
BRANCH  21  22
HETATM   22  C   UNL     1     -10.940   6.394  68.594  1.00  0.00    -0.404 C  
BRANCH  22  23
HETATM   23  C   UNL     1      -9.989   5.850  69.659  1.00  0.00    -0.234 C  
BRANCH  23  24
HETATM   24  C   UNL     1      -8.743   5.218  69.036  1.00  0.00    -0.104 C  
HETATM   25  C   UNL     1      -8.493   3.829  69.577  1.00  0.00    -0.064 C  
HETATM   26  O   UNL     1      -9.180   3.256  70.405  1.00  0.00    -0.118 OA 
HETATM   27  O   UNL     1      -7.390   3.263  69.037  1.00  0.00    -0.049 OA 
ENDBRANCH  23  24
ENDBRANCH  22  23
ENDBRANCH  21  22
ENDBRANCH  20  21
ENDBRANCH  19  20
ENDBRANCH  18  19
ENDBRANCH  10  11
ENDBRANCH   6   9
ENDBRANCH   5   6
ENDBRANCH   4   5
ENDBRANCH   3   4
ENDBRANCH   2   3
TORSDOF 12
ENDMDL
MODEL      339
REMARK 921   NORMALIZED FREE ENERGY PREDICTED BY IDOCK:   -3.04 KCAL/MOL
REMARK 922        TOTAL FREE ENERGY PREDICTED BY IDOCK:   -7.13 KCAL/MOL
REMARK 923 INTER-LIGAND FREE ENERGY PREDICTED BY IDOCK:   -5.62 KCAL/MOL
REMARK 924 INTRA-LIGAND FREE ENERGY PREDICTED BY IDOCK:   -1.51 KCAL/MOL
REMARK 927      BINDING AFFINITY PREDICTED BY RF-SCORE:    0.00 PKD
ROOT
HETATM    1  C   UNL     1     -11.764  14.507  67.259  1.00  0.00    -0.429 C  
HETATM    2  C   UNL     1     -12.406  13.585  66.238  1.00  0.00    -0.440 C  
ENDROOT
BRANCH   2   3
HETATM    3  C   UNL     1     -12.017  12.122  66.461  1.00  0.00    -0.198 C  
BRANCH   3   4
HETATM    4  C   UNL     1     -10.705  11.813  65.742  1.00  0.00    -0.328 C  
BRANCH   4   5
HETATM    5  C   UNL     1      -9.641  11.237  66.680  1.00  0.00    -0.218 C  
BRANCH   5   6
HETATM    6  C   UNL     1      -9.308   9.765  66.383  1.00  0.00    -0.171 C  
HETATM    7  O   UNL     1     -10.279   9.289  65.457  1.00  0.00    -0.319 OA 
HETATM    8  H   UNL     1     -10.073   8.379  65.273  1.00  0.00     0.000 HD 
BRANCH   6   9
HETATM    9  C   UNL     1      -9.282   8.904  67.627  1.00  0.00    -0.151 C  
HETATM   10  C   UNL     1     -10.006   9.072  68.746  1.00  0.00    -0.194 C  
BRANCH  10  11
HETATM   11  C   UNL     1      -9.815   8.266  70.013  1.00  0.00    -0.182 C  
HETATM   12  C   UNL     1      -9.077   9.113  71.070  1.00  0.00    -0.237 C  
HETATM   13  O   UNL     1      -7.675   9.153  70.840  1.00  0.00    -0.122 OA 
HETATM   14  C   UNL     1      -9.382   8.457  72.400  1.00  0.00    -0.356 C  
HETATM   15  H   UNL     1      -7.221   9.675  71.491  1.00  0.00     0.000 HD 
HETATM   16  C   UNL     1     -10.780   7.975  72.171  1.00  0.00    -0.276 C  
HETATM   17  O   UNL     1     -11.547   7.728  73.094  1.00  0.00    -0.273 OA 
HETATM   18  C   UNL     1     -11.129   7.817  70.698  1.00  0.00    -0.264 C  
BRANCH  18  19
HETATM   19  C   UNL     1     -11.487   6.365  70.330  1.00  0.00    -0.468 C  
BRANCH  19  20
HETATM   20  C   UNL     1     -10.572   5.746  69.264  1.00  0.00    -0.376 C  
BRANCH  20  21
HETATM   21  C   UNL     1      -9.701   4.624  69.834  1.00  0.00    -0.279 C  
BRANCH  21  22
HETATM   22  C   UNL     1      -9.007   3.845  68.713  1.00  0.00    -0.172 C  
BRANCH  22  23
HETATM   23  C   UNL     1      -7.487   3.987  68.793  1.00  0.00    -0.055 C  
BRANCH  23  24
HETATM   24  C   UNL     1      -7.071   5.406  69.185  1.00  0.00    -0.057 C  
HETATM   25  C   UNL     1      -6.068   5.981  68.211  1.00  0.00    -0.021 C  
HETATM   26  O   UNL     1      -5.628   5.411  67.227  1.00  0.00    -0.012 OA 
HETATM   27  O   UNL     1      -5.689   7.234  68.551  1.00  0.00    -0.021 OA 
ENDBRANCH  23  24
ENDBRANCH  22  23
ENDBRANCH  21  22
ENDBRANCH  20  21
ENDBRANCH  19  20
ENDBRANCH  18  19
ENDBRANCH  10  11
ENDBRANCH   6   9
ENDBRANCH   5   6
ENDBRANCH   4   5
ENDBRANCH   3   4
ENDBRANCH   2   3
TORSDOF 12
ENDMDL
MODEL      340
REMARK 921   NORMALIZED FREE ENERGY PREDICTED BY IDOCK:   -2.99 KCAL/MOL
REMARK 922        TOTAL FREE ENERGY PREDICTED BY IDOCK:   -7.03 KCAL/MOL
REMARK 923 INTER-LIGAND FREE ENERGY PREDICTED BY IDOCK:   -5.58 KCAL/MOL
REMARK 924 INTRA-LIGAND FREE ENERGY PREDICTED BY IDOCK:   -1.45 KCAL/MOL
REMARK 927      BINDING AFFINITY PREDICTED BY RF-SCORE:    0.00 PKD
ROOT
HETATM    1  C   UNL     1      -7.192   9.275  70.814  1.00  0.00    -0.126 C  
HETATM    2  C   UNL     1      -7.830   8.114  71.556  1.00  0.00    -0.122 C  
ENDROOT
BRANCH   2   3
HETATM    3  C   UNL     1      -8.900   8.583  72.544  1.00  0.00    -0.245 C  
BRANCH   3   4
HETATM    4  C   UNL     1     -10.281   8.506  71.897  1.00  0.00    -0.369 C  
BRANCH   4   5
HETATM    5  C   UNL     1     -11.289   7.732  72.751  1.00  0.00    -0.446 C  
BRANCH   5   6
HETATM    6  C   UNL     1     -11.583   6.323  72.209  1.00  0.00    -0.309 C  
HETATM    7  O   UNL     1     -11.771   5.468  73.332  1.00  0.00    -0.459 OA 
HETATM    8  H   UNL     1     -11.953   4.597  72.998  1.00  0.00     0.000 HD 
BRANCH   6   9
HETATM    9  C   UNL     1     -10.487   5.796  71.308  1.00  0.00    -0.295 C  
HETATM   10  C   UNL     1     -10.628   4.987  70.246  1.00  0.00    -0.134 C  
BRANCH  10  11
HETATM   11  C   UNL     1      -9.472   4.372  69.485  1.00  0.00    -0.251 C  
HETATM   12  C   UNL     1      -9.085   3.020  70.119  1.00  0.00    -0.119 C  
HETATM   13  O   UNL     1      -8.282   3.184  71.280  1.00  0.00    -0.061 OA 
HETATM   14  C   UNL     1      -8.324   2.272  69.044  1.00  0.00    -0.077 C  
HETATM   15  H   UNL     1      -8.043   2.351  71.670  1.00  0.00     0.000 HD 
HETATM   16  C   UNL     1      -9.035   2.735  67.812  1.00  0.00    -0.161 C  
HETATM   17  O   UNL     1      -9.005   2.103  66.762  1.00  0.00    -0.128 OA 
HETATM   18  C   UNL     1      -9.772   4.053  68.000  1.00  0.00    -0.142 C  
BRANCH  18  19
HETATM   19  C   UNL     1      -9.245   5.162  67.069  1.00  0.00    -0.117 C  
BRANCH  19  20
HETATM   20  C   UNL     1     -10.255   6.285  66.799  1.00  0.00    -0.262 C  
BRANCH  20  21
HETATM   21  C   UNL     1      -9.865   7.590  67.499  1.00  0.00    -0.209 C  
BRANCH  21  22
HETATM   22  C   UNL     1      -9.655   8.716  66.482  1.00  0.00    -0.303 C  
BRANCH  22  23
HETATM   23  C   UNL     1     -10.841   9.679  66.462  1.00  0.00     0.074 C  
BRANCH  23  24
HETATM   24  C   UNL     1     -11.128  10.252  67.851  1.00  0.00    -0.341 C  
HETATM   25  C   UNL     1     -11.880  11.561  67.769  1.00  0.00    -0.154 C  
HETATM   26  O   UNL     1     -12.229  12.114  66.741  1.00  0.00    -0.553 OA 
HETATM   27  O   UNL     1     -12.133  12.080  68.992  1.00  0.00    -0.271 OA 
ENDBRANCH  23  24
ENDBRANCH  22  23
ENDBRANCH  21  22
ENDBRANCH  20  21
ENDBRANCH  19  20
ENDBRANCH  18  19
ENDBRANCH  10  11
ENDBRANCH   6   9
ENDBRANCH   5   6
ENDBRANCH   4   5
ENDBRANCH   3   4
ENDBRANCH   2   3
TORSDOF 12
ENDMDL
MODEL      341
REMARK 921   NORMALIZED FREE ENERGY PREDICTED BY IDOCK:   -2.97 KCAL/MOL
REMARK 922        TOTAL FREE ENERGY PREDICTED BY IDOCK:   -7.01 KCAL/MOL
REMARK 923 INTER-LIGAND FREE ENERGY PREDICTED BY IDOCK:   -6.32 KCAL/MOL
REMARK 924 INTRA-LIGAND FREE ENERGY PREDICTED BY IDOCK:   -0.68 KCAL/MOL
REMARK 927      BINDING AFFINITY PREDICTED BY RF-SCORE:    0.00 PKD
ROOT
HETATM    1  C   UNL     1      -8.812  20.106  68.070  1.00  0.00    -0.239 C  
HETATM    2  C   UNL     1     -10.041  20.246  67.191  1.00  0.00    -0.556 C  
ENDROOT
BRANCH   2   3
HETATM    3  C   UNL     1     -10.076  19.193  66.081  1.00  0.00    -0.492 C  
BRANCH   3   4
HETATM    4  C   UNL     1      -8.839  18.300  66.166  1.00  0.00    -0.113 C  
BRANCH   4   5
HETATM    5  C   UNL     1      -9.180  16.811  66.070  1.00  0.00    -0.236 C  
BRANCH   5   6
HETATM    6  C   UNL     1     -10.271  16.375  67.063  1.00  0.00    -0.282 C  
HETATM    7  O   UNL     1      -9.729  16.510  68.372  1.00  0.00    -0.223 OA 
HETATM    8  H   UNL     1     -10.403  16.240  68.986  1.00  0.00     0.000 HD 
BRANCH   6   9
HETATM    9  C   UNL     1     -10.755  14.962  66.822  1.00  0.00    -0.312 C  
HETATM   10  C   UNL     1     -10.110  13.982  66.168  1.00  0.00    -0.319 C  
BRANCH  10  11
HETATM   11  C   UNL     1     -10.720  12.639  65.828  1.00  0.00    -0.295 C  
HETATM   12  C   UNL     1     -11.403  12.706  64.446  1.00  0.00    -0.344 C  
HETATM   13  O   UNL     1     -12.686  13.315  64.512  1.00  0.00    -0.639 OA 
HETATM   14  C   UNL     1     -11.516  11.270  63.981  1.00  0.00    -0.036 C  
HETATM   15  H   UNL     1     -13.106  13.356  63.661  1.00  0.00     0.000 HD 
HETATM   16  C   UNL     1     -10.264  10.682  64.551  1.00  0.00    -0.329 C  
HETATM   17  O   UNL     1      -9.762   9.655  64.108  1.00  0.00    -0.042 OA 
HETATM   18  C   UNL     1      -9.705  11.475  65.723  1.00  0.00    -0.263 C  
BRANCH  18  19
HETATM   19  C   UNL     1      -9.659  10.651  67.024  1.00  0.00    -0.196 C  
BRANCH  19  20
HETATM   20  C   UNL     1      -9.937   9.155  66.827  1.00  0.00    -0.322 C  
BRANCH  20  21
HETATM   21  C   UNL     1      -9.808   8.369  68.135  1.00  0.00    -0.196 C  
BRANCH  21  22
HETATM   22  C   UNL     1     -10.675   8.988  69.235  1.00  0.00    -0.189 C  
BRANCH  22  23
HETATM   23  C   UNL     1      -9.894   9.143  70.540  1.00  0.00    -0.285 C  
BRANCH  23  24
HETATM   24  C   UNL     1      -8.395   9.309  70.286  1.00  0.00    -0.204 C  
HETATM   25  C   UNL     1      -7.589   8.241  70.990  1.00  0.00    -0.081 C  
HETATM   26  O   UNL     1      -8.048   7.346  71.680  1.00  0.00    -0.098 OA 
HETATM   27  O   UNL     1      -6.261   8.382  70.777  1.00  0.00    -0.032 OA 
ENDBRANCH  23  24
ENDBRANCH  22  23
ENDBRANCH  21  22
ENDBRANCH  20  21
ENDBRANCH  19  20
ENDBRANCH  18  19
ENDBRANCH  10  11
ENDBRANCH   6   9
ENDBRANCH   5   6
ENDBRANCH   4   5
ENDBRANCH   3   4
ENDBRANCH   2   3
TORSDOF 12
ENDMDL
MODEL      342
REMARK 921   NORMALIZED FREE ENERGY PREDICTED BY IDOCK:   -2.97 KCAL/MOL
REMARK 922        TOTAL FREE ENERGY PREDICTED BY IDOCK:   -7.00 KCAL/MOL
REMARK 923 INTER-LIGAND FREE ENERGY PREDICTED BY IDOCK:   -5.45 KCAL/MOL
REMARK 924 INTRA-LIGAND FREE ENERGY PREDICTED BY IDOCK:   -1.55 KCAL/MOL
REMARK 927      BINDING AFFINITY PREDICTED BY RF-SCORE:    0.00 PKD
ROOT
HETATM    1  C   UNL     1      -6.818  13.612  68.866  1.00  0.00    -0.110 C  
HETATM    2  C   UNL     1      -7.877  13.767  67.789  1.00  0.00    -0.174 C  
ENDROOT
BRANCH   2   3
HETATM    3  C   UNL     1      -8.016  12.505  66.935  1.00  0.00    -0.013 C  
BRANCH   3   4
HETATM    4  C   UNL     1      -8.189  11.281  67.833  1.00  0.00    -0.123 C  
BRANCH   4   5
HETATM    5  C   UNL     1      -7.234  10.143  67.466  1.00  0.00    -0.088 C  
BRANCH   5   6
HETATM    6  C   UNL     1      -7.946   8.938  66.827  1.00  0.00    -0.107 C  
HETATM    7  O   UNL     1      -8.481   9.375  65.582  1.00  0.00    -0.125 OA 
HETATM    8  H   UNL     1      -8.921   8.630  65.187  1.00  0.00     0.000 HD 
BRANCH   6   9
HETATM    9  C   UNL     1      -9.033   8.361  67.708  1.00  0.00    -0.140 C  
HETATM   10  C   UNL     1      -8.987   8.173  69.037  1.00  0.00    -0.144 C  
BRANCH  10  11
HETATM   11  C   UNL     1     -10.050   7.445  69.832  1.00  0.00    -0.195 C  
HETATM   12  C   UNL     1      -9.495   6.100  70.344  1.00  0.00    -0.161 C  
HETATM   13  O   UNL     1      -9.508   5.097  69.337  1.00  0.00    -0.121 OA 
HETATM   14  C   UNL     1     -10.389   5.707  71.500  1.00  0.00    -0.279 C  
HETATM   15  H   UNL     1      -9.166   4.269  69.653  1.00  0.00     0.000 HD 
HETATM   16  C   UNL     1     -10.713   7.046  72.084  1.00  0.00    -0.218 C  
HETATM   17  O   UNL     1     -11.091   7.182  73.242  1.00  0.00    -0.301 OA 
HETATM   18  C   UNL     1     -10.536   8.192  71.098  1.00  0.00    -0.242 C  
BRANCH  18  19
HETATM   19  C   UNL     1     -11.852   8.949  70.832  1.00  0.00    -0.283 C  
BRANCH  19  20
HETATM   20  C   UNL     1     -11.821  10.423  71.256  1.00  0.00    -0.381 C  
BRANCH  20  21
HETATM   21  C   UNL     1     -12.318  11.352  70.145  1.00  0.00    -0.344 C  
BRANCH  21  22
HETATM   22  C   UNL     1     -11.776  10.914  68.781  1.00  0.00    -0.355 C  
BRANCH  22  23
HETATM   23  C   UNL     1     -12.022  11.980  67.714  1.00  0.00    -0.177 C  
BRANCH  23  24
HETATM   24  C   UNL     1     -11.108  11.790  66.502  1.00  0.00    -0.364 C  
HETATM   25  C   UNL     1     -11.354  12.845  65.447  1.00  0.00    -0.303 C  
HETATM   26  O   UNL     1     -12.170  13.747  65.525  1.00  0.00    -0.387 OA 
HETATM   27  O   UNL     1     -10.555  12.682  64.369  1.00  0.00    -0.319 OA 
ENDBRANCH  23  24
ENDBRANCH  22  23
ENDBRANCH  21  22
ENDBRANCH  20  21
ENDBRANCH  19  20
ENDBRANCH  18  19
ENDBRANCH  10  11
ENDBRANCH   6   9
ENDBRANCH   5   6
ENDBRANCH   4   5
ENDBRANCH   3   4
ENDBRANCH   2   3
TORSDOF 12
ENDMDL
MODEL      343
REMARK 921   NORMALIZED FREE ENERGY PREDICTED BY IDOCK:   -2.94 KCAL/MOL
REMARK 922        TOTAL FREE ENERGY PREDICTED BY IDOCK:   -6.95 KCAL/MOL
REMARK 923 INTER-LIGAND FREE ENERGY PREDICTED BY IDOCK:   -6.27 KCAL/MOL
REMARK 924 INTRA-LIGAND FREE ENERGY PREDICTED BY IDOCK:   -0.68 KCAL/MOL
REMARK 927      BINDING AFFINITY PREDICTED BY RF-SCORE:    0.00 PKD
ROOT
HETATM    1  C   UNL     1     -12.166  14.046  64.008  1.00  0.00    -0.395 C  
HETATM    2  C   UNL     1     -11.998  12.611  63.539  1.00  0.00    -0.630 C  
ENDROOT
BRANCH   2   3
HETATM    3  C   UNL     1     -10.582  12.089  63.788  1.00  0.00    -0.478 C  
BRANCH   3   4
HETATM    4  C   UNL     1     -10.511  11.395  65.147  1.00  0.00    -0.351 C  
BRANCH   4   5
HETATM    5  C   UNL     1      -9.955   9.972  65.054  1.00  0.00    -0.320 C  
BRANCH   5   6
HETATM    6  C   UNL     1      -8.820   9.700  66.056  1.00  0.00    -0.152 C  
HETATM    7  O   UNL     1      -7.593   9.789  65.340  1.00  0.00    -0.110 OA 
HETATM    8  H   UNL     1      -6.892   9.620  65.959  1.00  0.00     0.000 HD 
BRANCH   6   9
HETATM    9  C   UNL     1      -8.949   8.356  66.741  1.00  0.00    -0.172 C  
HETATM   10  C   UNL     1      -9.529   7.248  66.252  1.00  0.00    -0.133 C  
BRANCH  10  11
HETATM   11  C   UNL     1      -9.762   5.985  67.053  1.00  0.00    -0.159 C  
HETATM   12  C   UNL     1      -9.843   4.768  66.106  1.00  0.00    -0.219 C  
HETATM   13  O   UNL     1     -11.118   4.657  65.488  1.00  0.00    -0.852 OA 
HETATM   14  C   UNL     1      -9.563   3.560  66.974  1.00  0.00    -0.155 C  
HETATM   15  H   UNL     1     -11.168   3.908  64.905  1.00  0.00     0.000 HD 
HETATM   16  C   UNL     1      -8.570   4.124  67.942  1.00  0.00    -0.096 C  
HETATM   17  O   UNL     1      -7.796   3.415  68.575  1.00  0.00    -0.059 OA 
HETATM   18  C   UNL     1      -8.637   5.640  68.059  1.00  0.00    -0.101 C  
BRANCH  18  19
HETATM   19  C   UNL     1      -8.997   6.106  69.483  1.00  0.00    -0.133 C  
BRANCH  19  20
HETATM   20  C   UNL     1     -10.049   7.222  69.530  1.00  0.00    -0.182 C  
BRANCH  20  21
HETATM   21  C   UNL     1     -11.289   6.810  70.328  1.00  0.00    -0.404 C  
BRANCH  21  22
HETATM   22  C   UNL     1     -11.156   7.221  71.798  1.00  0.00    -0.265 C  
BRANCH  22  23
HETATM   23  C   UNL     1     -11.366   6.028  72.732  1.00  0.00    -0.282 C  
BRANCH  23  24
HETATM   24  C   UNL     1     -10.182   5.061  72.689  1.00  0.00    -0.236 C  
HETATM   25  C   UNL     1     -10.586   3.668  73.118  1.00  0.00    -0.180 C  
HETATM   26  O   UNL     1     -11.706   3.328  73.459  1.00  0.00    -0.113 OA 
HETATM   27  O   UNL     1      -9.545   2.805  73.089  1.00  0.00    -0.091 OA 
ENDBRANCH  23  24
ENDBRANCH  22  23
ENDBRANCH  21  22
ENDBRANCH  20  21
ENDBRANCH  19  20
ENDBRANCH  18  19
ENDBRANCH  10  11
ENDBRANCH   6   9
ENDBRANCH   5   6
ENDBRANCH   4   5
ENDBRANCH   3   4
ENDBRANCH   2   3
TORSDOF 12
ENDMDL
MODEL      344
REMARK 921   NORMALIZED FREE ENERGY PREDICTED BY IDOCK:   -2.92 KCAL/MOL
REMARK 922        TOTAL FREE ENERGY PREDICTED BY IDOCK:   -6.91 KCAL/MOL
REMARK 923 INTER-LIGAND FREE ENERGY PREDICTED BY IDOCK:   -4.84 KCAL/MOL
REMARK 924 INTRA-LIGAND FREE ENERGY PREDICTED BY IDOCK:   -2.08 KCAL/MOL
REMARK 927      BINDING AFFINITY PREDICTED BY RF-SCORE:    0.00 PKD
ROOT
HETATM    1  C   UNL     1     -10.898   2.985  62.696  1.00  0.00    -0.165 C  
HETATM    2  C   UNL     1     -10.639   3.789  63.958  1.00  0.00    -0.274 C  
ENDROOT
BRANCH   2   3
HETATM    3  C   UNL     1      -9.292   3.441  64.594  1.00  0.00    -0.146 C  
BRANCH   3   4
HETATM    4  C   UNL     1      -9.306   3.798  66.080  1.00  0.00    -0.173 C  
BRANCH   4   5
HETATM    5  C   UNL     1      -9.523   5.293  66.324  1.00  0.00    -0.166 C  
BRANCH   5   6
HETATM    6  C   UNL     1     -10.780   5.593  67.159  1.00  0.00    -0.232 C  
HETATM    7  O   UNL     1     -11.350   6.794  66.649  1.00  0.00    -0.647 OA 
HETATM    8  H   UNL     1     -12.127   6.979  67.165  1.00  0.00     0.000 HD 
BRANCH   6   9
HETATM    9  C   UNL     1     -10.488   5.720  68.638  1.00  0.00    -0.298 C  
HETATM   10  C   UNL     1      -9.429   6.318  69.208  1.00  0.00    -0.142 C  
BRANCH  10  11
HETATM   11  C   UNL     1      -9.120   6.271  70.689  1.00  0.00    -0.153 C  
HETATM   12  C   UNL     1      -7.593   6.224  70.907  1.00  0.00    -0.096 C  
HETATM   13  O   UNL     1      -7.066   4.918  70.717  1.00  0.00    -0.046 OA 
HETATM   14  C   UNL     1      -7.372   6.687  72.331  1.00  0.00    -0.089 C  
HETATM   15  H   UNL     1      -6.126   4.889  70.852  1.00  0.00     0.000 HD 
HETATM   16  C   UNL     1      -8.464   7.700  72.478  1.00  0.00    -0.120 C  
HETATM   17  O   UNL     1      -8.425   8.587  73.324  1.00  0.00    -0.372 OA 
HETATM   18  C   UNL     1      -9.606   7.503  71.492  1.00  0.00    -0.171 C  
BRANCH  18  19
HETATM   19  C   UNL     1     -10.949   7.223  72.192  1.00  0.00    -0.274 C  
BRANCH  19  20
HETATM   20  C   UNL     1     -11.289   5.732  72.318  1.00  0.00    -0.334 C  
BRANCH  20  21
HETATM   21  C   UNL     1     -11.013   5.195  73.725  1.00  0.00    -0.297 C  
BRANCH  21  22
HETATM   22  C   UNL     1      -9.740   4.344  73.748  1.00  0.00    -0.153 C  
BRANCH  22  23
HETATM   23  C   UNL     1      -9.962   2.990  73.073  1.00  0.00    -0.194 C  
BRANCH  23  24
HETATM   24  C   UNL     1      -8.646   2.369  72.604  1.00  0.00    -0.066 C  
HETATM   25  C   UNL     1      -8.578   2.280  71.096  1.00  0.00    -0.059 C  
HETATM   26  O   UNL     1      -9.446   2.650  70.325  1.00  0.00    -0.138 OA 
HETATM   27  O   UNL     1      -7.420   1.726  70.671  1.00  0.00    -0.033 OA 
ENDBRANCH  23  24
ENDBRANCH  22  23
ENDBRANCH  21  22
ENDBRANCH  20  21
ENDBRANCH  19  20
ENDBRANCH  18  19
ENDBRANCH  10  11
ENDBRANCH   6   9
ENDBRANCH   5   6
ENDBRANCH   4   5
ENDBRANCH   3   4
ENDBRANCH   2   3
TORSDOF 12
ENDMDL
MODEL      345
REMARK 921   NORMALIZED FREE ENERGY PREDICTED BY IDOCK:   -2.90 KCAL/MOL
REMARK 922        TOTAL FREE ENERGY PREDICTED BY IDOCK:   -6.88 KCAL/MOL
REMARK 923 INTER-LIGAND FREE ENERGY PREDICTED BY IDOCK:   -5.97 KCAL/MOL
REMARK 924 INTRA-LIGAND FREE ENERGY PREDICTED BY IDOCK:   -0.90 KCAL/MOL
REMARK 927      BINDING AFFINITY PREDICTED BY RF-SCORE:    0.00 PKD
ROOT
HETATM    1  C   UNL     1     -11.259   3.506  72.994  1.00  0.00    -0.031 C  
HETATM    2  C   UNL     1     -10.643   4.074  74.260  1.00  0.00    -0.277 C  
ENDROOT
BRANCH   2   3
HETATM    3  C   UNL     1      -9.461   4.997  73.959  1.00  0.00    -0.129 C  
BRANCH   3   4
HETATM    4  C   UNL     1      -9.903   6.458  74.038  1.00  0.00    -0.275 C  
BRANCH   4   5
HETATM    5  C   UNL     1     -10.118   7.083  72.658  1.00  0.00    -0.204 C  
BRANCH   5   6
HETATM    6  C   UNL     1     -10.993   8.347  72.696  1.00  0.00    -0.248 C  
HETATM    7  O   UNL     1     -12.333   7.927  72.935  1.00  0.00    -0.595 OA 
HETATM    8  H   UNL     1     -12.874   8.709  72.959  1.00  0.00     0.000 HD 
BRANCH   6   9
HETATM    9  C   UNL     1     -10.903   9.165  71.427  1.00  0.00    -0.419 C  
HETATM   10  C   UNL     1      -9.792   9.479  70.740  1.00  0.00    -0.309 C  
BRANCH  10  11
HETATM   11  C   UNL     1      -9.758  10.434  69.565  1.00  0.00    -0.196 C  
HETATM   12  C   UNL     1      -8.352  10.436  68.929  1.00  0.00    -0.138 C  
HETATM   13  O   UNL     1      -7.437  11.242  69.659  1.00  0.00    -0.355 OA 
HETATM   14  C   UNL     1      -8.543  10.978  67.529  1.00  0.00    -0.128 C  
HETATM   15  H   UNL     1      -6.572  11.244  69.267  1.00  0.00     0.000 HD 
HETATM   16  C   UNL     1      -9.893  10.430  67.188  1.00  0.00    -0.181 C  
HETATM   17  O   UNL     1     -10.273  10.300  66.030  1.00  0.00    -0.253 OA 
HETATM   18  C   UNL     1     -10.725  10.073  68.411  1.00  0.00    -0.271 C  
BRANCH  18  19
HETATM   19  C   UNL     1     -12.029  10.889  68.495  1.00  0.00    -0.137 C  
BRANCH  19  20
HETATM   20  C   UNL     1     -11.864  12.372  68.134  1.00  0.00    -0.372 C  
BRANCH  20  21
HETATM   21  C   UNL     1     -12.351  13.295  69.254  1.00  0.00    -0.054 C  
BRANCH  21  22
HETATM   22  C   UNL     1     -11.539  14.593  69.287  1.00  0.00    -0.335 C  
BRANCH  22  23
HETATM   23  C   UNL     1     -11.971  15.549  68.175  1.00  0.00    -0.007 C  
BRANCH  23  24
HETATM   24  C   UNL     1     -11.058  15.444  66.953  1.00  0.00    -0.256 C  
HETATM   25  C   UNL     1      -9.771  16.212  67.151  1.00  0.00    -0.233 C  
HETATM   26  O   UNL     1      -9.469  16.843  68.150  1.00  0.00    -0.239 OA 
HETATM   27  O   UNL     1      -8.958  16.130  66.074  1.00  0.00    -0.330 OA 
ENDBRANCH  23  24
ENDBRANCH  22  23
ENDBRANCH  21  22
ENDBRANCH  20  21
ENDBRANCH  19  20
ENDBRANCH  18  19
ENDBRANCH  10  11
ENDBRANCH   6   9
ENDBRANCH   5   6
ENDBRANCH   4   5
ENDBRANCH   3   4
ENDBRANCH   2   3
TORSDOF 12
ENDMDL
MODEL      346
REMARK 921   NORMALIZED FREE ENERGY PREDICTED BY IDOCK:   -2.89 KCAL/MOL
REMARK 922        TOTAL FREE ENERGY PREDICTED BY IDOCK:   -6.87 KCAL/MOL
REMARK 923 INTER-LIGAND FREE ENERGY PREDICTED BY IDOCK:   -5.69 KCAL/MOL
REMARK 924 INTRA-LIGAND FREE ENERGY PREDICTED BY IDOCK:   -1.18 KCAL/MOL
REMARK 927      BINDING AFFINITY PREDICTED BY RF-SCORE:    0.00 PKD
ROOT
HETATM    1  C   UNL     1      -6.567   7.261  64.636  1.00  0.00    -0.043 C  
HETATM    2  C   UNL     1      -7.921   6.588  64.780  1.00  0.00    -0.120 C  
ENDROOT
BRANCH   2   3
HETATM    3  C   UNL     1      -7.798   5.066  64.865  1.00  0.00    -0.091 C  
BRANCH   3   4
HETATM    4  C   UNL     1      -8.892   4.502  65.771  1.00  0.00    -0.124 C  
BRANCH   4   5
HETATM    5  C   UNL     1      -8.366   3.435  66.734  1.00  0.00    -0.101 C  
BRANCH   5   6
HETATM    6  C   UNL     1      -7.720   4.027  67.998  1.00  0.00    -0.067 C  
HETATM    7  O   UNL     1      -7.663   2.988  68.970  1.00  0.00    -0.048 OA 
HETATM    8  H   UNL     1      -7.264   3.354  69.752  1.00  0.00     0.000 HD 
BRANCH   6   9
HETATM    9  C   UNL     1      -8.468   5.227  68.535  1.00  0.00    -0.092 C  
HETATM   10  C   UNL     1      -9.717   5.252  69.030  1.00  0.00    -0.217 C  
BRANCH  10  11
HETATM   11  C   UNL     1     -10.460   6.517  69.403  1.00  0.00    -0.262 C  
HETATM   12  C   UNL     1     -10.509   6.664  70.939  1.00  0.00    -0.215 C  
HETATM   13  O   UNL     1     -11.521   5.853  71.521  1.00  0.00    -0.252 OA 
HETATM   14  C   UNL     1     -10.787   8.130  71.195  1.00  0.00    -0.268 C  
HETATM   15  H   UNL     1     -11.551   5.944  72.467  1.00  0.00     0.000 HD 
HETATM   16  C   UNL     1     -10.046   8.767  70.062  1.00  0.00    -0.190 C  
HETATM   17  O   UNL     1      -9.684   9.938  70.092  1.00  0.00    -0.247 OA 
HETATM   18  C   UNL     1      -9.810   7.825  68.891  1.00  0.00    -0.166 C  
BRANCH  18  19
HETATM   19  C   UNL     1     -10.482   8.315  67.594  1.00  0.00    -0.303 C  
BRANCH  19  20
HETATM   20  C   UNL     1     -10.296   9.814  67.321  1.00  0.00    -0.308 C  
BRANCH  20  21
HETATM   21  C   UNL     1      -9.146  10.083  66.347  1.00  0.00    -0.176 C  
BRANCH  21  22
HETATM   22  C   UNL     1      -9.663  10.207  64.910  1.00  0.00    -0.392 C  
BRANCH  22  23
HETATM   23  C   UNL     1     -10.889  11.116  64.835  1.00  0.00    -0.261 C  
BRANCH  23  24
HETATM   24  C   UNL     1     -10.499  12.595  64.836  1.00  0.00    -0.331 C  
HETATM   25  C   UNL     1     -11.672  13.481  64.483  1.00  0.00    -0.397 C  
HETATM   26  O   UNL     1     -12.800  13.095  64.227  1.00  0.00    -0.658 OA 
HETATM   27  O   UNL     1     -11.336  14.791  64.475  1.00  0.00    -0.364 OA 
ENDBRANCH  23  24
ENDBRANCH  22  23
ENDBRANCH  21  22
ENDBRANCH  20  21
ENDBRANCH  19  20
ENDBRANCH  18  19
ENDBRANCH  10  11
ENDBRANCH   6   9
ENDBRANCH   5   6
ENDBRANCH   4   5
ENDBRANCH   3   4
ENDBRANCH   2   3
TORSDOF 12
ENDMDL
MODEL      347
REMARK 921   NORMALIZED FREE ENERGY PREDICTED BY IDOCK:   -2.89 KCAL/MOL
REMARK 922        TOTAL FREE ENERGY PREDICTED BY IDOCK:   -6.87 KCAL/MOL
REMARK 923 INTER-LIGAND FREE ENERGY PREDICTED BY IDOCK:   -5.62 KCAL/MOL
REMARK 924 INTRA-LIGAND FREE ENERGY PREDICTED BY IDOCK:   -1.24 KCAL/MOL
REMARK 927      BINDING AFFINITY PREDICTED BY RF-SCORE:    0.00 PKD
ROOT
HETATM    1  C   UNL     1      -6.885  10.520  67.170  1.00  0.00    -0.084 C  
HETATM    2  C   UNL     1      -7.061   9.513  66.048  1.00  0.00    -0.092 C  
ENDROOT
BRANCH   2   3
HETATM    3  C   UNL     1      -6.472   8.147  66.406  1.00  0.00    -0.051 C  
BRANCH   3   4
HETATM    4  C   UNL     1      -6.833   7.781  67.845  1.00  0.00    -0.068 C  
BRANCH   4   5
HETATM    5  C   UNL     1      -7.177   6.298  68.006  1.00  0.00    -0.087 C  
BRANCH   5   6
HETATM    6  C   UNL     1      -6.672   5.701  69.330  1.00  0.00    -0.059 C  
HETATM    7  O   UNL     1      -5.653   4.760  69.009  1.00  0.00    -0.011 OA 
HETATM    8  H   UNL     1      -5.341   4.391  69.827  1.00  0.00     0.000 HD 
BRANCH   6   9
HETATM    9  C   UNL     1      -7.772   5.050  70.140  1.00  0.00    -0.063 C  
HETATM   10  C   UNL     1      -9.089   5.301  70.072  1.00  0.00    -0.163 C  
BRANCH  10  11
HETATM   11  C   UNL     1     -10.117   4.726  71.023  1.00  0.00    -0.269 C  
HETATM   12  C   UNL     1      -9.578   3.426  71.656  1.00  0.00    -0.159 C  
HETATM   13  O   UNL     1      -9.708   2.312  70.782  1.00  0.00    -0.124 OA 
HETATM   14  C   UNL     1     -10.398   3.218  72.912  1.00  0.00    -0.246 C  
HETATM   15  H   UNL     1      -9.377   1.512  71.172  1.00  0.00     0.000 HD 
HETATM   16  C   UNL     1     -10.622   4.632  73.348  1.00  0.00    -0.229 C  
HETATM   17  O   UNL     1     -10.905   4.923  74.504  1.00  0.00    -0.343 OA 
HETATM   18  C   UNL     1     -10.476   5.641  72.219  1.00  0.00    -0.260 C  
BRANCH  18  19
HETATM   19  C   UNL     1     -11.776   6.424  71.956  1.00  0.00    -0.376 C  
BRANCH  19  20
HETATM   20  C   UNL     1     -11.640   7.523  70.893  1.00  0.00    -0.309 C  
BRANCH  20  21
HETATM   21  C   UNL     1     -11.099   8.829  71.482  1.00  0.00    -0.377 C  
BRANCH  21  22
HETATM   22  C   UNL     1     -12.235   9.693  72.038  1.00  0.00    -0.330 C  
BRANCH  22  23
HETATM   23  C   UNL     1     -13.014  10.379  70.916  1.00  0.00    -0.475 C  
BRANCH  23  24
HETATM   24  C   UNL     1     -12.345  11.684  70.480  1.00  0.00    -0.410 C  
HETATM   25  C   UNL     1     -11.877  11.617  69.044  1.00  0.00    -0.328 C  
HETATM   26  O   UNL     1     -12.004  10.658  68.301  1.00  0.00    -0.462 OA 
HETATM   27  O   UNL     1     -11.278  12.764  68.650  1.00  0.00    -0.247 OA 
ENDBRANCH  23  24
ENDBRANCH  22  23
ENDBRANCH  21  22
ENDBRANCH  20  21
ENDBRANCH  19  20
ENDBRANCH  18  19
ENDBRANCH  10  11
ENDBRANCH   6   9
ENDBRANCH   5   6
ENDBRANCH   4   5
ENDBRANCH   3   4
ENDBRANCH   2   3
TORSDOF 12
ENDMDL
MODEL      348
REMARK 921   NORMALIZED FREE ENERGY PREDICTED BY IDOCK:   -2.88 KCAL/MOL
REMARK 922        TOTAL FREE ENERGY PREDICTED BY IDOCK:   -6.85 KCAL/MOL
REMARK 923 INTER-LIGAND FREE ENERGY PREDICTED BY IDOCK:   -5.45 KCAL/MOL
REMARK 924 INTRA-LIGAND FREE ENERGY PREDICTED BY IDOCK:   -1.40 KCAL/MOL
REMARK 927      BINDING AFFINITY PREDICTED BY RF-SCORE:    0.00 PKD
ROOT
HETATM    1  C   UNL     1      -7.050  15.701  69.155  1.00  0.00    -0.168 C  
HETATM    2  C   UNL     1      -7.500  16.885  68.317  1.00  0.00    -0.192 C  
ENDROOT
BRANCH   2   3
HETATM    3  C   UNL     1      -8.968  16.767  67.901  1.00  0.00    -0.219 C  
BRANCH   3   4
HETATM    4  C   UNL     1      -9.830  16.415  69.112  1.00  0.00    -0.272 C  
BRANCH   4   5
HETATM    5  C   UNL     1     -10.866  15.332  68.802  1.00  0.00    -0.254 C  
BRANCH   5   6
HETATM    6  C   UNL     1     -10.658  14.671  67.429  1.00  0.00    -0.265 C  
HETATM    7  O   UNL     1     -11.844  14.886  66.671  1.00  0.00    -0.291 OA 
HETATM    8  H   UNL     1     -11.715  14.477  65.823  1.00  0.00     0.000 HD 
BRANCH   6   9
HETATM    9  C   UNL     1     -10.341  13.195  67.528  1.00  0.00    -0.225 C  
HETATM   10  C   UNL     1      -9.395  12.616  68.286  1.00  0.00    -0.195 C  
BRANCH  10  11
HETATM   11  C   UNL     1      -9.028  11.149  68.217  1.00  0.00    -0.166 C  
HETATM   12  C   UNL     1      -8.075  10.790  69.377  1.00  0.00    -0.043 C  
HETATM   13  O   UNL     1      -6.734  11.177  69.107  1.00  0.00    -0.072 OA 
HETATM   14  C   UNL     1      -8.176   9.288  69.533  1.00  0.00    -0.121 C  
HETATM   15  H   UNL     1      -6.148  10.955  69.821  1.00  0.00     0.000 HD 
HETATM   16  C   UNL     1      -9.615   9.058  69.193  1.00  0.00    -0.161 C  
HETATM   17  O   UNL     1     -10.222   8.056  69.555  1.00  0.00    -0.199 OA 
HETATM   18  C   UNL     1     -10.223  10.175  68.359  1.00  0.00    -0.192 C  
BRANCH  18  19
HETATM   19  C   UNL     1     -10.712   9.684  66.983  1.00  0.00    -0.225 C  
BRANCH  19  20
HETATM   20  C   UNL     1      -9.789   8.651  66.323  1.00  0.00    -0.320 C  
BRANCH  20  21
HETATM   21  C   UNL     1      -8.595   9.309  65.626  1.00  0.00    -0.172 C  
BRANCH  21  22
HETATM   22  C   UNL     1      -8.603   9.009  64.124  1.00  0.00    -0.165 C  
BRANCH  22  23
HETATM   23  C   UNL     1      -9.316  10.110  63.339  1.00  0.00    -0.334 C  
BRANCH  23  24
HETATM   24  C   UNL     1      -9.447  11.394  64.159  1.00  0.00    -0.155 C  
HETATM   25  C   UNL     1     -10.802  12.039  63.970  1.00  0.00    -0.378 C  
HETATM   26  O   UNL     1     -11.698  11.612  63.263  1.00  0.00    -0.343 OA 
HETATM   27  O   UNL     1     -10.927  13.179  64.686  1.00  0.00    -0.320 OA 
ENDBRANCH  23  24
ENDBRANCH  22  23
ENDBRANCH  21  22
ENDBRANCH  20  21
ENDBRANCH  19  20
ENDBRANCH  18  19
ENDBRANCH  10  11
ENDBRANCH   6   9
ENDBRANCH   5   6
ENDBRANCH   4   5
ENDBRANCH   3   4
ENDBRANCH   2   3
TORSDOF 12
ENDMDL
MODEL      349
REMARK 921   NORMALIZED FREE ENERGY PREDICTED BY IDOCK:   -2.88 KCAL/MOL
REMARK 922        TOTAL FREE ENERGY PREDICTED BY IDOCK:   -6.85 KCAL/MOL
REMARK 923 INTER-LIGAND FREE ENERGY PREDICTED BY IDOCK:   -5.74 KCAL/MOL
REMARK 924 INTRA-LIGAND FREE ENERGY PREDICTED BY IDOCK:   -1.11 KCAL/MOL
REMARK 927      BINDING AFFINITY PREDICTED BY RF-SCORE:    0.00 PKD
ROOT
HETATM    1  C   UNL     1      -9.255  17.653  68.184  1.00  0.00    -0.282 C  
HETATM    2  C   UNL     1      -8.988  16.978  66.850  1.00  0.00    -0.248 C  
ENDROOT
BRANCH   2   3
HETATM    3  C   UNL     1     -10.284  16.601  66.129  1.00  0.00    -0.360 C  
BRANCH   3   4
HETATM    4  C   UNL     1     -11.038  15.539  66.928  1.00  0.00    -0.221 C  
BRANCH   4   5
HETATM    5  C   UNL     1     -11.464  14.347  66.067  1.00  0.00    -0.349 C  
BRANCH   5   6
HETATM    6  C   UNL     1     -11.839  13.107  66.895  1.00  0.00    -0.386 C  
HETATM    7  O   UNL     1     -11.708  13.459  68.268  1.00  0.00    -0.315 OA 
HETATM    8  H   UNL     1     -11.940  12.692  68.780  1.00  0.00     0.000 HD 
BRANCH   6   9
HETATM    9  C   UNL     1     -10.990  11.899  66.565  1.00  0.00    -0.337 C  
HETATM   10  C   UNL     1      -9.919  11.856  65.755  1.00  0.00    -0.264 C  
BRANCH  10  11
HETATM   11  C   UNL     1      -9.212  10.581  65.346  1.00  0.00    -0.229 C  
HETATM   12  C   UNL     1      -8.972  10.579  63.821  1.00  0.00    -0.215 C  
HETATM   13  O   UNL     1     -10.138  10.209  63.097  1.00  0.00    -0.478 OA 
HETATM   14  C   UNL     1      -7.859   9.580  63.588  1.00  0.00    -0.132 C  
HETATM   15  H   UNL     1      -9.990  10.208  62.159  1.00  0.00     0.000 HD 
HETATM   16  C   UNL     1      -7.034   9.773  64.821  1.00  0.00    -0.122 C  
HETATM   17  O   UNL     1      -5.852   9.452  64.876  1.00  0.00    -0.062 OA 
HETATM   18  C   UNL     1      -7.811  10.387  65.976  1.00  0.00    -0.142 C  
BRANCH  18  19
HETATM   19  C   UNL     1      -7.873   9.459  67.205  1.00  0.00    -0.098 C  
BRANCH  19  20
HETATM   20  C   UNL     1      -8.781   9.971  68.331  1.00  0.00    -0.117 C  
BRANCH  20  21
HETATM   21  C   UNL     1      -8.147   9.782  69.712  1.00  0.00    -0.174 C  
BRANCH  21  22
HETATM   22  C   UNL     1      -9.108   9.059  70.661  1.00  0.00    -0.280 C  
BRANCH  22  23
HETATM   23  C   UNL     1     -10.421   8.704  69.964  1.00  0.00    -0.229 C  
BRANCH  23  24
HETATM   24  C   UNL     1     -10.758   7.220  70.116  1.00  0.00    -0.260 C  
HETATM   25  C   UNL     1     -10.384   6.435  68.879  1.00  0.00    -0.201 C  
HETATM   26  O   UNL     1      -9.875   6.897  67.872  1.00  0.00    -0.131 OA 
HETATM   27  O   UNL     1     -10.684   5.122  69.000  1.00  0.00    -0.102 OA 
ENDBRANCH  23  24
ENDBRANCH  22  23
ENDBRANCH  21  22
ENDBRANCH  20  21
ENDBRANCH  19  20
ENDBRANCH  18  19
ENDBRANCH  10  11
ENDBRANCH   6   9
ENDBRANCH   5   6
ENDBRANCH   4   5
ENDBRANCH   3   4
ENDBRANCH   2   3
TORSDOF 12
ENDMDL
MODEL      350
REMARK 921   NORMALIZED FREE ENERGY PREDICTED BY IDOCK:   -2.86 KCAL/MOL
REMARK 922        TOTAL FREE ENERGY PREDICTED BY IDOCK:   -6.82 KCAL/MOL
REMARK 923 INTER-LIGAND FREE ENERGY PREDICTED BY IDOCK:   -5.18 KCAL/MOL
REMARK 924 INTRA-LIGAND FREE ENERGY PREDICTED BY IDOCK:   -1.64 KCAL/MOL
REMARK 927      BINDING AFFINITY PREDICTED BY RF-SCORE:    0.00 PKD
ROOT
HETATM    1  C   UNL     1      -7.121  15.514  67.496  1.00  0.00    -0.220 C  
HETATM    2  C   UNL     1      -7.759  14.353  68.239  1.00  0.00    -0.129 C  
ENDROOT
BRANCH   2   3
HETATM    3  C   UNL     1      -7.665  13.046  67.450  1.00  0.00    -0.159 C  
BRANCH   3   4
HETATM    4  C   UNL     1      -7.926  11.857  68.373  1.00  0.00    -0.154 C  
BRANCH   4   5
HETATM    5  C   UNL     1      -6.765  11.592  69.334  1.00  0.00    -0.116 C  
BRANCH   5   6
HETATM    6  C   UNL     1      -6.518  10.094  69.585  1.00  0.00    -0.062 C  
HETATM    7  O   UNL     1      -6.073   9.527  68.358  1.00  0.00    -0.044 OA 
HETATM    8  H   UNL     1      -5.921   8.601  68.513  1.00  0.00     0.000 HD 
BRANCH   6   9
HETATM    9  C   UNL     1      -7.745   9.373  70.099  1.00  0.00    -0.140 C  
HETATM   10  C   UNL     1      -7.912   8.816  71.310  1.00  0.00    -0.176 C  
BRANCH  10  11
HETATM   11  C   UNL     1      -9.107   7.973  71.701  1.00  0.00    -0.194 C  
HETATM   12  C   UNL     1      -9.179   7.844  73.238  1.00  0.00    -0.282 C  
HETATM   13  O   UNL     1      -8.278   6.864  73.735  1.00  0.00    -0.113 OA 
HETATM   14  C   UNL     1     -10.611   7.457  73.545  1.00  0.00    -0.388 C  
HETATM   15  H   UNL     1      -8.323   6.784  74.680  1.00  0.00     0.000 HD 
HETATM   16  C   UNL     1     -11.347   8.204  72.477  1.00  0.00    -0.401 C  
HETATM   17  O   UNL     1     -12.536   8.485  72.576  1.00  0.00    -0.383 OA 
HETATM   18  C   UNL     1     -10.478   8.557  71.279  1.00  0.00    -0.289 C  
BRANCH  18  19
HETATM   19  C   UNL     1     -10.984   7.913  69.974  1.00  0.00    -0.208 C  
BRANCH  19  20
HETATM   20  C   UNL     1     -11.262   6.408  70.086  1.00  0.00    -0.454 C  
BRANCH  20  21
HETATM   21  C   UNL     1     -10.480   5.600  69.047  1.00  0.00    -0.321 C  
BRANCH  21  22
HETATM   22  C   UNL     1      -9.761   4.416  69.701  1.00  0.00    -0.289 C  
BRANCH  22  23
HETATM   23  C   UNL     1      -9.633   4.607  71.212  1.00  0.00    -0.238 C  
BRANCH  23  24
HETATM   24  C   UNL     1      -9.993   3.331  71.976  1.00  0.00    -0.222 C  
HETATM   25  C   UNL     1      -8.810   2.791  72.748  1.00  0.00    -0.082 C  
HETATM   26  O   UNL     1      -7.698   3.289  72.779  1.00  0.00    -0.054 OA 
HETATM   27  O   UNL     1      -9.117   1.660  73.422  1.00  0.00    -0.064 OA 
ENDBRANCH  23  24
ENDBRANCH  22  23
ENDBRANCH  21  22
ENDBRANCH  20  21
ENDBRANCH  19  20
ENDBRANCH  18  19
ENDBRANCH  10  11
ENDBRANCH   6   9
ENDBRANCH   5   6
ENDBRANCH   4   5
ENDBRANCH   3   4
ENDBRANCH   2   3
TORSDOF 12
ENDMDL
MODEL      351
REMARK 921   NORMALIZED FREE ENERGY PREDICTED BY IDOCK:   -2.86 KCAL/MOL
REMARK 922        TOTAL FREE ENERGY PREDICTED BY IDOCK:   -6.81 KCAL/MOL
REMARK 923 INTER-LIGAND FREE ENERGY PREDICTED BY IDOCK:   -5.50 KCAL/MOL
REMARK 924 INTRA-LIGAND FREE ENERGY PREDICTED BY IDOCK:   -1.31 KCAL/MOL
REMARK 927      BINDING AFFINITY PREDICTED BY RF-SCORE:    0.00 PKD
ROOT
HETATM    1  C   UNL     1     -12.148  14.832  64.349  1.00  0.00    -0.457 C  
HETATM    2  C   UNL     1     -12.401  13.335  64.349  1.00  0.00    -0.410 C  
ENDROOT
BRANCH   2   3
HETATM    3  C   UNL     1     -11.198  12.550  63.822  1.00  0.00    -0.524 C  
BRANCH   3   4
HETATM    4  C   UNL     1     -10.198  12.303  64.950  1.00  0.00    -0.307 C  
BRANCH   4   5
HETATM    5  C   UNL     1      -9.914  10.816  65.169  1.00  0.00    -0.351 C  
BRANCH   5   6
HETATM    6  C   UNL     1      -8.508  10.546  65.732  1.00  0.00    -0.175 C  
HETATM    7  O   UNL     1      -7.569  11.031  64.778  1.00  0.00    -0.308 OA 
HETATM    8  H   UNL     1      -6.701  10.864  65.126  1.00  0.00     0.000 HD 
BRANCH   6   9
HETATM    9  C   UNL     1      -8.264   9.082  66.032  1.00  0.00    -0.113 C  
HETATM   10  C   UNL     1      -8.723   8.025  65.343  1.00  0.00    -0.101 C  
BRANCH  10  11
HETATM   11  C   UNL     1      -8.572   6.586  65.790  1.00  0.00    -0.149 C  
HETATM   12  C   UNL     1      -7.956   5.744  64.653  1.00  0.00    -0.122 C  
HETATM   13  O   UNL     1      -8.921   5.378  63.676  1.00  0.00    -0.350 OA 
HETATM   14  C   UNL     1      -7.383   4.514  65.325  1.00  0.00    -0.072 C  
HETATM   15  H   UNL     1      -8.542   4.859  62.976  1.00  0.00     0.000 HD 
HETATM   16  C   UNL     1      -6.925   5.085  66.630  1.00  0.00    -0.067 C  
HETATM   17  O   UNL     1      -6.071   4.539  67.320  1.00  0.00    -0.026 OA 
HETATM   18  C   UNL     1      -7.630   6.381  67.002  1.00  0.00    -0.095 C  
BRANCH  18  19
HETATM   19  C   UNL     1      -8.425   6.264  68.316  1.00  0.00    -0.114 C  
BRANCH  19  20
HETATM   20  C   UNL     1      -8.070   7.331  69.360  1.00  0.00    -0.130 C  
BRANCH  20  21
HETATM   21  C   UNL     1      -9.132   8.431  69.442  1.00  0.00    -0.154 C  
BRANCH  21  22
HETATM   22  C   UNL     1     -10.449   7.882  69.999  1.00  0.00    -0.231 C  
BRANCH  22  23
HETATM   23  C   UNL     1     -10.277   7.361  71.426  1.00  0.00    -0.198 C  
BRANCH  23  24
HETATM   24  C   UNL     1      -9.587   8.389  72.324  1.00  0.00    -0.374 C  
HETATM   25  C   UNL     1      -8.440   7.775  73.094  1.00  0.00    -0.163 C  
HETATM   26  O   UNL     1      -8.084   6.611  73.028  1.00  0.00    -0.106 OA 
HETATM   27  O   UNL     1      -7.826   8.675  73.896  1.00  0.00    -0.406 OA 
ENDBRANCH  23  24
ENDBRANCH  22  23
ENDBRANCH  21  22
ENDBRANCH  20  21
ENDBRANCH  19  20
ENDBRANCH  18  19
ENDBRANCH  10  11
ENDBRANCH   6   9
ENDBRANCH   5   6
ENDBRANCH   4   5
ENDBRANCH   3   4
ENDBRANCH   2   3
TORSDOF 12
ENDMDL
MODEL      352
REMARK 921   NORMALIZED FREE ENERGY PREDICTED BY IDOCK:   -2.85 KCAL/MOL
REMARK 922        TOTAL FREE ENERGY PREDICTED BY IDOCK:   -6.81 KCAL/MOL
REMARK 923 INTER-LIGAND FREE ENERGY PREDICTED BY IDOCK:   -5.14 KCAL/MOL
REMARK 924 INTRA-LIGAND FREE ENERGY PREDICTED BY IDOCK:   -1.66 KCAL/MOL
REMARK 927      BINDING AFFINITY PREDICTED BY RF-SCORE:    0.00 PKD
ROOT
HETATM    1  C   UNL     1     -11.534  14.711  66.758  1.00  0.00    -0.371 C  
HETATM    2  C   UNL     1     -12.493  13.861  65.944  1.00  0.00    -0.519 C  
ENDROOT
BRANCH   2   3
HETATM    3  C   UNL     1     -12.014  12.413  65.822  1.00  0.00    -0.437 C  
BRANCH   3   4
HETATM    4  C   UNL     1     -10.818  12.334  64.875  1.00  0.00    -0.342 C  
BRANCH   4   5
HETATM    5  C   UNL     1      -9.574  11.746  65.545  1.00  0.00    -0.222 C  
BRANCH   5   6
HETATM    6  C   UNL     1      -9.202  10.352  65.012  1.00  0.00    -0.214 C  
HETATM    7  O   UNL     1     -10.182   9.994  64.043  1.00  0.00    -0.448 OA 
HETATM    8  H   UNL     1      -9.952   9.132  63.713  1.00  0.00     0.000 HD 
BRANCH   6   9
HETATM    9  C   UNL     1      -9.116   9.308  66.103  1.00  0.00    -0.224 C  
HETATM   10  C   UNL     1      -9.884   9.215  67.201  1.00  0.00    -0.253 C  
BRANCH  10  11
HETATM   11  C   UNL     1      -9.641   8.237  68.331  1.00  0.00    -0.153 C  
HETATM   12  C   UNL     1      -9.160   8.994  69.587  1.00  0.00    -0.154 C  
HETATM   13  O   UNL     1      -7.778   9.318  69.520  1.00  0.00    -0.075 OA 
HETATM   14  C   UNL     1      -9.435   8.063  70.749  1.00  0.00    -0.173 C  
HETATM   15  H   UNL     1      -7.483   9.783  70.293  1.00  0.00     0.000 HD 
HETATM   16  C   UNL     1     -10.694   7.395  70.294  1.00  0.00    -0.237 C  
HETATM   17  O   UNL     1     -11.468   6.855  71.075  1.00  0.00    -0.279 OA 
HETATM   18  C   UNL     1     -10.894   7.449  68.786  1.00  0.00    -0.077 C  
BRANCH  18  19
HETATM   19  C   UNL     1     -10.939   6.049  68.147  1.00  0.00    -0.340 C  
BRANCH  19  20
HETATM   20  C   UNL     1      -9.675   5.211  68.385  1.00  0.00    -0.200 C  
BRANCH  20  21
HETATM   21  C   UNL     1      -9.268   4.419  67.139  1.00  0.00    -0.157 C  
BRANCH  21  22
HETATM   22  C   UNL     1      -8.207   5.174  66.332  1.00  0.00    -0.108 C  
BRANCH  22  23
HETATM   23  C   UNL     1      -6.829   4.530  66.483  1.00  0.00    -0.055 C  
BRANCH  23  24
HETATM   24  C   UNL     1      -6.912   3.174  67.187  1.00  0.00    -0.050 C  
HETATM   25  C   UNL     1      -5.973   3.102  68.370  1.00  0.00    -0.024 C  
HETATM   26  O   UNL     1      -5.232   3.996  68.742  1.00  0.00    -0.010 OA 
HETATM   27  O   UNL     1      -6.034   1.905  68.995  1.00  0.00    -0.022 OA 
ENDBRANCH  23  24
ENDBRANCH  22  23
ENDBRANCH  21  22
ENDBRANCH  20  21
ENDBRANCH  19  20
ENDBRANCH  18  19
ENDBRANCH  10  11
ENDBRANCH   6   9
ENDBRANCH   5   6
ENDBRANCH   4   5
ENDBRANCH   3   4
ENDBRANCH   2   3
TORSDOF 12
ENDMDL
MODEL      353
REMARK 921   NORMALIZED FREE ENERGY PREDICTED BY IDOCK:   -2.85 KCAL/MOL
REMARK 922        TOTAL FREE ENERGY PREDICTED BY IDOCK:   -6.80 KCAL/MOL
REMARK 923 INTER-LIGAND FREE ENERGY PREDICTED BY IDOCK:   -5.21 KCAL/MOL
REMARK 924 INTRA-LIGAND FREE ENERGY PREDICTED BY IDOCK:   -1.59 KCAL/MOL
REMARK 927      BINDING AFFINITY PREDICTED BY RF-SCORE:    0.00 PKD
ROOT
HETATM    1  C   UNL     1      -8.459   2.936  72.186  1.00  0.00    -0.077 C  
HETATM    2  C   UNL     1      -8.067   1.754  71.318  1.00  0.00    -0.051 C  
ENDROOT
BRANCH   2   3
HETATM    3  C   UNL     1      -8.239   2.055  69.828  1.00  0.00    -0.065 C  
BRANCH   3   4
HETATM    4  C   UNL     1      -9.503   2.883  69.603  1.00  0.00    -0.164 C  
BRANCH   4   5
HETATM    5  C   UNL     1      -9.542   3.534  68.218  1.00  0.00    -0.161 C  
BRANCH   5   6
HETATM    6  C   UNL     1     -10.161   4.942  68.229  1.00  0.00    -0.032 C  
HETATM    7  O   UNL     1      -9.369   5.760  67.375  1.00  0.00    -0.112 OA 
HETATM    8  H   UNL     1      -9.751   6.630  67.382  1.00  0.00     0.000 HD 
BRANCH   6   9
HETATM    9  C   UNL     1     -10.246   5.538  69.618  1.00  0.00    -0.336 C  
HETATM   10  C   UNL     1     -11.322   6.095  70.198  1.00  0.00    -0.433 C  
BRANCH  10  11
HETATM   11  C   UNL     1     -11.294   6.813  71.531  1.00  0.00    -0.316 C  
HETATM   12  C   UNL     1     -10.804   5.853  72.636  1.00  0.00    -0.251 C  
HETATM   13  O   UNL     1     -11.834   4.983  73.083  1.00  0.00    -0.481 OA 
HETATM   14  C   UNL     1     -10.330   6.744  73.764  1.00  0.00    -0.397 C  
HETATM   15  H   UNL     1     -11.532   4.392  73.764  1.00  0.00     0.000 HD 
HETATM   16  C   UNL     1      -9.772   7.905  73.001  1.00  0.00    -0.283 C  
HETATM   17  O   UNL     1      -8.951   8.674  73.487  1.00  0.00    -0.216 OA 
HETATM   18  C   UNL     1     -10.335   8.026  71.592  1.00  0.00    -0.267 C  
BRANCH  18  19
HETATM   19  C   UNL     1     -11.090   9.351  71.371  1.00  0.00    -0.450 C  
BRANCH  19  20
HETATM   20  C   UNL     1     -11.504   9.599  69.915  1.00  0.00    -0.144 C  
BRANCH  20  21
HETATM   21  C   UNL     1     -10.306   9.569  68.963  1.00  0.00    -0.219 C  
BRANCH  21  22
HETATM   22  C   UNL     1      -9.011   9.928  69.699  1.00  0.00    -0.232 C  
BRANCH  22  23
HETATM   23  C   UNL     1      -7.829   9.109  69.181  1.00  0.00    -0.092 C  
BRANCH  23  24
HETATM   24  C   UNL     1      -7.103   8.384  70.315  1.00  0.00    -0.040 C  
HETATM   25  C   UNL     1      -6.259   9.335  71.134  1.00  0.00    -0.075 C  
HETATM   26  O   UNL     1      -6.152  10.534  70.940  1.00  0.00    -0.270 OA 
HETATM   27  O   UNL     1      -5.608   8.703  72.136  1.00  0.00    -0.043 OA 
ENDBRANCH  23  24
ENDBRANCH  22  23
ENDBRANCH  21  22
ENDBRANCH  20  21
ENDBRANCH  19  20
ENDBRANCH  18  19
ENDBRANCH  10  11
ENDBRANCH   6   9
ENDBRANCH   5   6
ENDBRANCH   4   5
ENDBRANCH   3   4
ENDBRANCH   2   3
TORSDOF 12
ENDMDL
MODEL      354
REMARK 921   NORMALIZED FREE ENERGY PREDICTED BY IDOCK:   -2.84 KCAL/MOL
REMARK 922        TOTAL FREE ENERGY PREDICTED BY IDOCK:   -6.78 KCAL/MOL
REMARK 923 INTER-LIGAND FREE ENERGY PREDICTED BY IDOCK:   -5.01 KCAL/MOL
REMARK 924 INTRA-LIGAND FREE ENERGY PREDICTED BY IDOCK:   -1.78 KCAL/MOL
REMARK 927      BINDING AFFINITY PREDICTED BY RF-SCORE:    0.00 PKD
ROOT
HETATM    1  C   UNL     1      -6.288  15.333  67.986  1.00  0.00    -0.155 C  
HETATM    2  C   UNL     1      -6.752  16.544  67.198  1.00  0.00    -0.232 C  
ENDROOT
BRANCH   2   3
HETATM    3  C   UNL     1      -8.276  16.601  67.077  1.00  0.00    -0.222 C  
BRANCH   3   4
HETATM    4  C   UNL     1      -8.912  16.614  68.466  1.00  0.00    -0.235 C  
BRANCH   4   5
HETATM    5  C   UNL     1     -10.126  15.686  68.566  1.00  0.00    -0.211 C  
BRANCH   5   6
HETATM    6  C   UNL     1     -10.288  14.770  67.341  1.00  0.00    -0.242 C  
HETATM    7  O   UNL     1     -11.618  14.938  66.860  1.00  0.00    -0.345 OA 
HETATM    8  H   UNL     1     -11.718  14.372  66.103  1.00  0.00     0.000 HD 
BRANCH   6   9
HETATM    9  C   UNL     1     -10.007  13.316  67.652  1.00  0.00    -0.229 C  
HETATM   10  C   UNL     1      -8.945  12.815  68.303  1.00  0.00    -0.175 C  
BRANCH  10  11
HETATM   11  C   UNL     1      -8.649  11.337  68.440  1.00  0.00    -0.155 C  
HETATM   12  C   UNL     1      -7.463  11.124  69.404  1.00  0.00    -0.026 C  
HETATM   13  O   UNL     1      -6.211  11.354  68.771  1.00  0.00    -0.047 OA 
HETATM   14  C   UNL     1      -7.571   9.688  69.869  1.00  0.00    -0.138 C  
HETATM   15  H   UNL     1      -5.481  11.223  69.364  1.00  0.00     0.000 HD 
HETATM   16  C   UNL     1      -9.056   9.508  69.911  1.00  0.00    -0.216 C  
HETATM   17  O   UNL     1      -9.592   8.637  70.587  1.00  0.00    -0.168 OA 
HETATM   18  C   UNL     1      -9.808  10.497  69.033  1.00  0.00    -0.224 C  
BRANCH  18  19
HETATM   19  C   UNL     1     -10.621   9.802  67.924  1.00  0.00    -0.310 C  
BRANCH  19  20
HETATM   20  C   UNL     1      -9.840   8.725  67.158  1.00  0.00    -0.268 C  
BRANCH  20  21
HETATM   21  C   UNL     1      -8.980   9.322  66.042  1.00  0.00    -0.215 C  
BRANCH  21  22
HETATM   22  C   UNL     1      -9.829  10.166  65.087  1.00  0.00    -0.394 C  
BRANCH  22  23
HETATM   23  C   UNL     1      -9.312  10.074  63.651  1.00  0.00    -0.301 C  
BRANCH  23  24
HETATM   24  C   UNL     1      -8.248   8.986  63.502  1.00  0.00    -0.178 C  
HETATM   25  C   UNL     1      -7.028   9.497  62.769  1.00  0.00    -0.097 C  
HETATM   26  O   UNL     1      -6.881  10.629  62.340  1.00  0.00    -0.139 OA 
HETATM   27  O   UNL     1      -6.082   8.541  62.626  1.00  0.00    -0.086 OA 
ENDBRANCH  23  24
ENDBRANCH  22  23
ENDBRANCH  21  22
ENDBRANCH  20  21
ENDBRANCH  19  20
ENDBRANCH  18  19
ENDBRANCH  10  11
ENDBRANCH   6   9
ENDBRANCH   5   6
ENDBRANCH   4   5
ENDBRANCH   3   4
ENDBRANCH   2   3
TORSDOF 12
ENDMDL
MODEL      355
REMARK 921   NORMALIZED FREE ENERGY PREDICTED BY IDOCK:   -2.83 KCAL/MOL
REMARK 922        TOTAL FREE ENERGY PREDICTED BY IDOCK:   -6.76 KCAL/MOL
REMARK 923 INTER-LIGAND FREE ENERGY PREDICTED BY IDOCK:   -4.35 KCAL/MOL
REMARK 924 INTRA-LIGAND FREE ENERGY PREDICTED BY IDOCK:   -2.42 KCAL/MOL
REMARK 927      BINDING AFFINITY PREDICTED BY RF-SCORE:    0.00 PKD
ROOT
HETATM    1  C   UNL     1      -9.384   2.735  68.792  1.00  0.00    -0.234 C  
HETATM    2  C   UNL     1      -9.382   3.527  67.497  1.00  0.00    -0.249 C  
ENDROOT
BRANCH   2   3
HETATM    3  C   UNL     1     -10.325   4.730  67.557  1.00  0.00    -0.051 C  
BRANCH   3   4
HETATM    4  C   UNL     1      -9.752   5.887  66.741  1.00  0.00    -0.177 C  
BRANCH   4   5
HETATM    5  C   UNL     1      -8.294   5.657  66.337  1.00  0.00    -0.112 C  
BRANCH   5   6
HETATM    6  C   UNL     1      -7.316   6.620  67.031  1.00  0.00    -0.082 C  
HETATM    7  O   UNL     1      -6.003   6.104  66.836  1.00  0.00    -0.019 OA 
HETATM    8  H   UNL     1      -5.399   6.699  67.265  1.00  0.00     0.000 HD 
BRANCH   6   9
HETATM    9  C   UNL     1      -7.611   6.800  68.504  1.00  0.00    -0.104 C  
HETATM   10  C   UNL     1      -7.341   5.937  69.498  1.00  0.00    -0.075 C  
BRANCH  10  11
HETATM   11  C   UNL     1      -7.806   6.113  70.928  1.00  0.00    -0.107 C  
HETATM   12  C   UNL     1      -6.617   5.928  71.894  1.00  0.00    -0.058 C  
HETATM   13  O   UNL     1      -6.319   4.557  72.120  1.00  0.00    -0.020 OA 
HETATM   14  C   UNL     1      -7.035   6.603  73.183  1.00  0.00    -0.076 C  
HETATM   15  H   UNL     1      -5.587   4.444  72.715  1.00  0.00     0.000 HD 
HETATM   16  C   UNL     1      -7.849   7.745  72.661  1.00  0.00    -0.110 C  
HETATM   17  O   UNL     1      -8.062   8.754  73.323  1.00  0.00    -0.407 OA 
HETATM   18  C   UNL     1      -8.380   7.513  71.254  1.00  0.00    -0.111 C  
BRANCH  18  19
HETATM   19  C   UNL     1      -9.920   7.514  71.198  1.00  0.00    -0.187 C  
BRANCH  19  20
HETATM   20  C   UNL     1     -10.520   8.759  70.531  1.00  0.00    -0.246 C  
BRANCH  20  21
HETATM   21  C   UNL     1      -9.439   9.715  70.020  1.00  0.00    -0.277 C  
BRANCH  21  22
HETATM   22  C   UNL     1      -9.998  10.649  68.941  1.00  0.00    -0.213 C  
BRANCH  22  23
HETATM   23  C   UNL     1     -10.837   9.882  67.919  1.00  0.00    -0.312 C  
BRANCH  23  24
HETATM   24  C   UNL     1     -10.011   9.481  66.696  1.00  0.00    -0.314 C  
HETATM   25  C   UNL     1     -10.257  10.411  65.529  1.00  0.00    -0.246 C  
HETATM   26  O   UNL     1     -11.012  11.369  65.533  1.00  0.00    -0.261 OA 
HETATM   27  O   UNL     1      -9.536  10.063  64.440  1.00  0.00    -0.296 OA 
ENDBRANCH  23  24
ENDBRANCH  22  23
ENDBRANCH  21  22
ENDBRANCH  20  21
ENDBRANCH  19  20
ENDBRANCH  18  19
ENDBRANCH  10  11
ENDBRANCH   6   9
ENDBRANCH   5   6
ENDBRANCH   4   5
ENDBRANCH   3   4
ENDBRANCH   2   3
TORSDOF 12
ENDMDL
MODEL      356
REMARK 921   NORMALIZED FREE ENERGY PREDICTED BY IDOCK:   -2.82 KCAL/MOL
REMARK 922        TOTAL FREE ENERGY PREDICTED BY IDOCK:   -6.75 KCAL/MOL
REMARK 923 INTER-LIGAND FREE ENERGY PREDICTED BY IDOCK:   -4.81 KCAL/MOL
REMARK 924 INTRA-LIGAND FREE ENERGY PREDICTED BY IDOCK:   -1.94 KCAL/MOL
REMARK 927      BINDING AFFINITY PREDICTED BY RF-SCORE:    0.00 PKD
ROOT
HETATM    1  C   UNL     1      -7.112  15.429  67.360  1.00  0.00    -0.229 C  
HETATM    2  C   UNL     1      -7.722  14.231  68.066  1.00  0.00    -0.141 C  
ENDROOT
BRANCH   2   3
HETATM    3  C   UNL     1      -7.529  12.938  67.272  1.00  0.00    -0.092 C  
BRANCH   3   4
HETATM    4  C   UNL     1      -7.729  11.728  68.184  1.00  0.00    -0.124 C  
BRANCH   4   5
HETATM    5  C   UNL     1      -6.868  11.794  69.447  1.00  0.00    -0.067 C  
BRANCH   5   6
HETATM    6  C   UNL     1      -6.179  10.459  69.778  1.00  0.00    -0.067 C  
HETATM    7  O   UNL     1      -5.138  10.272  68.825  1.00  0.00    -0.039 OA 
HETATM    8  H   UNL     1      -4.712   9.447  69.029  1.00  0.00     0.000 HD 
BRANCH   6   9
HETATM    9  C   UNL     1      -7.133   9.286  69.772  1.00  0.00    -0.064 C  
HETATM   10  C   UNL     1      -7.878   8.839  70.797  1.00  0.00    -0.120 C  
BRANCH  10  11
HETATM   11  C   UNL     1      -8.693   7.563  70.766  1.00  0.00    -0.140 C  
HETATM   12  C   UNL     1      -9.548   7.453  72.046  1.00  0.00    -0.150 C  
HETATM   13  O   UNL     1      -8.791   6.987  73.155  1.00  0.00    -0.123 OA 
HETATM   14  C   UNL     1     -10.657   6.479  71.709  1.00  0.00    -0.245 C  
HETATM   15  H   UNL     1      -9.318   6.919  73.943  1.00  0.00     0.000 HD 
HETATM   16  C   UNL     1     -10.891   6.796  70.265  1.00  0.00    -0.270 C  
HETATM   17  O   UNL     1     -11.942   6.523  69.697  1.00  0.00    -0.216 OA 
HETATM   18  C   UNL     1      -9.702   7.468  69.595  1.00  0.00    -0.167 C  
BRANCH  18  19
HETATM   19  C   UNL     1      -9.133   6.635  68.430  1.00  0.00    -0.124 C  
BRANCH  19  20
HETATM   20  C   UNL     1      -9.411   7.229  67.043  1.00  0.00    -0.196 C  
BRANCH  20  21
HETATM   21  C   UNL     1     -10.659   8.116  67.036  1.00  0.00    -0.346 C  
BRANCH  21  22
HETATM   22  C   UNL     1     -10.293   9.576  66.757  1.00  0.00    -0.298 C  
BRANCH  22  23
HETATM   23  C   UNL     1     -10.966  10.521  67.753  1.00  0.00    -0.372 C  
BRANCH  23  24
HETATM   24  C   UNL     1     -11.181  11.913  67.156  1.00  0.00    -0.377 C  
HETATM   25  C   UNL     1     -11.399  12.952  68.232  1.00  0.00    -0.291 C  
HETATM   26  O   UNL     1     -11.406  12.739  69.432  1.00  0.00    -0.250 OA 
HETATM   27  O   UNL     1     -11.596  14.186  67.714  1.00  0.00    -0.308 OA 
ENDBRANCH  23  24
ENDBRANCH  22  23
ENDBRANCH  21  22
ENDBRANCH  20  21
ENDBRANCH  19  20
ENDBRANCH  18  19
ENDBRANCH  10  11
ENDBRANCH   6   9
ENDBRANCH   5   6
ENDBRANCH   4   5
ENDBRANCH   3   4
ENDBRANCH   2   3
TORSDOF 12
ENDMDL
MODEL      357
REMARK 921   NORMALIZED FREE ENERGY PREDICTED BY IDOCK:   -2.82 KCAL/MOL
REMARK 922        TOTAL FREE ENERGY PREDICTED BY IDOCK:   -6.75 KCAL/MOL
REMARK 923 INTER-LIGAND FREE ENERGY PREDICTED BY IDOCK:   -4.80 KCAL/MOL
REMARK 924 INTRA-LIGAND FREE ENERGY PREDICTED BY IDOCK:   -1.94 KCAL/MOL
REMARK 927      BINDING AFFINITY PREDICTED BY RF-SCORE:    0.00 PKD
ROOT
HETATM    1  C   UNL     1     -10.688   3.220  62.642  1.00  0.00    -0.182 C  
HETATM    2  C   UNL     1     -10.727   3.678  64.089  1.00  0.00    -0.221 C  
ENDROOT
BRANCH   2   3
HETATM    3  C   UNL     1      -9.511   3.189  64.879  1.00  0.00    -0.143 C  
BRANCH   3   4
HETATM    4  C   UNL     1      -9.651   3.577  66.350  1.00  0.00    -0.114 C  
BRANCH   4   5
HETATM    5  C   UNL     1      -9.508   5.084  66.577  1.00  0.00    -0.151 C  
BRANCH   5   6
HETATM    6  C   UNL     1     -10.795   5.740  67.104  1.00  0.00    -0.217 C  
HETATM    7  O   UNL     1     -10.845   7.060  66.573  1.00  0.00    -0.505 OA 
HETATM    8  H   UNL     1     -11.640   7.466  66.899  1.00  0.00     0.000 HD 
BRANCH   6   9
HETATM    9  C   UNL     1     -10.868   5.764  68.615  1.00  0.00    -0.270 C  
HETATM   10  C   UNL     1      -9.910   5.396  69.481  1.00  0.00    -0.264 C  
BRANCH  10  11
HETATM   11  C   UNL     1     -10.107   5.296  70.979  1.00  0.00    -0.289 C  
HETATM   12  C   UNL     1      -9.287   4.115  71.540  1.00  0.00    -0.143 C  
HETATM   13  O   UNL     1      -9.937   2.868  71.334  1.00  0.00    -0.143 OA 
HETATM   14  C   UNL     1      -9.131   4.398  73.019  1.00  0.00    -0.129 C  
HETATM   15  H   UNL     1      -9.432   2.141  71.680  1.00  0.00     0.000 HD 
HETATM   16  C   UNL     1      -9.033   5.891  73.019  1.00  0.00    -0.121 C  
HETATM   17  O   UNL     1      -8.524   6.514  73.944  1.00  0.00    -0.116 OA 
HETATM   18  C   UNL     1      -9.633   6.534  71.778  1.00  0.00    -0.158 C  
BRANCH  18  19
HETATM   19  C   UNL     1     -10.809   7.472  72.110  1.00  0.00    -0.282 C  
BRANCH  19  20
HETATM   20  C   UNL     1     -10.637   8.903  71.582  1.00  0.00    -0.422 C  
BRANCH  20  21
HETATM   21  C   UNL     1     -11.429   9.140  70.293  1.00  0.00    -0.174 C  
BRANCH  21  22
HETATM   22  C   UNL     1     -10.490   9.316  69.096  1.00  0.00    -0.231 C  
BRANCH  22  23
HETATM   23  C   UNL     1      -9.105   9.787  69.539  1.00  0.00    -0.227 C  
BRANCH  23  24
HETATM   24  C   UNL     1      -8.037   8.722  69.281  1.00  0.00    -0.110 C  
HETATM   25  C   UNL     1      -6.670   9.183  69.736  1.00  0.00    -0.050 C  
HETATM   26  O   UNL     1      -6.420  10.261  70.247  1.00  0.00    -0.107 OA 
HETATM   27  O   UNL     1      -5.717   8.251  69.507  1.00  0.00    -0.029 OA 
ENDBRANCH  23  24
ENDBRANCH  22  23
ENDBRANCH  21  22
ENDBRANCH  20  21
ENDBRANCH  19  20
ENDBRANCH  18  19
ENDBRANCH  10  11
ENDBRANCH   6   9
ENDBRANCH   5   6
ENDBRANCH   4   5
ENDBRANCH   3   4
ENDBRANCH   2   3
TORSDOF 12
ENDMDL
MODEL      358
REMARK 921   NORMALIZED FREE ENERGY PREDICTED BY IDOCK:   -2.77 KCAL/MOL
REMARK 922        TOTAL FREE ENERGY PREDICTED BY IDOCK:   -6.67 KCAL/MOL
REMARK 923 INTER-LIGAND FREE ENERGY PREDICTED BY IDOCK:   -4.51 KCAL/MOL
REMARK 924 INTRA-LIGAND FREE ENERGY PREDICTED BY IDOCK:   -2.16 KCAL/MOL
REMARK 927      BINDING AFFINITY PREDICTED BY RF-SCORE:    0.00 PKD
ROOT
HETATM    1  C   UNL     1      -6.218   9.135  70.336  1.00  0.00    -0.048 C  
HETATM    2  C   UNL     1      -6.766   7.853  70.936  1.00  0.00    -0.037 C  
ENDROOT
BRANCH   2   3
HETATM    3  C   UNL     1      -7.775   8.128  72.053  1.00  0.00    -0.136 C  
BRANCH   3   4
HETATM    4  C   UNL     1      -8.706   6.929  72.224  1.00  0.00    -0.132 C  
BRANCH   4   5
HETATM    5  C   UNL     1      -7.946   5.623  72.464  1.00  0.00    -0.103 C  
BRANCH   5   6
HETATM    6  C   UNL     1      -8.476   4.451  71.621  1.00  0.00    -0.105 C  
HETATM    7  O   UNL     1      -7.701   3.304  71.955  1.00  0.00    -0.052 OA 
HETATM    8  H   UNL     1      -8.029   2.580  71.434  1.00  0.00     0.000 HD 
BRANCH   6   9
HETATM    9  C   UNL     1      -8.423   4.723  70.134  1.00  0.00    -0.094 C  
HETATM   10  C   UNL     1      -9.431   4.620  69.252  1.00  0.00    -0.231 C  
BRANCH  10  11
HETATM   11  C   UNL     1      -9.269   4.755  67.753  1.00  0.00    -0.145 C  
HETATM   12  C   UNL     1      -9.005   3.370  67.125  1.00  0.00    -0.154 C  
HETATM   13  O   UNL     1      -7.650   2.965  67.273  1.00  0.00    -0.068 OA 
HETATM   14  C   UNL     1      -9.363   3.514  65.662  1.00  0.00    -0.158 C  
HETATM   15  H   UNL     1      -7.488   2.113  66.886  1.00  0.00     0.000 HD 
HETATM   16  C   UNL     1     -10.505   4.478  65.737  1.00  0.00    -0.233 C  
HETATM   17  O   UNL     1     -11.335   4.580  64.841  1.00  0.00    -0.205 OA 
HETATM   18  C   UNL     1     -10.514   5.304  67.014  1.00  0.00    -0.290 C  
BRANCH  18  19
HETATM   19  C   UNL     1     -10.383   6.814  66.740  1.00  0.00    -0.286 C  
BRANCH  19  20
HETATM   20  C   UNL     1     -10.771   7.702  67.931  1.00  0.00    -0.176 C  
BRANCH  20  21
HETATM   21  C   UNL     1      -9.569   8.463  68.497  1.00  0.00    -0.155 C  
BRANCH  21  22
HETATM   22  C   UNL     1      -9.951   9.901  68.860  1.00  0.00    -0.188 C  
BRANCH  22  23
HETATM   23  C   UNL     1     -11.195   9.940  69.748  1.00  0.00    -0.279 C  
BRANCH  23  24
HETATM   24  C   UNL     1     -10.906   9.401  71.150  1.00  0.00    -0.427 C  
HETATM   25  C   UNL     1     -12.117   8.719  71.745  1.00  0.00    -0.350 C  
HETATM   26  O   UNL     1     -13.201   8.596  71.199  1.00  0.00    -0.187 OA 
HETATM   27  O   UNL     1     -11.875   8.244  72.987  1.00  0.00    -0.269 OA 
ENDBRANCH  23  24
ENDBRANCH  22  23
ENDBRANCH  21  22
ENDBRANCH  20  21
ENDBRANCH  19  20
ENDBRANCH  18  19
ENDBRANCH  10  11
ENDBRANCH   6   9
ENDBRANCH   5   6
ENDBRANCH   4   5
ENDBRANCH   3   4
ENDBRANCH   2   3
TORSDOF 12
ENDMDL
MODEL      359
REMARK 921   NORMALIZED FREE ENERGY PREDICTED BY IDOCK:   -2.77 KCAL/MOL
REMARK 922        TOTAL FREE ENERGY PREDICTED BY IDOCK:   -6.67 KCAL/MOL
REMARK 923 INTER-LIGAND FREE ENERGY PREDICTED BY IDOCK:   -4.80 KCAL/MOL
REMARK 924 INTRA-LIGAND FREE ENERGY PREDICTED BY IDOCK:   -1.87 KCAL/MOL
REMARK 927      BINDING AFFINITY PREDICTED BY RF-SCORE:    0.00 PKD
ROOT
HETATM    1  C   UNL     1     -11.714  12.638  69.514  1.00  0.00    -0.374 C  
HETATM    2  C   UNL     1     -11.627  12.914  68.023  1.00  0.00    -0.385 C  
ENDROOT
BRANCH   2   3
HETATM    3  C   UNL     1     -10.701  11.926  67.310  1.00  0.00    -0.276 C  
BRANCH   3   4
HETATM    4  C   UNL     1      -9.870  11.154  68.334  1.00  0.00    -0.188 C  
BRANCH   4   5
HETATM    5  C   UNL     1      -8.393  11.552  68.311  1.00  0.00    -0.154 C  
BRANCH   5   6
HETATM    6  C   UNL     1      -7.448  10.356  68.098  1.00  0.00    -0.090 C  
HETATM    7  O   UNL     1      -6.686  10.623  66.925  1.00  0.00    -0.079 OA 
HETATM    8  H   UNL     1      -6.103   9.885  66.793  1.00  0.00     0.000 HD 
BRANCH   6   9
HETATM    9  C   UNL     1      -8.183   9.039  67.975  1.00  0.00    -0.110 C  
HETATM   10  C   UNL     1      -8.177   8.201  66.926  1.00  0.00    -0.111 C  
BRANCH  10  11
HETATM   11  C   UNL     1      -9.061   6.977  66.808  1.00  0.00    -0.162 C  
HETATM   12  C   UNL     1      -8.272   5.818  66.164  1.00  0.00    -0.111 C  
HETATM   13  O   UNL     1      -8.195   5.944  64.750  1.00  0.00    -0.133 OA 
HETATM   14  C   UNL     1      -9.018   4.558  66.548  1.00  0.00    -0.114 C  
HETATM   15  H   UNL     1      -7.709   5.230  64.354  1.00  0.00     0.000 HD 
HETATM   16  C   UNL     1      -9.506   4.917  67.917  1.00  0.00    -0.139 C  
HETATM   17  O   UNL     1      -9.824   4.068  68.742  1.00  0.00    -0.117 OA 
HETATM   18  C   UNL     1      -9.574   6.418  68.158  1.00  0.00    -0.115 C  
BRANCH  18  19
HETATM   19  C   UNL     1     -11.005   6.902  68.459  1.00  0.00    -0.198 C  
BRANCH  19  20
HETATM   20  C   UNL     1     -11.626   6.278  69.716  1.00  0.00    -0.330 C  
BRANCH  20  21
HETATM   21  C   UNL     1     -11.429   7.159  70.952  1.00  0.00    -0.333 C  
BRANCH  21  22
HETATM   22  C   UNL     1     -11.125   8.606  70.552  1.00  0.00    -0.268 C  
BRANCH  22  23
HETATM   23  C   UNL     1      -9.960   9.176  71.362  1.00  0.00    -0.373 C  
BRANCH  23  24
HETATM   24  C   UNL     1      -9.536   8.228  72.486  1.00  0.00    -0.365 C  
HETATM   25  C   UNL     1      -8.082   7.833  72.362  1.00  0.00    -0.120 C  
HETATM   26  O   UNL     1      -7.318   8.207  71.489  1.00  0.00    -0.067 OA 
HETATM   27  O   UNL     1      -7.698   6.990  73.348  1.00  0.00    -0.086 OA 
ENDBRANCH  23  24
ENDBRANCH  22  23
ENDBRANCH  21  22
ENDBRANCH  20  21
ENDBRANCH  19  20
ENDBRANCH  18  19
ENDBRANCH  10  11
ENDBRANCH   6   9
ENDBRANCH   5   6
ENDBRANCH   4   5
ENDBRANCH   3   4
ENDBRANCH   2   3
TORSDOF 12
ENDMDL
MODEL      360
REMARK 921   NORMALIZED FREE ENERGY PREDICTED BY IDOCK:   -2.74 KCAL/MOL
REMARK 922        TOTAL FREE ENERGY PREDICTED BY IDOCK:   -6.61 KCAL/MOL
REMARK 923 INTER-LIGAND FREE ENERGY PREDICTED BY IDOCK:   -5.17 KCAL/MOL
REMARK 924 INTRA-LIGAND FREE ENERGY PREDICTED BY IDOCK:   -1.44 KCAL/MOL
REMARK 927      BINDING AFFINITY PREDICTED BY RF-SCORE:    0.00 PKD
ROOT
HETATM    1  C   UNL     1     -12.457  15.372  64.229  1.00  0.00     0.048 C  
HETATM    2  C   UNL     1     -11.185  16.126  64.571  1.00  0.00    -0.275 C  
ENDROOT
BRANCH   2   3
HETATM    3  C   UNL     1     -10.559  15.634  65.878  1.00  0.00    -0.354 C  
BRANCH   3   4
HETATM    4  C   UNL     1     -11.177  14.297  66.284  1.00  0.00    -0.337 C  
BRANCH   4   5
HETATM    5  C   UNL     1     -10.144  13.171  66.361  1.00  0.00    -0.281 C  
BRANCH   5   6
HETATM    6  C   UNL     1     -10.705  11.805  65.931  1.00  0.00    -0.282 C  
HETATM    7  O   UNL     1     -12.125  11.896  65.984  1.00  0.00    -0.500 OA 
HETATM    8  H   UNL     1     -12.473  11.051  65.718  1.00  0.00     0.000 HD 
BRANCH   6   9
HETATM    9  C   UNL     1     -10.206  10.665  66.791  1.00  0.00    -0.284 C  
HETATM   10  C   UNL     1      -9.668  10.749  68.019  1.00  0.00    -0.174 C  
BRANCH  10  11
HETATM   11  C   UNL     1      -9.045   9.584  68.757  1.00  0.00    -0.133 C  
HETATM   12  C   UNL     1      -7.508   9.641  68.628  1.00  0.00    -0.075 C  
HETATM   13  O   UNL     1      -7.058   9.138  67.377  1.00  0.00    -0.078 OA 
HETATM   14  C   UNL     1      -6.975   8.797  69.767  1.00  0.00    -0.050 C  
HETATM   15  H   UNL     1      -6.112   9.173  67.298  1.00  0.00     0.000 HD 
HETATM   16  C   UNL     1      -7.990   9.072  70.831  1.00  0.00    -0.164 C  
HETATM   17  O   UNL     1      -7.753   8.905  72.021  1.00  0.00    -0.332 OA 
HETATM   18  C   UNL     1      -9.323   9.559  70.280  1.00  0.00    -0.305 C  
BRANCH  18  19
HETATM   19  C   UNL     1     -10.485   8.609  70.623  1.00  0.00    -0.243 C  
BRANCH  19  20
HETATM   20  C   UNL     1     -10.618   7.413  69.670  1.00  0.00    -0.243 C  
BRANCH  20  21
HETATM   21  C   UNL     1     -10.025   6.134  70.266  1.00  0.00    -0.226 C  
BRANCH  21  22
HETATM   22  C   UNL     1     -10.290   6.056  71.773  1.00  0.00    -0.259 C  
BRANCH  22  23
HETATM   23  C   UNL     1     -10.261   4.611  72.271  1.00  0.00    -0.256 C  
BRANCH  23  24
HETATM   24  C   UNL     1     -10.008   3.625  71.130  1.00  0.00    -0.118 C  
HETATM   25  C   UNL     1      -9.338   2.362  71.624  1.00  0.00    -0.118 C  
HETATM   26  O   UNL     1      -9.028   2.130  72.779  1.00  0.00    -0.066 OA 
HETATM   27  O   UNL     1      -9.104   1.485  70.621  1.00  0.00    -0.065 OA 
ENDBRANCH  23  24
ENDBRANCH  22  23
ENDBRANCH  21  22
ENDBRANCH  20  21
ENDBRANCH  19  20
ENDBRANCH  18  19
ENDBRANCH  10  11
ENDBRANCH   6   9
ENDBRANCH   5   6
ENDBRANCH   4   5
ENDBRANCH   3   4
ENDBRANCH   2   3
TORSDOF 12
ENDMDL
MODEL      361
REMARK 921   NORMALIZED FREE ENERGY PREDICTED BY IDOCK:   -2.73 KCAL/MOL
REMARK 922        TOTAL FREE ENERGY PREDICTED BY IDOCK:   -6.59 KCAL/MOL
REMARK 923 INTER-LIGAND FREE ENERGY PREDICTED BY IDOCK:   -4.88 KCAL/MOL
REMARK 924 INTRA-LIGAND FREE ENERGY PREDICTED BY IDOCK:   -1.72 KCAL/MOL
REMARK 927      BINDING AFFINITY PREDICTED BY RF-SCORE:    0.00 PKD
ROOT
HETATM    1  C   UNL     1      -7.740  14.504  67.461  1.00  0.00    -0.208 C  
HETATM    2  C   UNL     1      -8.261  13.224  68.090  1.00  0.00    -0.160 C  
ENDROOT
BRANCH   2   3
HETATM    3  C   UNL     1      -9.106  12.407  67.111  1.00  0.00    -0.199 C  
BRANCH   3   4
HETATM    4  C   UNL     1      -9.275  10.979  67.629  1.00  0.00    -0.151 C  
BRANCH   4   5
HETATM    5  C   UNL     1      -8.315  10.652  68.776  1.00  0.00    -0.144 C  
BRANCH   5   6
HETATM    6  C   UNL     1      -7.263   9.595  68.400  1.00  0.00    -0.074 C  
HETATM    7  O   UNL     1      -6.885   9.836  67.049  1.00  0.00    -0.081 OA 
HETATM    8  H   UNL     1      -6.235   9.183  66.817  1.00  0.00     0.000 HD 
BRANCH   6   9
HETATM    9  C   UNL     1      -7.763   8.178  68.575  1.00  0.00    -0.112 C  
HETATM   10  C   UNL     1      -8.372   7.412  67.655  1.00  0.00    -0.118 C  
BRANCH  10  11
HETATM   11  C   UNL     1      -8.987   6.059  67.945  1.00  0.00    -0.118 C  
HETATM   12  C   UNL     1      -9.545   5.445  66.644  1.00  0.00    -0.151 C  
HETATM   13  O   UNL     1     -10.811   5.989  66.295  1.00  0.00    -0.559 OA 
HETATM   14  C   UNL     1      -9.657   3.959  66.914  1.00  0.00    -0.226 C  
HETATM   15  H   UNL     1     -11.153   5.610  65.494  1.00  0.00     0.000 HD 
HETATM   16  C   UNL     1      -8.476   3.738  67.806  1.00  0.00    -0.095 C  
HETATM   17  O   UNL     1      -7.966   2.633  67.955  1.00  0.00    -0.059 OA 
HETATM   18  C   UNL     1      -8.000   5.004  68.501  1.00  0.00    -0.086 C  
BRANCH  18  19
HETATM   19  C   UNL     1      -8.091   4.905  70.036  1.00  0.00    -0.073 C  
BRANCH  19  20
HETATM   20  C   UNL     1      -9.344   4.178  70.543  1.00  0.00    -0.211 C  
BRANCH  20  21
HETATM   21  C   UNL     1     -10.503   5.144  70.803  1.00  0.00    -0.263 C  
BRANCH  21  22
HETATM   22  C   UNL     1      -9.988   6.498  71.300  1.00  0.00    -0.200 C  
BRANCH  22  23
HETATM   23  C   UNL     1     -10.673   7.657  70.576  1.00  0.00    -0.241 C  
BRANCH  23  24
HETATM   24  C   UNL     1     -11.200   8.705  71.558  1.00  0.00    -0.360 C  
HETATM   25  C   UNL     1     -12.648   8.455  71.916  1.00  0.00    -0.349 C  
HETATM   26  O   UNL     1     -13.334   7.540  71.493  1.00  0.00    -0.356 OA 
HETATM   27  O   UNL     1     -13.125   9.379  72.779  1.00  0.00    -0.283 OA 
ENDBRANCH  23  24
ENDBRANCH  22  23
ENDBRANCH  21  22
ENDBRANCH  20  21
ENDBRANCH  19  20
ENDBRANCH  18  19
ENDBRANCH  10  11
ENDBRANCH   6   9
ENDBRANCH   5   6
ENDBRANCH   4   5
ENDBRANCH   3   4
ENDBRANCH   2   3
TORSDOF 12
ENDMDL
MODEL      362
REMARK 921   NORMALIZED FREE ENERGY PREDICTED BY IDOCK:   -2.73 KCAL/MOL
REMARK 922        TOTAL FREE ENERGY PREDICTED BY IDOCK:   -6.59 KCAL/MOL
REMARK 923 INTER-LIGAND FREE ENERGY PREDICTED BY IDOCK:   -4.92 KCAL/MOL
REMARK 924 INTRA-LIGAND FREE ENERGY PREDICTED BY IDOCK:   -1.67 KCAL/MOL
REMARK 927      BINDING AFFINITY PREDICTED BY RF-SCORE:    0.00 PKD
ROOT
HETATM    1  C   UNL     1      -8.565   9.119  71.178  1.00  0.00    -0.196 C  
HETATM    2  C   UNL     1      -7.329   8.282  71.456  1.00  0.00    -0.092 C  
ENDROOT
BRANCH   2   3
HETATM    3  C   UNL     1      -6.202   9.112  72.076  1.00  0.00     0.018 C  
BRANCH   3   4
HETATM    4  C   UNL     1      -5.395   9.802  70.978  1.00  0.00    -0.058 C  
BRANCH   4   5
HETATM    5  C   UNL     1      -5.183  11.293  71.252  1.00  0.00    -0.061 C  
BRANCH   5   6
HETATM    6  C   UNL     1      -5.642  12.192  70.091  1.00  0.00    -0.140 C  
HETATM    7  O   UNL     1      -6.516  13.174  70.637  1.00  0.00    -0.446 OA 
HETATM    8  H   UNL     1      -6.800  13.730  69.920  1.00  0.00     0.000 HD 
BRANCH   6   9
HETATM    9  C   UNL     1      -6.323  11.420  68.982  1.00  0.00    -0.063 C  
HETATM   10  C   UNL     1      -5.733  10.748  67.980  1.00  0.00    -0.042 C  
BRANCH  10  11
HETATM   11  C   UNL     1      -6.477  10.131  66.815  1.00  0.00    -0.071 C  
HETATM   12  C   UNL     1      -5.555  10.059  65.580  1.00  0.00    -0.068 C  
HETATM   13  O   UNL     1      -5.464  11.308  64.908  1.00  0.00    -0.486 OA 
HETATM   14  C   UNL     1      -6.169   9.010  64.677  1.00  0.00    -0.066 C  
HETATM   15  H   UNL     1      -4.896  11.264  64.147  1.00  0.00     0.000 HD 
HETATM   16  C   UNL     1      -6.721   8.050  65.683  1.00  0.00    -0.048 C  
HETATM   17  O   UNL     1      -6.962   6.880  65.407  1.00  0.00    -0.056 OA 
HETATM   18  C   UNL     1      -6.955   8.676  67.049  1.00  0.00    -0.074 C  
BRANCH  18  19
HETATM   19  C   UNL     1      -8.435   8.633  67.472  1.00  0.00    -0.124 C  
BRANCH  19  20
HETATM   20  C   UNL     1      -9.157   9.983  67.363  1.00  0.00    -0.146 C  
BRANCH  20  21
HETATM   21  C   UNL     1     -10.670   9.842  67.548  1.00  0.00    -0.333 C  
BRANCH  21  22
HETATM   22  C   UNL     1     -11.179  10.783  68.645  1.00  0.00    -0.333 C  
BRANCH  22  23
HETATM   23  C   UNL     1     -11.165  12.240  68.182  1.00  0.00    -0.320 C  
BRANCH  23  24
HETATM   24  C   UNL     1     -11.623  12.375  66.729  1.00  0.00    -0.444 C  
HETATM   25  C   UNL     1     -12.147  13.763  66.437  1.00  0.00    -0.444 C  
HETATM   26  O   UNL     1     -12.208  14.680  67.238  1.00  0.00    -0.294 OA 
HETATM   27  O   UNL     1     -12.561  13.892  65.156  1.00  0.00    -0.533 OA 
ENDBRANCH  23  24
ENDBRANCH  22  23
ENDBRANCH  21  22
ENDBRANCH  20  21
ENDBRANCH  19  20
ENDBRANCH  18  19
ENDBRANCH  10  11
ENDBRANCH   6   9
ENDBRANCH   5   6
ENDBRANCH   4   5
ENDBRANCH   3   4
ENDBRANCH   2   3
TORSDOF 12
ENDMDL
MODEL      363
REMARK 921   NORMALIZED FREE ENERGY PREDICTED BY IDOCK:   -2.68 KCAL/MOL
REMARK 922        TOTAL FREE ENERGY PREDICTED BY IDOCK:   -6.52 KCAL/MOL
REMARK 923 INTER-LIGAND FREE ENERGY PREDICTED BY IDOCK:   -6.86 KCAL/MOL
REMARK 924 INTRA-LIGAND FREE ENERGY PREDICTED BY IDOCK:    0.34 KCAL/MOL
REMARK 927      BINDING AFFINITY PREDICTED BY RF-SCORE:    0.00 PKD
ROOT
HETATM    1  C   UNL     1     -13.630   8.035  72.094  1.00  0.00    -0.221 C  
HETATM    2  C   UNL     1     -12.554   9.061  71.786  1.00  0.00    -0.434 C  
ENDROOT
BRANCH   2   3
HETATM    3  C   UNL     1     -13.122  10.478  71.687  1.00  0.00    -0.551 C  
BRANCH   3   4
HETATM    4  C   UNL     1     -12.234  11.338  70.791  1.00  0.00    -0.479 C  
BRANCH   4   5
HETATM    5  C   UNL     1     -12.683  12.800  70.746  1.00  0.00    -0.217 C  
BRANCH   5   6
HETATM    6  C   UNL     1     -11.891  13.645  69.734  1.00  0.00    -0.327 C  
HETATM    7  O   UNL     1     -12.560  14.896  69.611  1.00  0.00    -0.565 OA 
HETATM    8  H   UNL     1     -12.071  15.418  68.985  1.00  0.00     0.000 HD 
BRANCH   6   9
HETATM    9  C   UNL     1     -11.753  12.973  68.385  1.00  0.00    -0.386 C  
HETATM   10  C   UNL     1     -11.327  11.723  68.140  1.00  0.00    -0.348 C  
BRANCH  10  11
HETATM   11  C   UNL     1     -11.063  11.168  66.757  1.00  0.00    -0.280 C  
HETATM   12  C   UNL     1     -10.560  12.292  65.826  1.00  0.00    -0.254 C  
HETATM   13  O   UNL     1     -11.623  13.101  65.341  1.00  0.00    -0.315 OA 
HETATM   14  C   UNL     1      -9.859  11.588  64.684  1.00  0.00    -0.283 C  
HETATM   15  H   UNL     1     -11.312  13.792  64.768  1.00  0.00     0.000 HD 
HETATM   16  C   UNL     1      -9.266  10.409  65.391  1.00  0.00    -0.193 C  
HETATM   17  O   UNL     1      -8.312   9.786  64.939  1.00  0.00    -0.131 OA 
HETATM   18  C   UNL     1      -9.972  10.072  66.696  1.00  0.00    -0.274 C  
BRANCH  18  19
HETATM   19  C   UNL     1     -10.592   8.662  66.683  1.00  0.00    -0.131 C  
BRANCH  19  20
HETATM   20  C   UNL     1      -9.565   7.527  66.584  1.00  0.00    -0.263 C  
BRANCH  20  21
HETATM   21  C   UNL     1     -10.197   6.155  66.834  1.00  0.00    -0.263 C  
BRANCH  21  22
HETATM   22  C   UNL     1     -11.384   6.265  67.796  1.00  0.00     0.004 C  
BRANCH  22  23
HETATM   23  C   UNL     1     -10.915   6.447  69.240  1.00  0.00    -0.418 C  
BRANCH  23  24
HETATM   24  C   UNL     1      -9.390   6.402  69.350  1.00  0.00    -0.143 C  
HETATM   25  C   UNL     1      -8.858   7.549  70.179  1.00  0.00    -0.147 C  
HETATM   26  O   UNL     1      -9.534   8.415  70.708  1.00  0.00    -0.159 OA 
HETATM   27  O   UNL     1      -7.510   7.522  70.278  1.00  0.00    -0.081 OA 
ENDBRANCH  23  24
ENDBRANCH  22  23
ENDBRANCH  21  22
ENDBRANCH  20  21
ENDBRANCH  19  20
ENDBRANCH  18  19
ENDBRANCH  10  11
ENDBRANCH   6   9
ENDBRANCH   5   6
ENDBRANCH   4   5
ENDBRANCH   3   4
ENDBRANCH   2   3
TORSDOF 12
ENDMDL
MODEL      364
REMARK 921   NORMALIZED FREE ENERGY PREDICTED BY IDOCK:   -2.67 KCAL/MOL
REMARK 922        TOTAL FREE ENERGY PREDICTED BY IDOCK:   -6.50 KCAL/MOL
REMARK 923 INTER-LIGAND FREE ENERGY PREDICTED BY IDOCK:   -5.40 KCAL/MOL
REMARK 924 INTRA-LIGAND FREE ENERGY PREDICTED BY IDOCK:   -1.10 KCAL/MOL
REMARK 927      BINDING AFFINITY PREDICTED BY RF-SCORE:    0.00 PKD
ROOT
HETATM    1  C   UNL     1      -9.225  17.632  68.188  1.00  0.00    -0.282 C  
HETATM    2  C   UNL     1      -8.969  16.891  66.888  1.00  0.00    -0.244 C  
ENDROOT
BRANCH   2   3
HETATM    3  C   UNL     1     -10.258  16.333  66.281  1.00  0.00    -0.339 C  
BRANCH   3   4
HETATM    4  C   UNL     1     -10.811  15.214  67.163  1.00  0.00    -0.320 C  
BRANCH   4   5
HETATM    5  C   UNL     1     -11.218  13.978  66.358  1.00  0.00    -0.321 C  
BRANCH   5   6
HETATM    6  C   UNL     1     -11.271  12.695  67.205  1.00  0.00    -0.298 C  
HETATM    7  O   UNL     1     -10.766  13.020  68.496  1.00  0.00    -0.243 OA 
HETATM    8  H   UNL     1     -10.798  12.228  69.020  1.00  0.00     0.000 HD 
BRANCH   6   9
HETATM    9  C   UNL     1     -10.490  11.553  66.593  1.00  0.00    -0.277 C  
HETATM   10  C   UNL     1      -9.798  11.566  65.442  1.00  0.00    -0.271 C  
BRANCH  10  11
HETATM   11  C   UNL     1      -9.171  10.341  64.811  1.00  0.00    -0.287 C  
HETATM   12  C   UNL     1      -8.930  10.590  63.307  1.00  0.00    -0.229 C  
HETATM   13  O   UNL     1     -10.115  10.425  62.541  1.00  0.00    -0.728 OA 
HETATM   14  C   UNL     1      -7.881   9.579  62.893  1.00  0.00    -0.124 C  
HETATM   15  H   UNL     1      -9.966  10.577  61.615  1.00  0.00     0.000 HD 
HETATM   16  C   UNL     1      -7.048   9.503  64.134  1.00  0.00    -0.112 C  
HETATM   17  O   UNL     1      -5.888   9.105  64.120  1.00  0.00    -0.069 OA 
HETATM   18  C   UNL     1      -7.787   9.953  65.385  1.00  0.00    -0.132 C  
BRANCH  18  19
HETATM   19  C   UNL     1      -7.908   8.831  66.434  1.00  0.00    -0.099 C  
BRANCH  19  20
HETATM   20  C   UNL     1      -8.055   7.427  65.833  1.00  0.00    -0.128 C  
BRANCH  20  21
HETATM   21  C   UNL     1      -9.136   6.608  66.543  1.00  0.00    -0.167 C  
BRANCH  21  22
HETATM   22  C   UNL     1      -8.575   5.271  67.038  1.00  0.00    -0.105 C  
BRANCH  22  23
HETATM   23  C   UNL     1      -9.529   4.117  66.727  1.00  0.00    -0.211 C  
BRANCH  23  24
HETATM   24  C   UNL     1      -8.967   3.196  65.642  1.00  0.00    -0.145 C  
HETATM   25  C   UNL     1      -9.540   3.525  64.282  1.00  0.00    -0.160 C  
HETATM   26  O   UNL     1     -10.347   4.408  64.048  1.00  0.00    -0.012 OA 
HETATM   27  O   UNL     1      -9.054   2.713  63.316  1.00  0.00    -0.091 OA 
ENDBRANCH  23  24
ENDBRANCH  22  23
ENDBRANCH  21  22
ENDBRANCH  20  21
ENDBRANCH  19  20
ENDBRANCH  18  19
ENDBRANCH  10  11
ENDBRANCH   6   9
ENDBRANCH   5   6
ENDBRANCH   4   5
ENDBRANCH   3   4
ENDBRANCH   2   3
TORSDOF 12
ENDMDL
MODEL      365
REMARK 921   NORMALIZED FREE ENERGY PREDICTED BY IDOCK:   -2.66 KCAL/MOL
REMARK 922        TOTAL FREE ENERGY PREDICTED BY IDOCK:   -6.48 KCAL/MOL
REMARK 923 INTER-LIGAND FREE ENERGY PREDICTED BY IDOCK:   -4.70 KCAL/MOL
REMARK 924 INTRA-LIGAND FREE ENERGY PREDICTED BY IDOCK:   -1.77 KCAL/MOL
REMARK 927      BINDING AFFINITY PREDICTED BY RF-SCORE:    0.00 PKD
ROOT
HETATM    1  C   UNL     1      -6.328   9.043  73.545  1.00  0.00     0.126 C  
HETATM    2  C   UNL     1      -6.433   7.550  73.290  1.00  0.00    -0.065 C  
ENDROOT
BRANCH   2   3
HETATM    3  C   UNL     1      -5.521   7.097  72.148  1.00  0.00    -0.037 C  
BRANCH   3   4
HETATM    4  C   UNL     1      -6.173   5.950  71.380  1.00  0.00    -0.043 C  
BRANCH   4   5
HETATM    5  C   UNL     1      -6.979   6.433  70.172  1.00  0.00    -0.063 C  
BRANCH   5   6
HETATM    6  C   UNL     1      -8.216   7.261  70.562  1.00  0.00    -0.124 C  
HETATM    7  O   UNL     1      -9.341   6.390  70.508  1.00  0.00    -0.161 OA 
HETATM    8  H   UNL     1     -10.106   6.902  70.749  1.00  0.00     0.000 HD 
BRANCH   6   9
HETATM    9  C   UNL     1      -8.423   8.466  69.671  1.00  0.00    -0.127 C  
HETATM   10  C   UNL     1      -8.957   9.649  70.016  1.00  0.00    -0.266 C  
BRANCH  10  11
HETATM   11  C   UNL     1      -9.280  10.757  69.036  1.00  0.00    -0.157 C  
HETATM   12  C   UNL     1      -8.090  10.974  68.077  1.00  0.00    -0.121 C  
HETATM   13  O   UNL     1      -7.058  11.750  68.673  1.00  0.00    -0.088 OA 
HETATM   14  C   UNL     1      -8.666  11.686  66.872  1.00  0.00    -0.185 C  
HETATM   15  H   UNL     1      -6.326  11.884  68.083  1.00  0.00     0.000 HD 
HETATM   16  C   UNL     1     -10.029  11.072  66.798  1.00  0.00    -0.203 C  
HETATM   17  O   UNL     1     -10.690  11.070  65.766  1.00  0.00    -0.228 OA 
HETATM   18  C   UNL     1     -10.494  10.475  68.117  1.00  0.00    -0.217 C  
BRANCH  18  19
HETATM   19  C   UNL     1     -11.771  11.151  68.652  1.00  0.00    -0.389 C  
BRANCH  19  20
HETATM   20  C   UNL     1     -11.624  11.738  70.062  1.00  0.00    -0.318 C  
BRANCH  20  21
HETATM   21  C   UNL     1     -12.173  10.797  71.138  1.00  0.00    -0.457 C  
BRANCH  21  22
HETATM   22  C   UNL     1     -13.268   9.891  70.567  1.00  0.00    -0.007 C  
BRANCH  22  23
HETATM   23  C   UNL     1     -13.847   8.970  71.641  1.00  0.00    -0.422 C  
BRANCH  23  24
HETATM   24  C   UNL     1     -12.757   8.419  72.561  1.00  0.00    -0.286 C  
HETATM   25  C   UNL     1     -12.161   7.141  72.015  1.00  0.00    -0.278 C  
HETATM   26  O   UNL     1     -12.487   6.595  70.975  1.00  0.00    -0.328 OA 
HETATM   27  O   UNL     1     -11.200   6.642  72.825  1.00  0.00    -0.261 OA 
ENDBRANCH  23  24
ENDBRANCH  22  23
ENDBRANCH  21  22
ENDBRANCH  20  21
ENDBRANCH  19  20
ENDBRANCH  18  19
ENDBRANCH  10  11
ENDBRANCH   6   9
ENDBRANCH   5   6
ENDBRANCH   4   5
ENDBRANCH   3   4
ENDBRANCH   2   3
TORSDOF 12
ENDMDL
MODEL      366
REMARK 921   NORMALIZED FREE ENERGY PREDICTED BY IDOCK:   -2.64 KCAL/MOL
REMARK 922        TOTAL FREE ENERGY PREDICTED BY IDOCK:   -6.44 KCAL/MOL
REMARK 923 INTER-LIGAND FREE ENERGY PREDICTED BY IDOCK:   -5.14 KCAL/MOL
REMARK 924 INTRA-LIGAND FREE ENERGY PREDICTED BY IDOCK:   -1.30 KCAL/MOL
REMARK 927      BINDING AFFINITY PREDICTED BY RF-SCORE:    0.00 PKD
ROOT
HETATM    1  C   UNL     1      -9.034  19.461  68.167  1.00  0.00    -0.375 C  
HETATM    2  C   UNL     1     -10.210  19.315  67.218  1.00  0.00    -0.512 C  
ENDROOT
BRANCH   2   3
HETATM    3  C   UNL     1     -10.013  18.161  66.233  1.00  0.00    -0.342 C  
BRANCH   3   4
HETATM    4  C   UNL     1      -8.605  17.584  66.377  1.00  0.00    -0.273 C  
BRANCH   4   5
HETATM    5  C   UNL     1      -8.606  16.062  66.534  1.00  0.00    -0.344 C  
BRANCH   5   6
HETATM    6  C   UNL     1      -9.559  15.568  67.635  1.00  0.00    -0.210 C  
HETATM    7  O   UNL     1      -9.177  16.213  68.846  1.00  0.00    -0.211 OA 
HETATM    8  H   UNL     1      -9.766  15.908  69.527  1.00  0.00     0.000 HD 
BRANCH   6   9
HETATM    9  C   UNL     1      -9.544  14.064  67.798  1.00  0.00    -0.216 C  
HETATM   10  C   UNL     1      -9.184  13.152  66.880  1.00  0.00    -0.236 C  
BRANCH  10  11
HETATM   11  C   UNL     1      -9.343  11.657  67.057  1.00  0.00    -0.186 C  
HETATM   12  C   UNL     1     -10.507  11.144  66.183  1.00  0.00    -0.253 C  
HETATM   13  O   UNL     1     -11.773  11.388  66.781  1.00  0.00    -0.474 OA 
HETATM   14  C   UNL     1     -10.269   9.658  66.023  1.00  0.00    -0.255 C  
HETATM   15  H   UNL     1     -12.489  11.072  66.243  1.00  0.00     0.000 HD 
HETATM   16  C   UNL     1      -8.773   9.607  65.987  1.00  0.00    -0.138 C  
HETATM   17  O   UNL     1      -8.162   8.665  65.495  1.00  0.00    -0.119 OA 
HETATM   18  C   UNL     1      -8.114  10.820  66.626  1.00  0.00    -0.142 C  
BRANCH  18  19
HETATM   19  C   UNL     1      -7.238  10.445  67.837  1.00  0.00    -0.085 C  
BRANCH  19  20
HETATM   20  C   UNL     1      -8.031   9.934  69.048  1.00  0.00    -0.101 C  
BRANCH  20  21
HETATM   21  C   UNL     1      -7.458   8.626  69.601  1.00  0.00    -0.068 C  
BRANCH  21  22
HETATM   22  C   UNL     1      -7.565   7.501  68.567  1.00  0.00    -0.114 C  
BRANCH  22  23
HETATM   23  C   UNL     1      -8.330   6.301  69.127  1.00  0.00    -0.120 C  
BRANCH  23  24
HETATM   24  C   UNL     1      -7.412   5.361  69.911  1.00  0.00    -0.069 C  
HETATM   25  C   UNL     1      -7.874   5.198  71.341  1.00  0.00    -0.107 C  
HETATM   26  O   UNL     1      -8.851   5.733  71.836  1.00  0.00    -0.138 OA 
HETATM   27  O   UNL     1      -7.066   4.373  72.046  1.00  0.00    -0.055 OA 
ENDBRANCH  23  24
ENDBRANCH  22  23
ENDBRANCH  21  22
ENDBRANCH  20  21
ENDBRANCH  19  20
ENDBRANCH  18  19
ENDBRANCH  10  11
ENDBRANCH   6   9
ENDBRANCH   5   6
ENDBRANCH   4   5
ENDBRANCH   3   4
ENDBRANCH   2   3
TORSDOF 12
ENDMDL
MODEL      367
REMARK 921   NORMALIZED FREE ENERGY PREDICTED BY IDOCK:   -2.61 KCAL/MOL
REMARK 922        TOTAL FREE ENERGY PREDICTED BY IDOCK:   -6.39 KCAL/MOL
REMARK 923 INTER-LIGAND FREE ENERGY PREDICTED BY IDOCK:   -4.57 KCAL/MOL
REMARK 924 INTRA-LIGAND FREE ENERGY PREDICTED BY IDOCK:   -1.83 KCAL/MOL
REMARK 927      BINDING AFFINITY PREDICTED BY RF-SCORE:    0.00 PKD
ROOT
HETATM    1  C   UNL     1      -9.357   2.507  70.408  1.00  0.00    -0.204 C  
HETATM    2  C   UNL     1      -8.081   1.769  70.045  1.00  0.00    -0.056 C  
ENDROOT
BRANCH   2   3
HETATM    3  C   UNL     1      -7.204   2.577  69.086  1.00  0.00    -0.044 C  
BRANCH   3   4
HETATM    4  C   UNL     1      -8.078   3.437  68.175  1.00  0.00    -0.079 C  
BRANCH   4   5
HETATM    5  C   UNL     1      -7.666   3.342  66.704  1.00  0.00    -0.077 C  
BRANCH   5   6
HETATM    6  C   UNL     1      -8.393   4.357  65.806  1.00  0.00    -0.113 C  
HETATM    7  O   UNL     1      -7.595   4.538  64.640  1.00  0.00    -0.071 OA 
HETATM    8  H   UNL     1      -8.045   5.166  64.085  1.00  0.00     0.000 HD 
BRANCH   6   9
HETATM    9  C   UNL     1      -8.646   5.679  66.496  1.00  0.00    -0.119 C  
HETATM   10  C   UNL     1      -9.437   6.679  66.073  1.00  0.00     0.014 C  
BRANCH  10  11
HETATM   11  C   UNL     1      -9.521   8.037  66.735  1.00  0.00    -0.259 C  
HETATM   12  C   UNL     1      -9.710   7.871  68.257  1.00  0.00    -0.160 C  
HETATM   13  O   UNL     1     -11.058   7.579  68.600  1.00  0.00    -0.431 OA 
HETATM   14  C   UNL     1      -9.277   9.188  68.865  1.00  0.00    -0.139 C  
HETATM   15  H   UNL     1     -11.173   7.476  69.538  1.00  0.00     0.000 HD 
HETATM   16  C   UNL     1      -8.169   9.583  67.940  1.00  0.00    -0.114 C  
HETATM   17  O   UNL     1      -7.294  10.377  68.268  1.00  0.00    -0.085 OA 
HETATM   18  C   UNL     1      -8.254   8.914  66.577  1.00  0.00    -0.114 C  
BRANCH  18  19
HETATM   19  C   UNL     1      -8.414   9.930  65.430  1.00  0.00    -0.155 C  
BRANCH  19  20
HETATM   20  C   UNL     1      -9.852  10.064  64.909  1.00  0.00    -0.352 C  
BRANCH  20  21
HETATM   21  C   UNL     1     -10.336  11.516  64.926  1.00  0.00    -0.340 C  
BRANCH  21  22
HETATM   22  C   UNL     1      -9.747  12.277  66.118  1.00  0.00    -0.256 C  
BRANCH  22  23
HETATM   23  C   UNL     1     -10.841  12.739  67.081  1.00  0.00    -0.282 C  
BRANCH  23  24
HETATM   24  C   UNL     1     -11.646  11.559  67.629  1.00  0.00    -0.320 C  
HETATM   25  C   UNL     1     -11.924  11.714  69.108  1.00  0.00    -0.313 C  
HETATM   26  O   UNL     1     -11.566  12.650  69.802  1.00  0.00    -0.274 OA 
HETATM   27  O   UNL     1     -12.630  10.673  69.604  1.00  0.00    -0.222 OA 
ENDBRANCH  23  24
ENDBRANCH  22  23
ENDBRANCH  21  22
ENDBRANCH  20  21
ENDBRANCH  19  20
ENDBRANCH  18  19
ENDBRANCH  10  11
ENDBRANCH   6   9
ENDBRANCH   5   6
ENDBRANCH   4   5
ENDBRANCH   3   4
ENDBRANCH   2   3
TORSDOF 12
ENDMDL
MODEL      368
REMARK 921   NORMALIZED FREE ENERGY PREDICTED BY IDOCK:   -2.41 KCAL/MOL
REMARK 922        TOTAL FREE ENERGY PREDICTED BY IDOCK:   -6.05 KCAL/MOL
REMARK 923 INTER-LIGAND FREE ENERGY PREDICTED BY IDOCK:   -4.15 KCAL/MOL
REMARK 924 INTRA-LIGAND FREE ENERGY PREDICTED BY IDOCK:   -1.90 KCAL/MOL
REMARK 927      BINDING AFFINITY PREDICTED BY RF-SCORE:    0.00 PKD
ROOT
HETATM    1  C   UNL     1     -10.718   3.155  62.709  1.00  0.00    -0.187 C  
HETATM    2  C   UNL     1     -10.365   3.703  64.081  1.00  0.00    -0.250 C  
ENDROOT
BRANCH   2   3
HETATM    3  C   UNL     1      -9.177   2.968  64.704  1.00  0.00    -0.144 C  
BRANCH   3   4
HETATM    4  C   UNL     1      -9.063   3.317  66.187  1.00  0.00    -0.156 C  
BRANCH   4   5
HETATM    5  C   UNL     1      -7.793   2.753  66.829  1.00  0.00    -0.076 C  
BRANCH   5   6
HETATM    6  C   UNL     1      -6.800   3.845  67.263  1.00  0.00    -0.051 C  
HETATM    7  O   UNL     1      -5.529   3.223  67.416  1.00  0.00    -0.018 OA 
HETATM    8  H   UNL     1      -4.915   3.897  67.685  1.00  0.00     0.000 HD 
BRANCH   6   9
HETATM    9  C   UNL     1      -7.215   4.546  68.538  1.00  0.00    -0.060 C  
HETATM   10  C   UNL     1      -7.825   4.000  69.603  1.00  0.00    -0.052 C  
BRANCH  10  11
HETATM   11  C   UNL     1      -8.353   4.792  70.781  1.00  0.00    -0.096 C  
HETATM   12  C   UNL     1      -9.778   4.317  71.137  1.00  0.00    -0.189 C  
HETATM   13  O   UNL     1     -10.759   4.875  70.274  1.00  0.00    -0.095 OA 
HETATM   14  C   UNL     1     -10.007   4.764  72.566  1.00  0.00    -0.216 C  
HETATM   15  H   UNL     1     -11.636   4.583  70.494  1.00  0.00     0.000 HD 
HETATM   16  C   UNL     1      -8.632   4.616  73.139  1.00  0.00    -0.102 C  
HETATM   17  O   UNL     1      -8.434   4.502  74.343  1.00  0.00    -0.099 OA 
HETATM   18  C   UNL     1      -7.535   4.635  72.086  1.00  0.00    -0.082 C  
BRANCH  18  19
HETATM   19  C   UNL     1      -6.554   5.807  72.277  1.00  0.00    -0.062 C  
BRANCH  19  20
HETATM   20  C   UNL     1      -7.107   7.166  71.827  1.00  0.00    -0.068 C  
BRANCH  20  21
HETATM   21  C   UNL     1      -7.302   8.126  73.004  1.00  0.00    -0.161 C  
BRANCH  21  22
HETATM   22  C   UNL     1      -8.763   8.137  73.466  1.00  0.00    -0.317 C  
BRANCH  22  23
HETATM   23  C   UNL     1      -9.683   8.716  72.391  1.00  0.00    -0.313 C  
BRANCH  23  24
HETATM   24  C   UNL     1     -11.115   8.197  72.534  1.00  0.00    -0.446 C  
HETATM   25  C   UNL     1     -11.656   7.686  71.218  1.00  0.00    -0.278 C  
HETATM   26  O   UNL     1     -11.051   7.674  70.160  1.00  0.00    -0.257 OA 
HETATM   27  O   UNL     1     -12.924   7.230  71.332  1.00  0.00    -0.371 OA 
ENDBRANCH  23  24
ENDBRANCH  22  23
ENDBRANCH  21  22
ENDBRANCH  20  21
ENDBRANCH  19  20
ENDBRANCH  18  19
ENDBRANCH  10  11
ENDBRANCH   6   9
ENDBRANCH   5   6
ENDBRANCH   4   5
ENDBRANCH   3   4
ENDBRANCH   2   3
TORSDOF 12
ENDMDL
MODEL      369
REMARK 921   NORMALIZED FREE ENERGY PREDICTED BY IDOCK:   -2.29 KCAL/MOL
REMARK 922        TOTAL FREE ENERGY PREDICTED BY IDOCK:   -5.85 KCAL/MOL
REMARK 923 INTER-LIGAND FREE ENERGY PREDICTED BY IDOCK:   -4.96 KCAL/MOL
REMARK 924 INTRA-LIGAND FREE ENERGY PREDICTED BY IDOCK:   -0.89 KCAL/MOL
REMARK 927      BINDING AFFINITY PREDICTED BY RF-SCORE:    0.00 PKD
ROOT
HETATM    1  C   UNL     1      -8.496   7.375  65.788  1.00  0.00    -0.149 C  
HETATM    2  C   UNL     1      -8.650   5.963  65.251  1.00  0.00    -0.119 C  
ENDROOT
BRANCH   2   3
HETATM    3  C   UNL     1      -9.197   5.003  66.310  1.00  0.00    -0.144 C  
BRANCH   3   4
HETATM    4  C   UNL     1      -8.287   3.782  66.430  1.00  0.00    -0.105 C  
BRANCH   4   5
HETATM    5  C   UNL     1      -7.066   4.043  67.315  1.00  0.00    -0.063 C  
BRANCH   5   6
HETATM    6  C   UNL     1      -6.893   2.999  68.431  1.00  0.00    -0.048 C  
HETATM    7  O   UNL     1      -7.443   1.775  67.954  1.00  0.00    -0.052 OA 
HETATM    8  H   UNL     1      -7.337   1.130  68.644  1.00  0.00     0.000 HD 
BRANCH   6   9
HETATM    9  C   UNL     1      -7.547   3.413  69.732  1.00  0.00    -0.044 C  
HETATM   10  C   UNL     1      -7.712   4.662  70.196  1.00  0.00    -0.054 C  
BRANCH  10  11
HETATM   11  C   UNL     1      -8.233   4.995  71.578  1.00  0.00    -0.114 C  
HETATM   12  C   UNL     1      -7.075   5.484  72.473  1.00  0.00    -0.084 C  
HETATM   13  O   UNL     1      -6.301   4.407  72.984  1.00  0.00    -0.032 OA 
HETATM   14  C   UNL     1      -7.732   6.251  73.601  1.00  0.00    -0.093 C  
HETATM   15  H   UNL     1      -5.589   4.709  73.535  1.00  0.00     0.000 HD 
HETATM   16  C   UNL     1      -8.897   6.866  72.892  1.00  0.00    -0.126 C  
HETATM   17  O   UNL     1      -9.474   7.860  73.320  1.00  0.00    -0.255 OA 
HETATM   18  C   UNL     1      -9.284   6.131  71.617  1.00  0.00    -0.150 C  
BRANCH  18  19
HETATM   19  C   UNL     1     -10.717   5.568  71.673  1.00  0.00    -0.296 C  
BRANCH  19  20
HETATM   20  C   UNL     1     -11.730   6.502  72.350  1.00  0.00    -0.271 C  
BRANCH  20  21
HETATM   21  C   UNL     1     -12.350   7.492  71.361  1.00  0.00    -0.374 C  
BRANCH  21  22
HETATM   22  C   UNL     1     -12.878   8.734  72.086  1.00  0.00    -0.456 C  
BRANCH  22  23
HETATM   23  C   UNL     1     -12.841   9.965  71.181  1.00  0.00    -0.461 C  
BRANCH  23  24
HETATM   24  C   UNL     1     -11.415  10.308  70.749  1.00  0.00    -0.438 C  
HETATM   25  C   UNL     1     -11.386  10.947  69.379  1.00  0.00    -0.280 C  
HETATM   26  O   UNL     1     -12.360  11.175  68.683  1.00  0.00    -0.549 OA 
HETATM   27  O   UNL     1     -10.128  11.248  68.985  1.00  0.00    -0.198 OA 
ENDBRANCH  23  24
ENDBRANCH  22  23
ENDBRANCH  21  22
ENDBRANCH  20  21
ENDBRANCH  19  20
ENDBRANCH  18  19
ENDBRANCH  10  11
ENDBRANCH   6   9
ENDBRANCH   5   6
ENDBRANCH   4   5
ENDBRANCH   3   4
ENDBRANCH   2   3
TORSDOF 12
ENDMDL
MODEL      370
REMARK 921   NORMALIZED FREE ENERGY PREDICTED BY IDOCK:   -2.16 KCAL/MOL
REMARK 922        TOTAL FREE ENERGY PREDICTED BY IDOCK:   -5.63 KCAL/MOL
REMARK 923 INTER-LIGAND FREE ENERGY PREDICTED BY IDOCK:   -4.04 KCAL/MOL
REMARK 924 INTRA-LIGAND FREE ENERGY PREDICTED BY IDOCK:   -1.58 KCAL/MOL
REMARK 927      BINDING AFFINITY PREDICTED BY RF-SCORE:    0.00 PKD
ROOT
HETATM    1  C   UNL     1      -7.106  15.399  67.341  1.00  0.00    -0.229 C  
HETATM    2  C   UNL     1      -7.709  14.180  68.016  1.00  0.00    -0.147 C  
ENDROOT
BRANCH   2   3
HETATM    3  C   UNL     1      -7.833  12.995  67.056  1.00  0.00     0.015 C  
BRANCH   3   4
HETATM    4  C   UNL     1      -7.831  11.683  67.839  1.00  0.00    -0.129 C  
BRANCH   4   5
HETATM    5  C   UNL     1      -6.477  11.390  68.490  1.00  0.00    -0.056 C  
BRANCH   5   6
HETATM    6  C   UNL     1      -6.116   9.894  68.485  1.00  0.00    -0.045 C  
HETATM    7  O   UNL     1      -6.109   9.466  67.127  1.00  0.00    -0.061 OA 
HETATM    8  H   UNL     1      -5.886   8.542  67.124  1.00  0.00     0.000 HD 
BRANCH   6   9
HETATM    9  C   UNL     1      -7.067   9.055  69.310  1.00  0.00    -0.058 C  
HETATM   10  C   UNL     1      -7.099   8.943  70.648  1.00  0.00    -0.071 C  
BRANCH  10  11
HETATM   11  C   UNL     1      -7.975   7.964  71.400  1.00  0.00    -0.099 C  
HETATM   12  C   UNL     1      -7.480   7.825  72.855  1.00  0.00    -0.104 C  
HETATM   13  O   UNL     1      -6.358   6.958  72.958  1.00  0.00    -0.060 OA 
HETATM   14  C   UNL     1      -8.656   7.270  73.631  1.00  0.00    -0.193 C  
HETATM   15  H   UNL     1      -6.054   6.873  73.854  1.00  0.00     0.000 HD 
HETATM   16  C   UNL     1      -9.802   7.926  72.927  1.00  0.00    -0.282 C  
HETATM   17  O   UNL     1     -10.901   8.064  73.452  1.00  0.00    -0.163 OA 
HETATM   18  C   UNL     1      -9.461   8.381  71.516  1.00  0.00    -0.267 C  
BRANCH  18  19
HETATM   19  C   UNL     1     -10.325   7.684  70.447  1.00  0.00    -0.214 C  
BRANCH  19  20
HETATM   20  C   UNL     1     -11.371   8.597  69.794  1.00  0.00     0.112 C  
BRANCH  20  21
HETATM   21  C   UNL     1     -11.752   9.773  70.698  1.00  0.00    -0.377 C  
BRANCH  21  22
HETATM   22  C   UNL     1     -12.223  10.972  69.869  1.00  0.00    -0.408 C  
BRANCH  22  23
HETATM   23  C   UNL     1     -11.411  12.227  70.192  1.00  0.00    -0.036 C  
BRANCH  23  24
HETATM   24  C   UNL     1     -11.417  13.219  69.027  1.00  0.00    -0.350 C  
HETATM   25  C   UNL     1     -11.208  14.638  69.504  1.00  0.00    -0.269 C  
HETATM   26  O   UNL     1     -11.049  14.980  70.664  1.00  0.00    -0.260 OA 
HETATM   27  O   UNL     1     -11.217  15.525  68.483  1.00  0.00    -0.295 OA 
ENDBRANCH  23  24
ENDBRANCH  22  23
ENDBRANCH  21  22
ENDBRANCH  20  21
ENDBRANCH  19  20
ENDBRANCH  18  19
ENDBRANCH  10  11
ENDBRANCH   6   9
ENDBRANCH   5   6
ENDBRANCH   4   5
ENDBRANCH   3   4
ENDBRANCH   2   3
TORSDOF 12
ENDMDL
MODEL      371
REMARK 921   NORMALIZED FREE ENERGY PREDICTED BY IDOCK:   -2.13 KCAL/MOL
REMARK 922        TOTAL FREE ENERGY PREDICTED BY IDOCK:   -5.57 KCAL/MOL
REMARK 923 INTER-LIGAND FREE ENERGY PREDICTED BY IDOCK:   -4.39 KCAL/MOL
REMARK 924 INTRA-LIGAND FREE ENERGY PREDICTED BY IDOCK:   -1.18 KCAL/MOL
REMARK 927      BINDING AFFINITY PREDICTED BY RF-SCORE:    0.00 PKD
ROOT
HETATM    1  C   UNL     1      -6.577   9.296  71.368  1.00  0.00    -0.027 C  
HETATM    2  C   UNL     1      -7.291   8.053  71.867  1.00  0.00    -0.089 C  
ENDROOT
BRANCH   2   3
HETATM    3  C   UNL     1      -7.907   8.263  73.252  1.00  0.00    -0.195 C  
BRANCH   3   4
HETATM    4  C   UNL     1      -9.426   8.383  73.138  1.00  0.00    -0.180 C  
BRANCH   4   5
HETATM    5  C   UNL     1     -10.144   7.062  73.426  1.00  0.00    -0.320 C  
BRANCH   5   6
HETATM    6  C   UNL     1     -10.733   6.407  72.165  1.00  0.00    -0.227 C  
HETATM    7  O   UNL     1     -11.195   5.112  72.538  1.00  0.00    -0.226 OA 
HETATM    8  H   UNL     1     -11.559   4.707  71.759  1.00  0.00     0.000 HD 
BRANCH   6   9
HETATM    9  C   UNL     1      -9.739   6.317  71.028  1.00  0.00    -0.196 C  
HETATM   10  C   UNL     1      -9.936   6.671  69.748  1.00  0.00    -0.189 C  
BRANCH  10  11
HETATM   11  C   UNL     1      -8.949   6.407  68.630  1.00  0.00    -0.125 C  
HETATM   12  C   UNL     1      -9.365   5.143  67.848  1.00  0.00    -0.120 C  
HETATM   13  O   UNL     1      -8.982   3.950  68.518  1.00  0.00    -0.102 OA 
HETATM   14  C   UNL     1      -8.670   5.250  66.507  1.00  0.00    -0.115 C  
HETATM   15  H   UNL     1      -9.238   3.172  68.036  1.00  0.00     0.000 HD 
HETATM   16  C   UNL     1      -8.699   6.729  66.284  1.00  0.00    -0.146 C  
HETATM   17  O   UNL     1      -8.591   7.225  65.168  1.00  0.00    -0.070 OA 
HETATM   18  C   UNL     1      -8.860   7.530  67.567  1.00  0.00    -0.127 C  
BRANCH  18  19
HETATM   19  C   UNL     1      -7.663   8.462  67.835  1.00  0.00    -0.103 C  
BRANCH  19  20
HETATM   20  C   UNL     1      -7.891   9.915  67.398  1.00  0.00    -0.098 C  
BRANCH  20  21
HETATM   21  C   UNL     1      -8.070  10.854  68.594  1.00  0.00    -0.143 C  
BRANCH  21  22
HETATM   22  C   UNL     1      -7.975  12.320  68.160  1.00  0.00    -0.155 C  
BRANCH  22  23
HETATM   23  C   UNL     1      -9.299  12.816  67.579  1.00  0.00    -0.189 C  
BRANCH  23  24
HETATM   24  C   UNL     1      -9.810  14.057  68.314  1.00  0.00    -0.233 C  
HETATM   25  C   UNL     1     -11.224  14.402  67.907  1.00  0.00    -0.286 C  
HETATM   26  O   UNL     1     -11.900  13.787  67.099  1.00  0.00    -0.363 OA 
HETATM   27  O   UNL     1     -11.684  15.502  68.546  1.00  0.00    -0.363 OA 
ENDBRANCH  23  24
ENDBRANCH  22  23
ENDBRANCH  21  22
ENDBRANCH  20  21
ENDBRANCH  19  20
ENDBRANCH  18  19
ENDBRANCH  10  11
ENDBRANCH   6   9
ENDBRANCH   5   6
ENDBRANCH   4   5
ENDBRANCH   3   4
ENDBRANCH   2   3
TORSDOF 12
ENDMDL
MODEL      372
REMARK 921   NORMALIZED FREE ENERGY PREDICTED BY IDOCK:   -2.04 KCAL/MOL
REMARK 922        TOTAL FREE ENERGY PREDICTED BY IDOCK:   -5.42 KCAL/MOL
REMARK 923 INTER-LIGAND FREE ENERGY PREDICTED BY IDOCK:   -4.67 KCAL/MOL
REMARK 924 INTRA-LIGAND FREE ENERGY PREDICTED BY IDOCK:   -0.75 KCAL/MOL
REMARK 927      BINDING AFFINITY PREDICTED BY RF-SCORE:    0.00 PKD
ROOT
HETATM    1  C   UNL     1     -12.470  12.600  65.031  1.00  0.00    -0.556 C  
HETATM    2  C   UNL     1     -11.683  13.437  66.023  1.00  0.00    -0.398 C  
ENDROOT
BRANCH   2   3
HETATM    3  C   UNL     1     -11.560  14.895  65.573  1.00  0.00    -0.263 C  
BRANCH   3   4
HETATM    4  C   UNL     1     -10.091  15.253  65.351  1.00  0.00    -0.397 C  
BRANCH   4   5
HETATM    5  C   UNL     1      -9.489  16.024  66.528  1.00  0.00    -0.297 C  
BRANCH   5   6
HETATM    6  C   UNL     1      -9.510  15.230  67.845  1.00  0.00    -0.197 C  
HETATM    7  O   UNL     1      -9.625  16.173  68.906  1.00  0.00    -0.222 OA 
HETATM    8  H   UNL     1      -9.638  15.683  69.720  1.00  0.00     0.000 HD 
BRANCH   6   9
HETATM    9  C   UNL     1      -8.285  14.361  68.028  1.00  0.00    -0.149 C  
HETATM   10  C   UNL     1      -8.011  13.202  67.406  1.00  0.00    -0.174 C  
BRANCH  10  11
HETATM   11  C   UNL     1      -6.843  12.305  67.753  1.00  0.00    -0.109 C  
HETATM   12  C   UNL     1      -6.335  12.627  69.174  1.00  0.00    -0.099 C  
HETATM   13  O   UNL     1      -5.505  13.780  69.197  1.00  0.00    -0.076 OA 
HETATM   14  C   UNL     1      -5.562  11.402  69.615  1.00  0.00    -0.064 C  
HETATM   15  H   UNL     1      -5.192  13.978  70.072  1.00  0.00     0.000 HD 
HETATM   16  C   UNL     1      -6.349  10.311  68.959  1.00  0.00    -0.044 C  
HETATM   17  O   UNL     1      -6.310   9.150  69.350  1.00  0.00    -0.043 OA 
HETATM   18  C   UNL     1      -7.172  10.792  67.773  1.00  0.00    -0.088 C  
BRANCH  18  19
HETATM   19  C   UNL     1      -6.760  10.110  66.454  1.00  0.00    -0.092 C  
BRANCH  19  20
HETATM   20  C   UNL     1      -7.768   9.070  65.946  1.00  0.00    -0.094 C  
BRANCH  20  21
HETATM   21  C   UNL     1      -9.216   9.520  66.160  1.00  0.00    -0.226 C  
BRANCH  21  22
HETATM   22  C   UNL     1      -9.994   8.492  66.987  1.00  0.00    -0.318 C  
BRANCH  22  23
HETATM   23  C   UNL     1      -9.167   7.229  67.228  1.00  0.00    -0.148 C  
BRANCH  23  24
HETATM   24  C   UNL     1      -9.125   6.335  65.987  1.00  0.00    -0.126 C  
HETATM   25  C   UNL     1      -9.523   4.913  66.312  1.00  0.00    -0.158 C  
HETATM   26  O   UNL     1      -9.843   4.501  67.414  1.00  0.00    -0.182 OA 
HETATM   27  O   UNL     1      -9.484   4.113  65.223  1.00  0.00    -0.150 OA 
ENDBRANCH  23  24
ENDBRANCH  22  23
ENDBRANCH  21  22
ENDBRANCH  20  21
ENDBRANCH  19  20
ENDBRANCH  18  19
ENDBRANCH  10  11
ENDBRANCH   6   9
ENDBRANCH   5   6
ENDBRANCH   4   5
ENDBRANCH   3   4
ENDBRANCH   2   3
TORSDOF 12
ENDMDL
MODEL      373
REMARK 921   NORMALIZED FREE ENERGY PREDICTED BY IDOCK:   -2.02 KCAL/MOL
REMARK 922        TOTAL FREE ENERGY PREDICTED BY IDOCK:   -5.39 KCAL/MOL
REMARK 923 INTER-LIGAND FREE ENERGY PREDICTED BY IDOCK:   -3.79 KCAL/MOL
REMARK 924 INTRA-LIGAND FREE ENERGY PREDICTED BY IDOCK:   -1.59 KCAL/MOL
REMARK 927      BINDING AFFINITY PREDICTED BY RF-SCORE:    0.00 PKD
ROOT
HETATM    1  C   UNL     1     -13.841   6.653  72.203  1.00  0.00     0.078 C  
HETATM    2  C   UNL     1     -14.066   8.127  71.917  1.00  0.00    -0.493 C  
ENDROOT
BRANCH   2   3
HETATM    3  C   UNL     1     -12.750   8.877  71.704  1.00  0.00    -0.403 C  
BRANCH   3   4
HETATM    4  C   UNL     1     -12.028   8.330  70.473  1.00  0.00     0.070 C  
BRANCH   4   5
HETATM    5  C   UNL     1     -11.271   9.416  69.704  1.00  0.00    -0.100 C  
BRANCH   5   6
HETATM    6  C   UNL     1     -10.152  10.073  70.530  1.00  0.00    -0.026 C  
HETATM    7  O   UNL     1      -9.257  10.692  69.612  1.00  0.00    -0.408 OA 
HETATM    8  H   UNL     1      -8.565  11.098  70.123  1.00  0.00     0.000 HD 
BRANCH   6   9
HETATM    9  C   UNL     1      -9.420   9.090  71.418  1.00  0.00    -0.334 C  
HETATM   10  C   UNL     1      -8.248   8.485  71.166  1.00  0.00    -0.172 C  
BRANCH  10  11
HETATM   11  C   UNL     1      -7.650   7.393  72.027  1.00  0.00    -0.084 C  
HETATM   12  C   UNL     1      -7.215   7.975  73.388  1.00  0.00    -0.129 C  
HETATM   13  O   UNL     1      -5.965   8.647  73.307  1.00  0.00    -0.097 OA 
HETATM   14  C   UNL     1      -7.125   6.789  74.325  1.00  0.00    -0.090 C  
HETATM   15  H   UNL     1      -5.697   9.004  74.146  1.00  0.00     0.000 HD 
HETATM   16  C   UNL     1      -8.237   5.930  73.812  1.00  0.00    -0.112 C  
HETATM   17  O   UNL     1      -8.766   5.064  74.500  1.00  0.00    -0.108 OA 
HETATM   18  C   UNL     1      -8.621   6.237  72.372  1.00  0.00    -0.121 C  
BRANCH  18  19
HETATM   19  C   UNL     1      -8.413   5.031  71.437  1.00  0.00    -0.121 C  
BRANCH  19  20
HETATM   20  C   UNL     1      -9.709   4.301  71.059  1.00  0.00    -0.260 C  
BRANCH  20  21
HETATM   21  C   UNL     1      -9.993   4.373  69.556  1.00  0.00    -0.187 C  
BRANCH  21  22
HETATM   22  C   UNL     1      -8.767   4.879  68.790  1.00  0.00    -0.105 C  
BRANCH  22  23
HETATM   23  C   UNL     1      -9.096   5.137  67.320  1.00  0.00    -0.113 C  
BRANCH  23  24
HETATM   24  C   UNL     1      -9.366   6.619  67.053  1.00  0.00    -0.160 C  
HETATM   25  C   UNL     1      -8.237   7.490  67.558  1.00  0.00    -0.113 C  
HETATM   26  O   UNL     1      -7.226   7.091  68.110  1.00  0.00    -0.085 OA 
HETATM   27  O   UNL     1      -8.469   8.803  67.332  1.00  0.00    -0.115 OA 
ENDBRANCH  23  24
ENDBRANCH  22  23
ENDBRANCH  21  22
ENDBRANCH  20  21
ENDBRANCH  19  20
ENDBRANCH  18  19
ENDBRANCH  10  11
ENDBRANCH   6   9
ENDBRANCH   5   6
ENDBRANCH   4   5
ENDBRANCH   3   4
ENDBRANCH   2   3
TORSDOF 12
ENDMDL
MODEL      374
REMARK 921   NORMALIZED FREE ENERGY PREDICTED BY IDOCK:   -1.92 KCAL/MOL
REMARK 922        TOTAL FREE ENERGY PREDICTED BY IDOCK:   -5.22 KCAL/MOL
REMARK 923 INTER-LIGAND FREE ENERGY PREDICTED BY IDOCK:   -3.45 KCAL/MOL
REMARK 924 INTRA-LIGAND FREE ENERGY PREDICTED BY IDOCK:   -1.77 KCAL/MOL
REMARK 927      BINDING AFFINITY PREDICTED BY RF-SCORE:    0.00 PKD
ROOT
HETATM    1  C   UNL     1     -13.860   6.660  72.253  1.00  0.00     0.179 C  
HETATM    2  C   UNL     1     -14.387   8.080  72.147  1.00  0.00    -0.442 C  
ENDROOT
BRANCH   2   3
HETATM    3  C   UNL     1     -13.274   9.084  71.844  1.00  0.00    -0.462 C  
BRANCH   3   4
HETATM    4  C   UNL     1     -12.939   9.062  70.353  1.00  0.00     0.750 C  
BRANCH   4   5
HETATM    5  C   UNL     1     -12.356  10.389  69.861  1.00  0.00    -0.176 C  
BRANCH   5   6
HETATM    6  C   UNL     1     -10.982  10.710  70.475  1.00  0.00     0.020 C  
HETATM    7  O   UNL     1     -10.349  11.657  69.621  1.00  0.00    -0.400 OA 
HETATM    8  H   UNL     1      -9.500  11.855  70.000  1.00  0.00     0.000 HD 
BRANCH   6   9
HETATM    9  C   UNL     1     -10.116   9.482  70.654  1.00  0.00    -0.353 C  
HETATM   10  C   UNL     1      -9.316   8.912  69.738  1.00  0.00    -0.169 C  
BRANCH  10  11
HETATM   11  C   UNL     1      -8.599   7.593  69.937  1.00  0.00    -0.138 C  
HETATM   12  C   UNL     1      -7.441   7.770  70.941  1.00  0.00    -0.073 C  
HETATM   13  O   UNL     1      -6.291   8.347  70.335  1.00  0.00    -0.035 OA 
HETATM   14  C   UNL     1      -7.133   6.379  71.454  1.00  0.00    -0.077 C  
HETATM   15  H   UNL     1      -5.578   8.456  70.954  1.00  0.00     0.000 HD 
HETATM   16  C   UNL     1      -8.498   5.766  71.461  1.00  0.00    -0.128 C  
HETATM   17  O   UNL     1      -8.774   4.792  72.152  1.00  0.00    -0.121 OA 
HETATM   18  C   UNL     1      -9.476   6.462  70.526  1.00  0.00    -0.173 C  
BRANCH  18  19
HETATM   19  C   UNL     1     -10.002   5.526  69.421  1.00  0.00    -0.276 C  
BRANCH  19  20
HETATM   20  C   UNL     1     -11.271   6.035  68.722  1.00  0.00    -0.212 C  
BRANCH  20  21
HETATM   21  C   UNL     1     -11.021   6.371  67.250  1.00  0.00    -0.474 C  
BRANCH  21  22
HETATM   22  C   UNL     1      -9.591   6.008  66.839  1.00  0.00    -0.158 C  
BRANCH  22  23
HETATM   23  C   UNL     1      -9.568   4.796  65.908  1.00  0.00    -0.188 C  
BRANCH  23  24
HETATM   24  C   UNL     1      -8.179   4.157  65.846  1.00  0.00    -0.109 C  
HETATM   25  C   UNL     1      -8.134   3.020  64.850  1.00  0.00    -0.086 C  
HETATM   26  O   UNL     1      -9.069   2.639  64.166  1.00  0.00    -0.104 OA 
HETATM   27  O   UNL     1      -6.912   2.444  64.791  1.00  0.00    -0.045 OA 
ENDBRANCH  23  24
ENDBRANCH  22  23
ENDBRANCH  21  22
ENDBRANCH  20  21
ENDBRANCH  19  20
ENDBRANCH  18  19
ENDBRANCH  10  11
ENDBRANCH   6   9
ENDBRANCH   5   6
ENDBRANCH   4   5
ENDBRANCH   3   4
ENDBRANCH   2   3
TORSDOF 12
ENDMDL
MODEL      375
REMARK 921   NORMALIZED FREE ENERGY PREDICTED BY IDOCK:   -1.81 KCAL/MOL
REMARK 922        TOTAL FREE ENERGY PREDICTED BY IDOCK:   -5.04 KCAL/MOL
REMARK 923 INTER-LIGAND FREE ENERGY PREDICTED BY IDOCK:   -3.32 KCAL/MOL
REMARK 924 INTRA-LIGAND FREE ENERGY PREDICTED BY IDOCK:   -1.72 KCAL/MOL
REMARK 927      BINDING AFFINITY PREDICTED BY RF-SCORE:    0.00 PKD
ROOT
HETATM    1  C   UNL     1      -7.117  15.453  67.476  1.00  0.00    -0.221 C  
HETATM    2  C   UNL     1      -7.654  14.226  68.190  1.00  0.00    -0.134 C  
ENDROOT
BRANCH   2   3
HETATM    3  C   UNL     1      -7.539  12.966  67.330  1.00  0.00    -0.104 C  
BRANCH   3   4
HETATM    4  C   UNL     1      -7.599  11.721  68.213  1.00  0.00    -0.122 C  
BRANCH   4   5
HETATM    5  C   UNL     1      -6.309  11.500  69.007  1.00  0.00    -0.069 C  
BRANCH   5   6
HETATM    6  C   UNL     1      -5.958  10.013  69.189  1.00  0.00    -0.037 C  
HETATM    7  O   UNL     1      -5.732   9.469  67.893  1.00  0.00    -0.041 OA 
HETATM    8  H   UNL     1      -5.516   8.551  68.006  1.00  0.00     0.000 HD 
BRANCH   6   9
HETATM    9  C   UNL     1      -7.035   9.239  69.918  1.00  0.00    -0.061 C  
HETATM   10  C   UNL     1      -7.110   8.997  71.237  1.00  0.00    -0.093 C  
BRANCH  10  11
HETATM   11  C   UNL     1      -8.131   8.082  71.878  1.00  0.00    -0.150 C  
HETATM   12  C   UNL     1      -8.548   8.641  73.256  1.00  0.00     0.174 C  
HETATM   13  O   UNL     1      -7.592   8.343  74.264  1.00  0.00    -0.227 OA 
HETATM   14  C   UNL     1      -9.877   7.990  73.571  1.00  0.00    -0.069 C  
HETATM   15  H   UNL     1      -7.848   8.687  75.112  1.00  0.00     0.000 HD 
HETATM   16  C   UNL     1     -10.482   7.892  72.206  1.00  0.00    -0.262 C  
HETATM   17  O   UNL     1     -11.691   7.782  72.031  1.00  0.00    -0.278 OA 
HETATM   18  C   UNL     1      -9.453   7.931  71.086  1.00  0.00    -0.180 C  
BRANCH  18  19
HETATM   19  C   UNL     1      -9.455   6.644  70.238  1.00  0.00    -0.166 C  
BRANCH  19  20
HETATM   20  C   UNL     1      -9.719   6.880  68.745  1.00  0.00    -0.137 C  
BRANCH  20  21
HETATM   21  C   UNL     1     -10.778   7.961  68.512  1.00  0.00    -0.069 C  
BRANCH  21  22
HETATM   22  C   UNL     1     -10.392   8.862  67.335  1.00  0.00    -0.337 C  
BRANCH  22  23
HETATM   23  C   UNL     1      -8.928   8.665  66.938  1.00  0.00    -0.161 C  
BRANCH  23  24
HETATM   24  C   UNL     1      -8.764   8.554  65.421  1.00  0.00    -0.194 C  
HETATM   25  C   UNL     1      -7.815   9.603  64.886  1.00  0.00    -0.123 C  
HETATM   26  O   UNL     1      -7.238  10.443  65.554  1.00  0.00    -0.144 OA 
HETATM   27  O   UNL     1      -7.667   9.518  63.545  1.00  0.00    -0.114 OA 
ENDBRANCH  23  24
ENDBRANCH  22  23
ENDBRANCH  21  22
ENDBRANCH  20  21
ENDBRANCH  19  20
ENDBRANCH  18  19
ENDBRANCH  10  11
ENDBRANCH   6   9
ENDBRANCH   5   6
ENDBRANCH   4   5
ENDBRANCH   3   4
ENDBRANCH   2   3
TORSDOF 12
ENDMDL
MODEL      376
REMARK 921   NORMALIZED FREE ENERGY PREDICTED BY IDOCK:   -1.72 KCAL/MOL
REMARK 922        TOTAL FREE ENERGY PREDICTED BY IDOCK:   -4.87 KCAL/MOL
REMARK 923 INTER-LIGAND FREE ENERGY PREDICTED BY IDOCK:   -5.29 KCAL/MOL
REMARK 924 INTRA-LIGAND FREE ENERGY PREDICTED BY IDOCK:    0.42 KCAL/MOL
REMARK 927      BINDING AFFINITY PREDICTED BY RF-SCORE:    0.00 PKD
ROOT
HETATM    1  C   UNL     1     -12.661  10.708  69.851  1.00  0.00    -0.168 C  
HETATM    2  C   UNL     1     -12.379   9.983  71.156  1.00  0.00    -0.477 C  
ENDROOT
BRANCH   2   3
HETATM    3  C   UNL     1     -12.269   8.470  70.959  1.00  0.00    -0.190 C  
BRANCH   3   4
HETATM    4  C   UNL     1     -11.713   7.816  72.223  1.00  0.00    -0.390 C  
BRANCH   4   5
HETATM    5  C   UNL     1     -11.225   6.386  71.980  1.00  0.00    -0.324 C  
BRANCH   5   6
HETATM    6  C   UNL     1     -11.033   6.059  70.489  1.00  0.00    -0.319 C  
HETATM    7  O   UNL     1     -10.455   4.759  70.412  1.00  0.00    -0.186 OA 
HETATM    8  H   UNL     1     -10.336   4.557  69.491  1.00  0.00     0.000 HD 
BRANCH   6   9
HETATM    9  C   UNL     1     -10.173   7.074  69.769  1.00  0.00    -0.213 C  
HETATM   10  C   UNL     1     -10.356   7.561  68.530  1.00  0.00    -0.224 C  
BRANCH  10  11
HETATM   11  C   UNL     1      -9.368   8.456  67.813  1.00  0.00    -0.150 C  
HETATM   12  C   UNL     1      -8.020   7.725  67.645  1.00  0.00    -0.124 C  
HETATM   13  O   UNL     1      -7.243   7.758  68.835  1.00  0.00    -0.076 OA 
HETATM   14  C   UNL     1      -7.306   8.444  66.520  1.00  0.00    -0.081 C  
HETATM   15  H   UNL     1      -6.413   7.307  68.731  1.00  0.00     0.000 HD 
HETATM   16  C   UNL     1      -8.458   8.822  65.643  1.00  0.00    -0.160 C  
HETATM   17  O   UNL     1      -8.317   9.079  64.452  1.00  0.00    -0.160 OA 
HETATM   18  C   UNL     1      -9.789   8.865  66.379  1.00  0.00    -0.353 C  
BRANCH  18  19
HETATM   19  C   UNL     1     -10.429  10.266  66.360  1.00  0.00    -0.233 C  
BRANCH  19  20
HETATM   20  C   UNL     1     -10.300  10.994  65.015  1.00  0.00    -0.360 C  
BRANCH  20  21
HETATM   21  C   UNL     1      -9.582  12.340  65.157  1.00  0.00    -0.015 C  
BRANCH  21  22
HETATM   22  C   UNL     1     -10.587  13.493  65.223  1.00  0.00    -0.335 C  
BRANCH  22  23
HETATM   23  C   UNL     1      -9.987  14.717  65.916  1.00  0.00    -0.351 C  
BRANCH  23  24
HETATM   24  C   UNL     1     -11.053  15.770  66.227  1.00  0.00    -0.073 C  
HETATM   25  C   UNL     1     -10.468  16.951  66.967  1.00  0.00    -0.281 C  
HETATM   26  O   UNL     1      -9.299  17.079  67.288  1.00  0.00    -0.232 OA 
HETATM   27  O   UNL     1     -11.403  17.886  67.252  1.00  0.00     0.185 OA 
ENDBRANCH  23  24
ENDBRANCH  22  23
ENDBRANCH  21  22
ENDBRANCH  20  21
ENDBRANCH  19  20
ENDBRANCH  18  19
ENDBRANCH  10  11
ENDBRANCH   6   9
ENDBRANCH   5   6
ENDBRANCH   4   5
ENDBRANCH   3   4
ENDBRANCH   2   3
TORSDOF 12
ENDMDL
MODEL      377
REMARK 921   NORMALIZED FREE ENERGY PREDICTED BY IDOCK:   -1.70 KCAL/MOL
REMARK 922        TOTAL FREE ENERGY PREDICTED BY IDOCK:   -4.83 KCAL/MOL
REMARK 923 INTER-LIGAND FREE ENERGY PREDICTED BY IDOCK:   -3.54 KCAL/MOL
REMARK 924 INTRA-LIGAND FREE ENERGY PREDICTED BY IDOCK:   -1.30 KCAL/MOL
REMARK 927      BINDING AFFINITY PREDICTED BY RF-SCORE:    0.00 PKD
ROOT
HETATM    1  C   UNL     1      -8.140   7.634  65.226  1.00  0.00    -0.133 C  
HETATM    2  C   UNL     1      -8.467   6.221  64.778  1.00  0.00     0.013 C  
ENDROOT
BRANCH   2   3
HETATM    3  C   UNL     1      -9.450   5.531  65.725  1.00  0.00    -0.071 C  
BRANCH   3   4
HETATM    4  C   UNL     1      -9.138   4.038  65.809  1.00  0.00    -0.142 C  
BRANCH   4   5
HETATM    5  C   UNL     1      -7.864   3.746  66.606  1.00  0.00    -0.088 C  
BRANCH   5   6
HETATM    6  C   UNL     1      -8.112   2.859  67.837  1.00  0.00    -0.070 C  
HETATM    7  O   UNL     1      -9.147   1.942  67.497  1.00  0.00    -0.137 OA 
HETATM    8  H   UNL     1      -9.300   1.393  68.258  1.00  0.00     0.000 HD 
BRANCH   6   9
HETATM    9  C   UNL     1      -8.480   3.653  69.072  1.00  0.00    -0.101 C  
HETATM   10  C   UNL     1      -8.167   4.932  69.337  1.00  0.00    -0.081 C  
BRANCH  10  11
HETATM   11  C   UNL     1      -8.432   5.616  70.662  1.00  0.00    -0.126 C  
HETATM   12  C   UNL     1      -7.128   5.698  71.482  1.00  0.00    -0.073 C  
HETATM   13  O   UNL     1      -6.828   4.470  72.133  1.00  0.00    -0.046 OA 
HETATM   14  C   UNL     1      -7.356   6.799  72.496  1.00  0.00    -0.090 C  
HETATM   15  H   UNL     1      -6.025   4.521  72.639  1.00  0.00     0.000 HD 
HETATM   16  C   UNL     1      -8.211   7.742  71.711  1.00  0.00    -0.111 C  
HETATM   17  O   UNL     1      -8.314   8.929  72.000  1.00  0.00    -0.367 OA 
HETATM   18  C   UNL     1      -8.931   7.077  70.547  1.00  0.00    -0.155 C  
BRANCH  18  19
HETATM   19  C   UNL     1     -10.464   7.158  70.678  1.00  0.00    -0.226 C  
BRANCH  19  20
HETATM   20  C   UNL     1     -11.009   8.590  70.775  1.00  0.00    -0.282 C  
BRANCH  20  21
HETATM   21  C   UNL     1     -10.994   9.304  69.421  1.00  0.00    -0.138 C  
BRANCH  21  22
HETATM   22  C   UNL     1     -10.881  10.820  69.602  1.00  0.00    -0.294 C  
BRANCH  22  23
HETATM   23  C   UNL     1     -10.217  11.478  68.392  1.00  0.00    -0.211 C  
BRANCH  23  24
HETATM   24  C   UNL     1      -8.806  10.936  68.156  1.00  0.00    -0.137 C  
HETATM   25  C   UNL     1      -8.400  11.055  66.704  1.00  0.00    -0.155 C  
HETATM   26  O   UNL     1      -9.086  11.522  65.812  1.00  0.00    -0.209 OA 
HETATM   27  O   UNL     1      -7.156  10.573  66.484  1.00  0.00    -0.105 OA 
ENDBRANCH  23  24
ENDBRANCH  22  23
ENDBRANCH  21  22
ENDBRANCH  20  21
ENDBRANCH  19  20
ENDBRANCH  18  19
ENDBRANCH  10  11
ENDBRANCH   6   9
ENDBRANCH   5   6
ENDBRANCH   4   5
ENDBRANCH   3   4
ENDBRANCH   2   3
TORSDOF 12
ENDMDL
MODEL      378
REMARK 921   NORMALIZED FREE ENERGY PREDICTED BY IDOCK:   -1.45 KCAL/MOL
REMARK 922        TOTAL FREE ENERGY PREDICTED BY IDOCK:   -4.42 KCAL/MOL
REMARK 923 INTER-LIGAND FREE ENERGY PREDICTED BY IDOCK:   -4.47 KCAL/MOL
REMARK 924 INTRA-LIGAND FREE ENERGY PREDICTED BY IDOCK:    0.05 KCAL/MOL
REMARK 927      BINDING AFFINITY PREDICTED BY RF-SCORE:    0.00 PKD
ROOT
HETATM    1  C   UNL     1     -12.655  10.705  69.858  1.00  0.00    -0.168 C  
HETATM    2  C   UNL     1     -12.497   9.908  71.140  1.00  0.00    -0.464 C  
ENDROOT
BRANCH   2   3
HETATM    3  C   UNL     1     -12.366   8.408  70.871  1.00  0.00    -0.051 C  
BRANCH   3   4
HETATM    4  C   UNL     1     -12.086   7.664  72.176  1.00  0.00    -0.325 C  
BRANCH   4   5
HETATM    5  C   UNL     1     -11.520   6.261  71.943  1.00  0.00    -0.360 C  
BRANCH   5   6
HETATM    6  C   UNL     1     -10.832   6.106  70.576  1.00  0.00    -0.300 C  
HETATM    7  O   UNL     1     -10.353   4.768  70.493  1.00  0.00    -0.218 OA 
HETATM    8  H   UNL     1      -9.928   4.672  69.648  1.00  0.00     0.000 HD 
BRANCH   6   9
HETATM    9  C   UNL     1      -9.707   7.096  70.366  1.00  0.00    -0.176 C  
HETATM   10  C   UNL     1      -9.437   7.793  69.251  1.00  0.00    -0.155 C  
BRANCH  10  11
HETATM   11  C   UNL     1      -8.202   8.648  69.059  1.00  0.00    -0.122 C  
HETATM   12  C   UNL     1      -6.939   7.762  69.092  1.00  0.00    -0.065 C  
HETATM   13  O   UNL     1      -6.551   7.433  70.420  1.00  0.00    -0.045 OA 
HETATM   14  C   UNL     1      -5.859   8.571  68.406  1.00  0.00    -0.041 C  
HETATM   15  H   UNL     1      -5.773   6.888  70.440  1.00  0.00     0.000 HD 
HETATM   16  C   UNL     1      -6.657   9.294  67.366  1.00  0.00    -0.064 C  
HETATM   17  O   UNL     1      -6.145   9.759  66.354  1.00  0.00    -0.061 OA 
HETATM   18  C   UNL     1      -8.136   9.396  67.705  1.00  0.00    -0.107 C  
BRANCH  18  19
HETATM   19  C   UNL     1      -8.609  10.856  67.848  1.00  0.00    -0.130 C  
BRANCH  19  20
HETATM   20  C   UNL     1      -7.983  11.818  66.830  1.00  0.00    -0.116 C  
BRANCH  20  21
HETATM   21  C   UNL     1      -7.208  12.950  67.510  1.00  0.00    -0.149 C  
BRANCH  21  22
HETATM   22  C   UNL     1      -8.066  14.214  67.618  1.00  0.00    -0.188 C  
BRANCH  22  23
HETATM   23  C   UNL     1      -9.254  14.003  68.557  1.00  0.00    -0.170 C  
BRANCH  23  24
HETATM   24  C   UNL     1     -10.265  15.147  68.457  1.00  0.00    -0.231 C  
HETATM   25  C   UNL     1     -11.475  14.899  69.329  1.00  0.00    -0.303 C  
HETATM   26  O   UNL     1     -11.651  13.922  70.036  1.00  0.00    -0.262 OA 
HETATM   27  O   UNL     1     -12.378  15.902  69.243  1.00  0.00    -0.197 OA 
ENDBRANCH  23  24
ENDBRANCH  22  23
ENDBRANCH  21  22
ENDBRANCH  20  21
ENDBRANCH  19  20
ENDBRANCH  18  19
ENDBRANCH  10  11
ENDBRANCH   6   9
ENDBRANCH   5   6
ENDBRANCH   4   5
ENDBRANCH   3   4
ENDBRANCH   2   3
TORSDOF 12
ENDMDL
MODEL      379
REMARK 921   NORMALIZED FREE ENERGY PREDICTED BY IDOCK:   -1.26 KCAL/MOL
REMARK 922        TOTAL FREE ENERGY PREDICTED BY IDOCK:   -4.10 KCAL/MOL
REMARK 923 INTER-LIGAND FREE ENERGY PREDICTED BY IDOCK:   -2.28 KCAL/MOL
REMARK 924 INTRA-LIGAND FREE ENERGY PREDICTED BY IDOCK:   -1.82 KCAL/MOL
REMARK 927      BINDING AFFINITY PREDICTED BY RF-SCORE:    0.00 PKD
ROOT
HETATM    1  C   UNL     1     -13.865   5.686  72.309  1.00  0.00     1.361 C  
HETATM    2  C   UNL     1     -14.360   7.093  72.594  1.00  0.00     0.389 C  
ENDROOT
BRANCH   2   3
HETATM    3  C   UNL     1     -13.296   8.149  72.285  1.00  0.00    -0.183 C  
BRANCH   3   4
HETATM    4  C   UNL     1     -13.329   8.509  70.801  1.00  0.00     0.437 C  
BRANCH   4   5
HETATM    5  C   UNL     1     -13.140  10.007  70.554  1.00  0.00    -0.119 C  
BRANCH   5   6
HETATM    6  C   UNL     1     -11.947  10.600  71.324  1.00  0.00    -0.245 C  
HETATM    7  O   UNL     1     -11.563  11.796  70.653  1.00  0.00    -0.438 OA 
HETATM    8  H   UNL     1     -10.826  12.163  71.128  1.00  0.00     0.000 HD 
BRANCH   6   9
HETATM    9  C   UNL     1     -10.780   9.643  71.429  1.00  0.00    -0.246 C  
HETATM   10  C   UNL     1      -9.822   9.425  70.513  1.00  0.00    -0.331 C  
BRANCH  10  11
HETATM   11  C   UNL     1      -8.773   8.339  70.619  1.00  0.00    -0.144 C  
HETATM   12  C   UNL     1      -7.735   8.713  71.697  1.00  0.00    -0.108 C  
HETATM   13  O   UNL     1      -6.775   9.644  71.215  1.00  0.00    -0.293 OA 
HETATM   14  C   UNL     1      -7.067   7.411  72.085  1.00  0.00    -0.067 C  
HETATM   15  H   UNL     1      -6.136   9.874  71.879  1.00  0.00     0.000 HD 
HETATM   16  C   UNL     1      -8.209   6.451  71.957  1.00  0.00    -0.109 C  
HETATM   17  O   UNL     1      -8.222   5.369  72.532  1.00  0.00    -0.112 OA 
HETATM   18  C   UNL     1      -9.318   6.953  71.044  1.00  0.00    -0.156 C  
BRANCH  18  19
HETATM   19  C   UNL     1      -9.536   6.038  69.824  1.00  0.00    -0.180 C  
BRANCH  19  20
HETATM   20  C   UNL     1     -10.986   6.001  69.321  1.00  0.00    -0.436 C  
BRANCH  20  21
HETATM   21  C   UNL     1     -11.109   6.516  67.884  1.00  0.00    -0.352 C  
BRANCH  21  22
HETATM   22  C   UNL     1      -9.729   6.791  67.280  1.00  0.00    -0.175 C  
BRANCH  22  23
HETATM   23  C   UNL     1      -9.503   8.286  67.060  1.00  0.00    -0.226 C  
BRANCH  23  24
HETATM   24  C   UNL     1      -8.409   8.547  66.023  1.00  0.00    -0.133 C  
HETATM   25  C   UNL     1      -8.132  10.025  65.865  1.00  0.00    -0.126 C  
HETATM   26  O   UNL     1      -8.693  10.920  66.474  1.00  0.00    -0.152 OA 
HETATM   27  O   UNL     1      -7.170  10.267  64.946  1.00  0.00    -0.136 OA 
ENDBRANCH  23  24
ENDBRANCH  22  23
ENDBRANCH  21  22
ENDBRANCH  20  21
ENDBRANCH  19  20
ENDBRANCH  18  19
ENDBRANCH  10  11
ENDBRANCH   6   9
ENDBRANCH   5   6
ENDBRANCH   4   5
ENDBRANCH   3   4
ENDBRANCH   2   3
TORSDOF 12
ENDMDL
MODEL      380
REMARK 921   NORMALIZED FREE ENERGY PREDICTED BY IDOCK:   -1.20 KCAL/MOL
REMARK 922        TOTAL FREE ENERGY PREDICTED BY IDOCK:   -3.99 KCAL/MOL
REMARK 923 INTER-LIGAND FREE ENERGY PREDICTED BY IDOCK:   -3.86 KCAL/MOL
REMARK 924 INTRA-LIGAND FREE ENERGY PREDICTED BY IDOCK:   -0.12 KCAL/MOL
REMARK 927      BINDING AFFINITY PREDICTED BY RF-SCORE:    0.00 PKD
ROOT
HETATM    1  C   UNL     1     -12.836  14.835  71.158  1.00  0.00    -0.406 C  
HETATM    2  C   UNL     1     -13.926  13.958  71.747  1.00  0.00    -0.422 C  
ENDROOT
BRANCH   2   3
HETATM    3  C   UNL     1     -13.889  12.538  71.180  1.00  0.00     1.352 C  
BRANCH   3   4
HETATM    4  C   UNL     1     -12.546  11.881  71.497  1.00  0.00    -0.298 C  
BRANCH   4   5
HETATM    5  C   UNL     1     -12.156  10.814  70.472  1.00  0.00    -0.459 C  
BRANCH   5   6
HETATM    6  C   UNL     1     -10.946  11.217  69.612  1.00  0.00    -0.192 C  
HETATM    7  O   UNL     1     -10.911  12.640  69.570  1.00  0.00    -0.443 OA 
HETATM    8  H   UNL     1     -10.163  12.888  69.039  1.00  0.00     0.000 HD 
BRANCH   6   9
HETATM    9  C   UNL     1     -10.998  10.638  68.214  1.00  0.00    -0.314 C  
HETATM   10  C   UNL     1      -9.998  10.043  67.544  1.00  0.00    -0.232 C  
BRANCH  10  11
HETATM   11  C   UNL     1     -10.075   9.628  66.090  1.00  0.00    -0.328 C  
HETATM   12  C   UNL     1     -10.043  10.877  65.184  1.00  0.00    -0.292 C  
HETATM   13  O   UNL     1     -11.311  11.515  65.109  1.00  0.00    -0.208 OA 
HETATM   14  C   UNL     1      -9.615  10.378  63.821  1.00  0.00    -0.366 C  
HETATM   15  H   UNL     1     -11.291  12.284  64.551  1.00  0.00     0.000 HD 
HETATM   16  C   UNL     1      -8.670   9.280  64.199  1.00  0.00    -0.173 C  
HETATM   17  O   UNL     1      -7.811   8.863  63.432  1.00  0.00    -0.129 OA 
HETATM   18  C   UNL     1      -8.899   8.746  65.605  1.00  0.00    -0.239 C  
BRANCH  18  19
HETATM   19  C   UNL     1      -9.277   7.252  65.614  1.00  0.00     0.171 C  
BRANCH  19  20
HETATM   20  C   UNL     1      -9.284   6.617  67.011  1.00  0.00    -0.147 C  
BRANCH  20  21
HETATM   21  C   UNL     1      -7.899   6.108  67.418  1.00  0.00    -0.098 C  
BRANCH  21  22
HETATM   22  C   UNL     1      -7.898   5.622  68.871  1.00  0.00    -0.096 C  
BRANCH  22  23
HETATM   23  C   UNL     1      -9.306   5.255  69.337  1.00  0.00    -0.172 C  
BRANCH  23  24
HETATM   24  C   UNL     1      -9.762   3.915  68.757  1.00  0.00    -0.119 C  
HETATM   25  C   UNL     1      -8.777   2.810  69.067  1.00  0.00    -0.084 C  
HETATM   26  O   UNL     1      -7.742   2.940  69.699  1.00  0.00    -0.044 OA 
HETATM   27  O   UNL     1      -9.168   1.622  68.554  1.00  0.00    -0.127 OA 
ENDBRANCH  23  24
ENDBRANCH  22  23
ENDBRANCH  21  22
ENDBRANCH  20  21
ENDBRANCH  19  20
ENDBRANCH  18  19
ENDBRANCH  10  11
ENDBRANCH   6   9
ENDBRANCH   5   6
ENDBRANCH   4   5
ENDBRANCH   3   4
ENDBRANCH   2   3
TORSDOF 12
ENDMDL
MODEL      381
REMARK 921   NORMALIZED FREE ENERGY PREDICTED BY IDOCK:   -0.99 KCAL/MOL
REMARK 922        TOTAL FREE ENERGY PREDICTED BY IDOCK:   -3.64 KCAL/MOL
REMARK 923 INTER-LIGAND FREE ENERGY PREDICTED BY IDOCK:   -3.25 KCAL/MOL
REMARK 924 INTRA-LIGAND FREE ENERGY PREDICTED BY IDOCK:   -0.39 KCAL/MOL
REMARK 927      BINDING AFFINITY PREDICTED BY RF-SCORE:    0.00 PKD
ROOT
HETATM    1  C   UNL     1     -12.792  14.822  71.150  1.00  0.00    -0.406 C  
HETATM    2  C   UNL     1     -13.760  13.842  71.789  1.00  0.00    -0.461 C  
ENDROOT
BRANCH   2   3
HETATM    3  C   UNL     1     -13.564  12.418  71.266  1.00  0.00     0.549 C  
BRANCH   3   4
HETATM    4  C   UNL     1     -12.134  11.953  71.535  1.00  0.00     0.495 C  
BRANCH   4   5
HETATM    5  C   UNL     1     -11.656  10.907  70.525  1.00  0.00    -0.397 C  
BRANCH   5   6
HETATM    6  C   UNL     1     -10.591  11.446  69.555  1.00  0.00     0.020 C  
HETATM    7  O   UNL     1     -10.680  12.867  69.575  1.00  0.00    -0.428 OA 
HETATM    8  H   UNL     1     -10.023  13.200  68.976  1.00  0.00     0.000 HD 
BRANCH   6   9
HETATM    9  C   UNL     1     -10.755  10.916  68.147  1.00  0.00    -0.256 C  
HETATM   10  C   UNL     1      -9.795  10.418  67.350  1.00  0.00    -0.210 C  
BRANCH  10  11
HETATM   11  C   UNL     1     -10.001  10.052  65.895  1.00  0.00    -0.339 C  
HETATM   12  C   UNL     1     -10.147  11.332  65.046  1.00  0.00    -0.279 C  
HETATM   13  O   UNL     1     -11.454  11.883  65.131  1.00  0.00    -0.311 OA 
HETATM   14  C   UNL     1      -9.836  10.913  63.625  1.00  0.00    -0.403 C  
HETATM   15  H   UNL     1     -11.544  12.671  64.608  1.00  0.00     0.000 HD 
HETATM   16  C   UNL     1      -8.787   9.870  63.855  1.00  0.00    -0.227 C  
HETATM   17  O   UNL     1      -7.989   9.541  62.984  1.00  0.00    -0.124 OA 
HETATM   18  C   UNL     1      -8.829   9.271  65.253  1.00  0.00    -0.237 C  
BRANCH  18  19
HETATM   19  C   UNL     1      -9.106   7.755  65.236  1.00  0.00     0.277 C  
BRANCH  19  20
HETATM   20  C   UNL     1      -8.888   7.065  66.589  1.00  0.00    -0.139 C  
BRANCH  20  21
HETATM   21  C   UNL     1      -7.648   6.167  66.583  1.00  0.00    -0.095 C  
BRANCH  21  22
HETATM   22  C   UNL     1      -7.362   5.617  67.984  1.00  0.00    -0.073 C  
BRANCH  22  23
HETATM   23  C   UNL     1      -5.919   5.890  68.407  1.00  0.00    -0.020 C  
BRANCH  23  24
HETATM   24  C   UNL     1      -5.701   7.363  68.756  1.00  0.00    -0.023 C  
HETATM   25  C   UNL     1      -6.725   7.856  69.754  1.00  0.00    -0.038 C  
HETATM   26  O   UNL     1      -7.622   7.187  70.238  1.00  0.00    -0.087 OA 
HETATM   27  O   UNL     1      -6.545   9.160  70.065  1.00  0.00    -0.040 OA 
ENDBRANCH  23  24
ENDBRANCH  22  23
ENDBRANCH  21  22
ENDBRANCH  20  21
ENDBRANCH  19  20
ENDBRANCH  18  19
ENDBRANCH  10  11
ENDBRANCH   6   9
ENDBRANCH   5   6
ENDBRANCH   4   5
ENDBRANCH   3   4
ENDBRANCH   2   3
TORSDOF 12
ENDMDL
MODEL      382
REMARK 921   NORMALIZED FREE ENERGY PREDICTED BY IDOCK:   -0.63 KCAL/MOL
REMARK 922        TOTAL FREE ENERGY PREDICTED BY IDOCK:   -3.02 KCAL/MOL
REMARK 923 INTER-LIGAND FREE ENERGY PREDICTED BY IDOCK:   -3.86 KCAL/MOL
REMARK 924 INTRA-LIGAND FREE ENERGY PREDICTED BY IDOCK:    0.83 KCAL/MOL
REMARK 927      BINDING AFFINITY PREDICTED BY RF-SCORE:    0.00 PKD
ROOT
HETATM    1  C   UNL     1     -13.001   8.286  72.155  1.00  0.00    -0.327 C  
HETATM    2  C   UNL     1     -11.926   9.327  71.898  1.00  0.00    -0.433 C  
ENDROOT
BRANCH   2   3
HETATM    3  C   UNL     1     -12.518  10.660  71.434  1.00  0.00    -0.496 C  
BRANCH   3   4
HETATM    4  C   UNL     1     -11.578  11.332  70.435  1.00  0.00    -0.319 C  
BRANCH   4   5
HETATM    5  C   UNL     1     -12.200  12.567  69.780  1.00  0.00    -0.199 C  
BRANCH   5   6
HETATM    6  C   UNL     1     -11.397  13.081  68.573  1.00  0.00    -0.288 C  
HETATM    7  O   UNL     1     -12.312  13.240  67.494  1.00  0.00    -0.225 OA 
HETATM    8  H   UNL     1     -11.816  13.558  66.747  1.00  0.00     0.000 HD 
BRANCH   6   9
HETATM    9  C   UNL     1     -10.262  12.159  68.186  1.00  0.00    -0.203 C  
HETATM   10  C   UNL     1      -9.633  11.270  68.972  1.00  0.00    -0.048 C  
BRANCH  10  11
HETATM   11  C   UNL     1      -8.400  10.493  68.562  1.00  0.00    -0.129 C  
HETATM   12  C   UNL     1      -7.176  11.432  68.516  1.00  0.00    -0.093 C  
HETATM   13  O   UNL     1      -7.136  12.199  67.320  1.00  0.00    -0.134 OA 
HETATM   14  C   UNL     1      -5.967  10.526  68.610  1.00  0.00    -0.040 C  
HETATM   15  H   UNL     1      -6.383  12.777  67.291  1.00  0.00     0.000 HD 
HETATM   16  C   UNL     1      -6.482   9.450  69.513  1.00  0.00    -0.043 C  
HETATM   17  O   UNL     1      -5.735   8.723  70.158  1.00  0.00    -0.030 OA 
HETATM   18  C   UNL     1      -8.000   9.354  69.532  1.00  0.00    -0.098 C  
BRANCH  18  19
HETATM   19  C   UNL     1      -8.511   7.988  69.036  1.00  0.00    -0.130 C  
BRANCH  19  20
HETATM   20  C   UNL     1      -7.607   6.807  69.413  1.00  0.00    -0.096 C  
BRANCH  20  21
HETATM   21  C   UNL     1      -8.070   5.499  68.767  1.00  0.00    -0.099 C  
BRANCH  21  22
HETATM   22  C   UNL     1      -9.598   5.398  68.769  1.00  0.00    -0.182 C  
BRANCH  22  23
HETATM   23  C   UNL     1     -10.064   3.978  68.445  1.00  0.00     0.238 C  
BRANCH  23  24
HETATM   24  C   UNL     1      -9.359   3.419  67.208  1.00  0.00    -0.237 C  
HETATM   25  C   UNL     1      -8.675   2.103  67.503  1.00  0.00    -0.119 C  
HETATM   26  O   UNL     1      -8.670   1.533  68.581  1.00  0.00    -0.058 OA 
HETATM   27  O   UNL     1      -8.043   1.604  66.417  1.00  0.00    -0.071 OA 
ENDBRANCH  23  24
ENDBRANCH  22  23
ENDBRANCH  21  22
ENDBRANCH  20  21
ENDBRANCH  19  20
ENDBRANCH  18  19
ENDBRANCH  10  11
ENDBRANCH   6   9
ENDBRANCH   5   6
ENDBRANCH   4   5
ENDBRANCH   3   4
ENDBRANCH   2   3
TORSDOF 12
ENDMDL
MODEL      383
REMARK 921   NORMALIZED FREE ENERGY PREDICTED BY IDOCK:   -0.49 KCAL/MOL
REMARK 922        TOTAL FREE ENERGY PREDICTED BY IDOCK:   -2.78 KCAL/MOL
REMARK 923 INTER-LIGAND FREE ENERGY PREDICTED BY IDOCK:   -1.13 KCAL/MOL
REMARK 924 INTRA-LIGAND FREE ENERGY PREDICTED BY IDOCK:   -1.65 KCAL/MOL
REMARK 927      BINDING AFFINITY PREDICTED BY RF-SCORE:    0.00 PKD
ROOT
HETATM    1  C   UNL     1      -6.372  14.856  71.170  1.00  0.00     0.353 C  
HETATM    2  C   UNL     1      -6.382  13.422  71.670  1.00  0.00     1.468 C  
ENDROOT
BRANCH   2   3
HETATM    3  C   UNL     1      -5.126  12.658  71.247  1.00  0.00    -0.158 C  
BRANCH   3   4
HETATM    4  C   UNL     1      -5.173  12.361  69.749  1.00  0.00    -0.079 C  
BRANCH   4   5
HETATM    5  C   UNL     1      -5.820  11.010  69.436  1.00  0.00    -0.046 C  
BRANCH   5   6
HETATM    6  C   UNL     1      -7.344  11.006  69.648  1.00  0.00    -0.014 C  
HETATM    7  O   UNL     1      -7.714   9.686  70.030  1.00  0.00    -0.119 OA 
HETATM    8  H   UNL     1      -8.656   9.683  70.161  1.00  0.00     0.000 HD 
BRANCH   6   9
HETATM    9  C   UNL     1      -8.110  11.447  68.420  1.00  0.00    -0.145 C  
HETATM   10  C   UNL     1      -9.353  11.956  68.378  1.00  0.00    -0.184 C  
BRANCH  10  11
HETATM   11  C   UNL     1     -10.118  12.229  67.100  1.00  0.00    -0.218 C  
HETATM   12  C   UNL     1      -9.806  13.652  66.593  1.00  0.00    -0.284 C  
HETATM   13  O   UNL     1     -10.546  14.644  67.293  1.00  0.00    -0.277 OA 
HETATM   14  C   UNL     1     -10.173  13.649  65.125  1.00  0.00    -0.349 C  
HETATM   15  H   UNL     1     -10.354  15.520  66.980  1.00  0.00     0.000 HD 
HETATM   16  C   UNL     1      -9.808  12.249  64.739  1.00  0.00    -0.105 C  
HETATM   17  O   UNL     1      -9.583  11.928  63.578  1.00  0.00    -0.277 OA 
HETATM   18  C   UNL     1      -9.763  11.291  65.920  1.00  0.00    -0.258 C  
BRANCH  18  19
HETATM   19  C   UNL     1     -10.782  10.144  65.789  1.00  0.00     0.115 C  
BRANCH  19  20
HETATM   20  C   UNL     1     -10.155   8.743  65.814  1.00  0.00     0.304 C  
BRANCH  20  21
HETATM   21  C   UNL     1      -8.645   8.785  65.567  1.00  0.00    -0.198 C  
BRANCH  21  22
HETATM   22  C   UNL     1      -8.124   7.416  65.119  1.00  0.00    -0.129 C  
BRANCH  22  23
HETATM   23  C   UNL     1      -7.505   6.646  66.286  1.00  0.00    -0.081 C  
BRANCH  23  24
HETATM   24  C   UNL     1      -8.568   5.911  67.105  1.00  0.00    -0.106 C  
HETATM   25  C   UNL     1      -8.544   6.336  68.556  1.00  0.00    -0.114 C  
HETATM   26  O   UNL     1      -7.787   7.160  69.041  1.00  0.00    -0.110 OA 
HETATM   27  O   UNL     1      -9.476   5.688  69.292  1.00  0.00    -0.124 OA 
ENDBRANCH  23  24
ENDBRANCH  22  23
ENDBRANCH  21  22
ENDBRANCH  20  21
ENDBRANCH  19  20
ENDBRANCH  18  19
ENDBRANCH  10  11
ENDBRANCH   6   9
ENDBRANCH   5   6
ENDBRANCH   4   5
ENDBRANCH   3   4
ENDBRANCH   2   3
TORSDOF 12
ENDMDL
MODEL      384
REMARK 921   NORMALIZED FREE ENERGY PREDICTED BY IDOCK:   -0.26 KCAL/MOL
REMARK 922        TOTAL FREE ENERGY PREDICTED BY IDOCK:   -2.39 KCAL/MOL
REMARK 923 INTER-LIGAND FREE ENERGY PREDICTED BY IDOCK:   -1.12 KCAL/MOL
REMARK 924 INTRA-LIGAND FREE ENERGY PREDICTED BY IDOCK:   -1.27 KCAL/MOL
REMARK 927      BINDING AFFINITY PREDICTED BY RF-SCORE:    0.00 PKD
ROOT
HETATM    1  C   UNL     1      -6.372  14.855  71.170  1.00  0.00     0.353 C  
HETATM    2  C   UNL     1      -6.388  13.418  71.659  1.00  0.00     1.468 C  
ENDROOT
BRANCH   2   3
HETATM    3  C   UNL     1      -5.136  12.652  71.228  1.00  0.00    -0.158 C  
BRANCH   3   4
HETATM    4  C   UNL     1      -5.185  12.367  69.728  1.00  0.00    -0.079 C  
BRANCH   4   5
HETATM    5  C   UNL     1      -5.839  11.021  69.406  1.00  0.00    -0.046 C  
BRANCH   5   6
HETATM    6  C   UNL     1      -7.334  10.975  69.762  1.00  0.00     0.061 C  
HETATM    7  O   UNL     1      -7.646   9.628  70.106  1.00  0.00    -0.122 OA 
HETATM    8  H   UNL     1      -8.570   9.600  70.326  1.00  0.00     0.000 HD 
BRANCH   6   9
HETATM    9  C   UNL     1      -8.223  11.464  68.639  1.00  0.00    -0.142 C  
HETATM   10  C   UNL     1      -9.471  11.949  68.744  1.00  0.00    -0.002 C  
BRANCH  10  11
HETATM   11  C   UNL     1     -10.361  12.273  67.563  1.00  0.00    -0.214 C  
HETATM   12  C   UNL     1     -10.120  13.726  67.105  1.00  0.00    -0.241 C  
HETATM   13  O   UNL     1     -10.803  14.666  67.925  1.00  0.00    -0.250 OA 
HETATM   14  C   UNL     1     -10.628  13.791  65.680  1.00  0.00    -0.302 C  
HETATM   15  H   UNL     1     -10.654  15.560  67.642  1.00  0.00     0.000 HD 
HETATM   16  C   UNL     1     -10.283  12.421  65.188  1.00  0.00    -0.281 C  
HETATM   17  O   UNL     1     -10.167  12.164  63.995  1.00  0.00    -0.329 OA 
HETATM   18  C   UNL     1     -10.109  11.404  66.306  1.00  0.00    -0.263 C  
BRANCH  18  19
HETATM   19  C   UNL     1     -11.121  10.246  66.212  1.00  0.00     0.283 C  
BRANCH  19  20
HETATM   20  C   UNL     1     -10.489   8.853  66.334  1.00  0.00    -0.071 C  
BRANCH  20  21
HETATM   21  C   UNL     1      -8.973   8.888  66.125  1.00  0.00    -0.218 C  
BRANCH  21  22
HETATM   22  C   UNL     1      -8.571   8.083  64.886  1.00  0.00     0.000 C  
BRANCH  22  23
HETATM   23  C   UNL     1      -8.081   6.685  65.263  1.00  0.00    -0.130 C  
BRANCH  23  24
HETATM   24  C   UNL     1      -7.648   5.886  64.033  1.00  0.00    -0.085 C  
HETATM   25  C   UNL     1      -8.477   4.633  63.864  1.00  0.00    -0.126 C  
HETATM   26  O   UNL     1      -9.383   4.278  64.598  1.00  0.00    -0.153 OA 
HETATM   27  O   UNL     1      -8.099   3.915  62.781  1.00  0.00    -0.073 OA 
ENDBRANCH  23  24
ENDBRANCH  22  23
ENDBRANCH  21  22
ENDBRANCH  20  21
ENDBRANCH  19  20
ENDBRANCH  18  19
ENDBRANCH  10  11
ENDBRANCH   6   9
ENDBRANCH   5   6
ENDBRANCH   4   5
ENDBRANCH   3   4
ENDBRANCH   2   3
TORSDOF 12
ENDMDL
MODEL      385
REMARK 921   NORMALIZED FREE ENERGY PREDICTED BY IDOCK:   -0.15 KCAL/MOL
REMARK 922        TOTAL FREE ENERGY PREDICTED BY IDOCK:   -2.20 KCAL/MOL
REMARK 923 INTER-LIGAND FREE ENERGY PREDICTED BY IDOCK:   -4.21 KCAL/MOL
REMARK 924 INTRA-LIGAND FREE ENERGY PREDICTED BY IDOCK:    2.01 KCAL/MOL
REMARK 927      BINDING AFFINITY PREDICTED BY RF-SCORE:    0.00 PKD
ROOT
HETATM    1  C   UNL     1     -12.327  11.129  69.657  1.00  0.00    -0.287 C  
HETATM    2  C   UNL     1     -12.296  10.672  71.104  1.00  0.00    -0.505 C  
ENDROOT
BRANCH   2   3
HETATM    3  C   UNL     1     -12.054   9.166  71.225  1.00  0.00    -0.392 C  
BRANCH   3   4
HETATM    4  C   UNL     1     -12.069   8.748  72.694  1.00  0.00    -0.207 C  
BRANCH   4   5
HETATM    5  C   UNL     1     -11.342   7.423  72.937  1.00  0.00    -0.322 C  
BRANCH   5   6
HETATM    6  C   UNL     1     -10.281   7.111  71.868  1.00  0.00    -0.190 C  
HETATM    7  O   UNL     1      -9.672   5.875  72.224  1.00  0.00    -0.160 OA 
HETATM    8  H   UNL     1      -9.017   5.682  71.563  1.00  0.00     0.000 HD 
BRANCH   6   9
HETATM    9  C   UNL     1      -9.244   8.204  71.731  1.00  0.00    -0.232 C  
HETATM   10  C   UNL     1      -8.795   8.760  70.594  1.00  0.00    -0.212 C  
BRANCH  10  11
HETATM   11  C   UNL     1      -7.641   9.737  70.521  1.00  0.00    -0.110 C  
HETATM   12  C   UNL     1      -6.331   9.038  70.943  1.00  0.00    -0.060 C  
HETATM   13  O   UNL     1      -6.209   8.941  72.356  1.00  0.00    -0.139 OA 
HETATM   14  C   UNL     1      -5.217   9.886  70.367  1.00  0.00    -0.042 C  
HETATM   15  H   UNL     1      -5.403   8.511  72.615  1.00  0.00     0.000 HD 
HETATM   16  C   UNL     1      -5.840  10.354  69.090  1.00  0.00    -0.037 C  
HETATM   17  O   UNL     1      -5.171  10.745  68.140  1.00  0.00    -0.037 OA 
HETATM   18  C   UNL     1      -7.361  10.304  69.107  1.00  0.00    -0.096 C  
BRANCH  18  19
HETATM   19  C   UNL     1      -7.999  11.694  68.923  1.00  0.00    -0.026 C  
BRANCH  19  20
HETATM   20  C   UNL     1      -7.271  12.587  67.909  1.00  0.00    -0.115 C  
BRANCH  20  21
HETATM   21  C   UNL     1      -5.892  13.022  68.411  1.00  0.00    -0.077 C  
BRANCH  21  22
HETATM   22  C   UNL     1      -5.960  14.399  69.077  1.00  0.00    -0.089 C  
BRANCH  22  23
HETATM   23  C   UNL     1      -6.254  15.499  68.056  1.00  0.00    -0.153 C  
BRANCH  23  24
HETATM   24  C   UNL     1      -6.105  16.893  68.668  1.00  0.00    -0.148 C  
HETATM   25  C   UNL     1      -6.427  17.978  67.666  1.00  0.00    -0.181 C  
HETATM   26  O   UNL     1      -6.767  17.796  66.509  1.00  0.00    -0.182 OA 
HETATM   27  O   UNL     1      -6.293  19.215  68.195  1.00  0.00    -0.214 OA 
ENDBRANCH  23  24
ENDBRANCH  22  23
ENDBRANCH  21  22
ENDBRANCH  20  21
ENDBRANCH  19  20
ENDBRANCH  18  19
ENDBRANCH  10  11
ENDBRANCH   6   9
ENDBRANCH   5   6
ENDBRANCH   4   5
ENDBRANCH   3   4
ENDBRANCH   2   3
TORSDOF 12
ENDMDL
MODEL      386
REMARK 921   NORMALIZED FREE ENERGY PREDICTED BY IDOCK:    0.11 KCAL/MOL
REMARK 922        TOTAL FREE ENERGY PREDICTED BY IDOCK:   -1.76 KCAL/MOL
REMARK 923 INTER-LIGAND FREE ENERGY PREDICTED BY IDOCK:   -0.03 KCAL/MOL
REMARK 924 INTRA-LIGAND FREE ENERGY PREDICTED BY IDOCK:   -1.73 KCAL/MOL
REMARK 927      BINDING AFFINITY PREDICTED BY RF-SCORE:    0.00 PKD
ROOT
HETATM    1  C   UNL     1      -6.208  14.125  71.816  1.00  0.00     0.443 C  
HETATM    2  C   UNL     1      -6.385  12.686  72.266  1.00  0.00     3.555 C  
ENDROOT
BRANCH   2   3
HETATM    3  C   UNL     1      -5.185  11.815  71.889  1.00  0.00     0.207 C  
BRANCH   3   4
HETATM    4  C   UNL     1      -5.157  11.586  70.379  1.00  0.00    -0.091 C  
BRANCH   4   5
HETATM    5  C   UNL     1      -5.684  10.205  69.983  1.00  0.00    -0.049 C  
BRANCH   5   6
HETATM    6  C   UNL     1      -7.188  10.032  70.253  1.00  0.00    -0.147 C  
HETATM    7  O   UNL     1      -7.364   8.760  70.869  1.00  0.00    -0.066 OA 
HETATM    8  H   UNL     1      -8.294   8.653  71.036  1.00  0.00     0.000 HD 
BRANCH   6   9
HETATM    9  C   UNL     1      -8.029  10.145  69.000  1.00  0.00    -0.115 C  
HETATM   10  C   UNL     1      -9.343  10.413  68.925  1.00  0.00    -0.190 C  
BRANCH  10  11
HETATM   11  C   UNL     1     -10.152  10.355  67.647  1.00  0.00    -0.223 C  
HETATM   12  C   UNL     1     -10.033  11.693  66.887  1.00  0.00    -0.202 C  
HETATM   13  O   UNL     1     -10.887  12.693  67.427  1.00  0.00    -0.234 OA 
HETATM   14  C   UNL     1     -10.414  11.381  65.455  1.00  0.00    -0.322 C  
HETATM   15  H   UNL     1     -10.813  13.516  66.958  1.00  0.00     0.000 HD 
HETATM   16  C   UNL     1      -9.876   9.992  65.309  1.00  0.00    -0.318 C  
HETATM   17  O   UNL     1      -9.625   9.499  64.216  1.00  0.00    -0.061 OA 
HETATM   18  C   UNL     1      -9.693   9.274  66.638  1.00  0.00    -0.281 C  
BRANCH  18  19
HETATM   19  C   UNL     1     -10.557   8.003  66.746  1.00  0.00    -0.225 C  
BRANCH  19  20
HETATM   20  C   UNL     1      -9.751   6.714  66.953  1.00  0.00    -0.209 C  
BRANCH  20  21
HETATM   21  C   UNL     1      -8.838   6.798  68.180  1.00  0.00    -0.120 C  
BRANCH  21  22
HETATM   22  C   UNL     1      -9.030   5.581  69.091  1.00  0.00    -0.120 C  
BRANCH  22  23
HETATM   23  C   UNL     1      -9.741   5.964  70.389  1.00  0.00    -0.217 C  
BRANCH  23  24
HETATM   24  C   UNL     1     -10.661   7.170  70.196  1.00  0.00    -0.247 C  
HETATM   25  C   UNL     1     -11.286   7.608  71.501  1.00  0.00    -0.255 C  
HETATM   26  O   UNL     1     -11.099   7.086  72.587  1.00  0.00    -0.257 OA 
HETATM   27  O   UNL     1     -12.106   8.671  71.341  1.00  0.00    -0.288 OA 
ENDBRANCH  23  24
ENDBRANCH  22  23
ENDBRANCH  21  22
ENDBRANCH  20  21
ENDBRANCH  19  20
ENDBRANCH  18  19
ENDBRANCH  10  11
ENDBRANCH   6   9
ENDBRANCH   5   6
ENDBRANCH   4   5
ENDBRANCH   3   4
ENDBRANCH   2   3
TORSDOF 12
ENDMDL
MODEL      387
REMARK 921   NORMALIZED FREE ENERGY PREDICTED BY IDOCK:    0.29 KCAL/MOL
REMARK 922        TOTAL FREE ENERGY PREDICTED BY IDOCK:   -1.46 KCAL/MOL
REMARK 923 INTER-LIGAND FREE ENERGY PREDICTED BY IDOCK:   -2.09 KCAL/MOL
REMARK 924 INTRA-LIGAND FREE ENERGY PREDICTED BY IDOCK:    0.63 KCAL/MOL
REMARK 927      BINDING AFFINITY PREDICTED BY RF-SCORE:    0.00 PKD
ROOT
HETATM    1  C   UNL     1     -12.694  14.704  71.020  1.00  0.00    -0.406 C  
HETATM    2  C   UNL     1     -13.797  13.806  71.552  1.00  0.00    -0.226 C  
ENDROOT
BRANCH   2   3
HETATM    3  C   UNL     1     -13.704  12.387  70.988  1.00  0.00     1.271 C  
BRANCH   3   4
HETATM    4  C   UNL     1     -12.550  11.635  71.649  1.00  0.00    -0.278 C  
BRANCH   4   5
HETATM    5  C   UNL     1     -12.278  10.280  70.993  1.00  0.00    -0.487 C  
BRANCH   5   6
HETATM    6  C   UNL     1     -10.907  10.209  70.299  1.00  0.00    -0.310 C  
HETATM    7  O   UNL     1     -10.350  11.519  70.327  1.00  0.00     0.454 OA 
HETATM    8  H   UNL     1      -9.503  11.475  69.898  1.00  0.00     0.000 HD 
BRANCH   6   9
HETATM    9  C   UNL     1     -10.990   9.688  68.881  1.00  0.00    -0.153 C  
HETATM   10  C   UNL     1     -10.288   8.677  68.344  1.00  0.00    -0.239 C  
BRANCH  10  11
HETATM   11  C   UNL     1     -10.307   8.313  66.875  1.00  0.00    -0.391 C  
HETATM   12  C   UNL     1      -9.551   9.381  66.057  1.00  0.00    -0.261 C  
HETATM   13  O   UNL     1     -10.346  10.535  65.820  1.00  0.00    -0.249 OA 
HETATM   14  C   UNL     1      -9.184   8.707  64.752  1.00  0.00     0.324 C  
HETATM   15  H   UNL     1      -9.880  11.192  65.316  1.00  0.00     0.000 HD 
HETATM   16  C   UNL     1      -8.933   7.305  65.211  1.00  0.00     0.300 C  
HETATM   17  O   UNL     1      -8.252   6.516  64.565  1.00  0.00    -0.111 OA 
HETATM   18  C   UNL     1      -9.613   6.972  66.531  1.00  0.00    -0.201 C  
BRANCH  18  19
HETATM   19  C   UNL     1     -10.636   5.828  66.396  1.00  0.00    -0.219 C  
BRANCH  19  20
HETATM   20  C   UNL     1     -10.022   4.486  65.977  1.00  0.00    -0.265 C  
BRANCH  20  21
HETATM   21  C   UNL     1     -10.451   4.072  64.567  1.00  0.00    -0.215 C  
BRANCH  21  22
HETATM   22  C   UNL     1      -9.706   2.813  64.114  1.00  0.00    -0.151 C  
BRANCH  22  23
HETATM   23  C   UNL     1      -9.099   2.995  62.722  1.00  0.00    -0.091 C  
BRANCH  23  24
HETATM   24  C   UNL     1      -7.876   3.913  62.754  1.00  0.00    -0.062 C  
HETATM   25  C   UNL     1      -7.013   3.649  63.967  1.00  0.00    -0.045 C  
HETATM   26  O   UNL     1      -7.235   2.815  64.827  1.00  0.00    -0.059 OA 
HETATM   27  O   UNL     1      -5.932   4.461  64.008  1.00  0.00    -0.017 OA 
ENDBRANCH  23  24
ENDBRANCH  22  23
ENDBRANCH  21  22
ENDBRANCH  20  21
ENDBRANCH  19  20
ENDBRANCH  18  19
ENDBRANCH  10  11
ENDBRANCH   6   9
ENDBRANCH   5   6
ENDBRANCH   4   5
ENDBRANCH   3   4
ENDBRANCH   2   3
TORSDOF 12
ENDMDL
MODEL      388
REMARK 921   NORMALIZED FREE ENERGY PREDICTED BY IDOCK:    0.65 KCAL/MOL
REMARK 922        TOTAL FREE ENERGY PREDICTED BY IDOCK:   -0.85 KCAL/MOL
REMARK 923 INTER-LIGAND FREE ENERGY PREDICTED BY IDOCK:   -3.79 KCAL/MOL
REMARK 924 INTRA-LIGAND FREE ENERGY PREDICTED BY IDOCK:    2.94 KCAL/MOL
REMARK 927      BINDING AFFINITY PREDICTED BY RF-SCORE:    0.00 PKD
ROOT
HETATM    1  C   UNL     1     -10.875  13.291  65.492  1.00  0.00    -0.297 C  
HETATM    2  C   UNL     1     -10.140  14.161  66.496  1.00  0.00    -0.283 C  
ENDROOT
BRANCH   2   3
HETATM    3  C   UNL     1      -9.698  15.493  65.885  1.00  0.00    -0.392 C  
BRANCH   3   4
HETATM    4  C   UNL     1      -8.392  15.957  66.528  1.00  0.00    -0.330 C  
BRANCH   4   5
HETATM    5  C   UNL     1      -8.177  15.359  67.920  1.00  0.00    -0.150 C  
BRANCH   5   6
HETATM    6  C   UNL     1      -8.904  14.018  68.122  1.00  0.00    -0.182 C  
HETATM    7  O   UNL     1      -9.868  14.210  69.151  1.00  0.00    -0.415 OA 
HETATM    8  H   UNL     1     -10.317  13.382  69.276  1.00  0.00     0.000 HD 
BRANCH   6   9
HETATM    9  C   UNL     1      -7.963  12.884  68.468  1.00  0.00    -0.095 C  
HETATM   10  C   UNL     1      -7.255  12.127  67.614  1.00  0.00    -0.123 C  
BRANCH  10  11
HETATM   11  C   UNL     1      -6.456  10.907  68.020  1.00  0.00    -0.058 C  
HETATM   12  C   UNL     1      -6.853  10.468  69.445  1.00  0.00    -0.088 C  
HETATM   13  O   UNL     1      -6.222  11.259  70.443  1.00  0.00    -0.213 OA 
HETATM   14  C   UNL     1      -6.420   9.021  69.558  1.00  0.00    -0.043 C  
HETATM   15  H   UNL     1      -6.466  10.989  71.321  1.00  0.00     0.000 HD 
HETATM   16  C   UNL     1      -6.659   8.538  68.162  1.00  0.00    -0.061 C  
HETATM   17  O   UNL     1      -6.807   7.351  67.897  1.00  0.00    -0.068 OA 
HETATM   18  C   UNL     1      -6.685   9.658  67.133  1.00  0.00    -0.075 C  
BRANCH  18  19
HETATM   19  C   UNL     1      -5.576   9.512  66.074  1.00  0.00    -0.048 C  
BRANCH  19  20
HETATM   20  C   UNL     1      -6.063   8.945  64.733  1.00  0.00    -0.065 C  
BRANCH  20  21
HETATM   21  C   UNL     1      -7.475   9.426  64.384  1.00  0.00    -0.110 C  
BRANCH  21  22
HETATM   22  C   UNL     1      -8.533   8.476  64.953  1.00  0.00    -0.166 C  
BRANCH  22  23
HETATM   23  C   UNL     1      -7.996   7.050  65.074  1.00  0.00    -0.129 C  
BRANCH  23  24
HETATM   24  C   UNL     1      -8.108   6.289  63.752  1.00  0.00    -0.050 C  
HETATM   25  C   UNL     1      -8.547   4.858  63.968  1.00  0.00    -0.133 C  
HETATM   26  O   UNL     1      -8.789   4.347  65.048  1.00  0.00    -0.129 OA 
HETATM   27  O   UNL     1      -8.643   4.175  62.805  1.00  0.00    -0.087 OA 
ENDBRANCH  23  24
ENDBRANCH  22  23
ENDBRANCH  21  22
ENDBRANCH  20  21
ENDBRANCH  19  20
ENDBRANCH  18  19
ENDBRANCH  10  11
ENDBRANCH   6   9
ENDBRANCH   5   6
ENDBRANCH   4   5
ENDBRANCH   3   4
ENDBRANCH   2   3
TORSDOF 12
ENDMDL
MODEL      389
REMARK 921   NORMALIZED FREE ENERGY PREDICTED BY IDOCK:    1.07 KCAL/MOL
REMARK 922        TOTAL FREE ENERGY PREDICTED BY IDOCK:   -0.13 KCAL/MOL
REMARK 923 INTER-LIGAND FREE ENERGY PREDICTED BY IDOCK:    1.41 KCAL/MOL
REMARK 924 INTRA-LIGAND FREE ENERGY PREDICTED BY IDOCK:   -1.54 KCAL/MOL
REMARK 927      BINDING AFFINITY PREDICTED BY RF-SCORE:    0.00 PKD
ROOT
HETATM    1  C   UNL     1      -6.217  14.122  71.815  1.00  0.00     0.443 C  
HETATM    2  C   UNL     1      -6.408  12.673  72.223  1.00  0.00     3.555 C  
ENDROOT
BRANCH   2   3
HETATM    3  C   UNL     1      -5.209  11.805  71.838  1.00  0.00     0.207 C  
BRANCH   3   4
HETATM    4  C   UNL     1      -5.143  11.646  70.320  1.00  0.00    -0.086 C  
BRANCH   4   5
HETATM    5  C   UNL     1      -5.683  10.294  69.846  1.00  0.00    -0.047 C  
BRANCH   5   6
HETATM    6  C   UNL     1      -7.200  10.143  70.055  1.00  0.00    -0.161 C  
HETATM    7  O   UNL     1      -7.424   8.847  70.601  1.00  0.00    -0.067 OA 
HETATM    8  H   UNL     1      -8.361   8.753  70.730  1.00  0.00     0.000 HD 
BRANCH   6   9
HETATM    9  C   UNL     1      -7.992  10.335  68.780  1.00  0.00    -0.113 C  
HETATM   10  C   UNL     1      -9.297  10.634  68.673  1.00  0.00    -0.177 C  
BRANCH  10  11
HETATM   11  C   UNL     1     -10.061  10.657  67.366  1.00  0.00    -0.231 C  
HETATM   12  C   UNL     1      -9.890  12.028  66.679  1.00  0.00    -0.204 C  
HETATM   13  O   UNL     1     -10.745  13.016  67.239  1.00  0.00    -0.246 OA 
HETATM   14  C   UNL     1     -10.225  11.796  65.222  1.00  0.00    -0.307 C  
HETATM   15  H   UNL     1     -10.639  13.861  66.816  1.00  0.00     0.000 HD 
HETATM   16  C   UNL     1      -9.707  10.406  65.024  1.00  0.00    -0.300 C  
HETATM   17  O   UNL     1      -9.426   9.963  63.916  1.00  0.00    -0.273 OA 
HETATM   18  C   UNL     1      -9.585   9.618  66.320  1.00  0.00    -0.281 C  
BRANCH  18  19
HETATM   19  C   UNL     1     -10.476   8.361  66.333  1.00  0.00     0.117 C  
BRANCH  19  20
HETATM   20  C   UNL     1      -9.701   7.048  66.506  1.00  0.00    -0.189 C  
BRANCH  20  21
HETATM   21  C   UNL     1      -9.018   6.607  65.209  1.00  0.00     0.233 C  
BRANCH  21  22
HETATM   22  C   UNL     1      -7.539   6.289  65.448  1.00  0.00    -0.088 C  
BRANCH  22  23
HETATM   23  C   UNL     1      -6.633   7.349  64.821  1.00  0.00    -0.043 C  
BRANCH  23  24
HETATM   24  C   UNL     1      -6.604   8.632  65.653  1.00  0.00    -0.060 C  
HETATM   25  C   UNL     1      -5.787   9.713  64.982  1.00  0.00    -0.070 C  
HETATM   26  O   UNL     1      -5.213   9.606  63.912  1.00  0.00    -0.059 OA 
HETATM   27  O   UNL     1      -5.750  10.850  65.713  1.00  0.00    -0.138 OA 
ENDBRANCH  23  24
ENDBRANCH  22  23
ENDBRANCH  21  22
ENDBRANCH  20  21
ENDBRANCH  19  20
ENDBRANCH  18  19
ENDBRANCH  10  11
ENDBRANCH   6   9
ENDBRANCH   5   6
ENDBRANCH   4   5
ENDBRANCH   3   4
ENDBRANCH   2   3
TORSDOF 12
ENDMDL
MODEL      390
REMARK 921   NORMALIZED FREE ENERGY PREDICTED BY IDOCK:    1.46 KCAL/MOL
REMARK 922        TOTAL FREE ENERGY PREDICTED BY IDOCK:    0.53 KCAL/MOL
REMARK 923 INTER-LIGAND FREE ENERGY PREDICTED BY IDOCK:    1.24 KCAL/MOL
REMARK 924 INTRA-LIGAND FREE ENERGY PREDICTED BY IDOCK:   -0.71 KCAL/MOL
REMARK 927      BINDING AFFINITY PREDICTED BY RF-SCORE:    0.00 PKD
ROOT
HETATM    1  C   UNL     1      -5.969  13.580  74.038  1.00  0.00     0.507 C  
HETATM    2  C   UNL     1      -6.654  12.316  74.526  1.00  0.00     3.154 C  
ENDROOT
BRANCH   2   3
HETATM    3  C   UNL     1      -5.715  11.109  74.503  1.00  0.00     0.892 C  
BRANCH   3   4
HETATM    4  C   UNL     1      -5.134  10.922  73.103  1.00  0.00     0.368 C  
BRANCH   4   5
HETATM    5  C   UNL     1      -5.412   9.530  72.531  1.00  0.00     0.011 C  
BRANCH   5   6
HETATM    6  C   UNL     1      -6.896   9.299  72.200  1.00  0.00     0.388 C  
HETATM    7  O   UNL     1      -7.255   8.028  72.733  1.00  0.00    -0.084 OA 
HETATM    8  H   UNL     1      -8.172   7.885  72.528  1.00  0.00     0.000 HD 
BRANCH   6   9
HETATM    9  C   UNL     1      -7.186   9.362  70.716  1.00  0.00    -0.123 C  
HETATM   10  C   UNL     1      -8.368   9.616  70.130  1.00  0.00    -0.221 C  
BRANCH  10  11
HETATM   11  C   UNL     1      -8.620   9.509  68.641  1.00  0.00    -0.119 C  
HETATM   12  C   UNL     1      -9.170   8.107  68.300  1.00  0.00    -0.134 C  
HETATM   13  O   UNL     1      -8.139   7.131  68.234  1.00  0.00    -0.121 OA 
HETATM   14  C   UNL     1      -9.851   8.256  66.957  1.00  0.00    -0.298 C  
HETATM   15  H   UNL     1      -8.478   6.268  68.024  1.00  0.00     0.000 HD 
HETATM   16  C   UNL     1     -10.397   9.646  67.062  1.00  0.00    -0.248 C  
HETATM   17  O   UNL     1     -11.331  10.037  66.370  1.00  0.00     0.376 OA 
HETATM   18  C   UNL     1      -9.672  10.502  68.089  1.00  0.00    -0.166 C  
BRANCH  18  19
HETATM   19  C   UNL     1      -9.001  11.737  67.459  1.00  0.00    -0.168 C  
BRANCH  19  20
HETATM   20  C   UNL     1      -9.613  13.074  67.899  1.00  0.00    -0.215 C  
BRANCH  20  21
HETATM   21  C   UNL     1     -11.135  13.092  67.736  1.00  0.00    -0.291 C  
BRANCH  21  22
HETATM   22  C   UNL     1     -11.531  13.568  66.335  1.00  0.00    -0.356 C  
BRANCH  22  23
HETATM   23  C   UNL     1     -11.710  15.085  66.291  1.00  0.00    -0.096 C  
BRANCH  23  24
HETATM   24  C   UNL     1     -10.405  15.818  66.609  1.00  0.00    -0.292 C  
HETATM   25  C   UNL     1     -10.106  16.892  65.588  1.00  0.00    -0.150 C  
HETATM   26  O   UNL     1     -10.800  17.165  64.623  1.00  0.00    -0.852 OA 
HETATM   27  O   UNL     1      -8.951  17.542  65.856  1.00  0.00    -0.517 OA 
ENDBRANCH  23  24
ENDBRANCH  22  23
ENDBRANCH  21  22
ENDBRANCH  20  21
ENDBRANCH  19  20
ENDBRANCH  18  19
ENDBRANCH  10  11
ENDBRANCH   6   9
ENDBRANCH   5   6
ENDBRANCH   4   5
ENDBRANCH   3   4
ENDBRANCH   2   3
TORSDOF 12
ENDMDL
MODEL      391
REMARK 921   NORMALIZED FREE ENERGY PREDICTED BY IDOCK:    1.77 KCAL/MOL
REMARK 922        TOTAL FREE ENERGY PREDICTED BY IDOCK:    1.07 KCAL/MOL
REMARK 923 INTER-LIGAND FREE ENERGY PREDICTED BY IDOCK:    2.01 KCAL/MOL
REMARK 924 INTRA-LIGAND FREE ENERGY PREDICTED BY IDOCK:   -0.95 KCAL/MOL
REMARK 927      BINDING AFFINITY PREDICTED BY RF-SCORE:    0.00 PKD
ROOT
HETATM    1  C   UNL     1     -13.164  15.825  64.416  1.00  0.00     1.959 C  
HETATM    2  C   UNL     1     -12.177  16.818  65.005  1.00  0.00     2.664 C  
ENDROOT
BRANCH   2   3
HETATM    3  C   UNL     1     -11.322  16.190  66.108  1.00  0.00     0.376 C  
BRANCH   3   4
HETATM    4  C   UNL     1     -11.358  14.667  65.997  1.00  0.00    -0.344 C  
BRANCH   4   5
HETATM    5  C   UNL     1      -9.965  14.055  65.837  1.00  0.00    -0.325 C  
BRANCH   5   6
HETATM    6  C   UNL     1      -9.961  12.774  64.986  1.00  0.00    -0.150 C  
HETATM    7  O   UNL     1     -11.319  12.444  64.711  1.00  0.00    -0.298 OA 
HETATM    8  H   UNL     1     -11.316  11.652  64.186  1.00  0.00     0.000 HD 
BRANCH   6   9
HETATM    9  C   UNL     1      -9.252  11.620  65.661  1.00  0.00    -0.150 C  
HETATM   10  C   UNL     1      -9.022  11.465  66.975  1.00  0.00    -0.166 C  
BRANCH  10  11
HETATM   11  C   UNL     1      -8.168  10.364  67.567  1.00  0.00    -0.114 C  
HETATM   12  C   UNL     1      -6.674  10.718  67.415  1.00  0.00    -0.076 C  
HETATM   13  O   UNL     1      -6.189  10.443  66.107  1.00  0.00    -0.083 OA 
HETATM   14  C   UNL     1      -5.952   9.871  68.441  1.00  0.00    -0.042 C  
HETATM   15  H   UNL     1      -5.269  10.660  66.014  1.00  0.00     0.000 HD 
HETATM   16  C   UNL     1      -6.958   9.839  69.549  1.00  0.00    -0.064 C  
HETATM   17  O   UNL     1      -6.647   9.592  70.709  1.00  0.00    -0.096 OA 
HETATM   18  C   UNL     1      -8.377  10.127  69.082  1.00  0.00    -0.154 C  
BRANCH  18  19
HETATM   19  C   UNL     1      -9.333   8.946  69.339  1.00  0.00    -0.153 C  
BRANCH  19  20
HETATM   20  C   UNL     1      -9.719   8.167  68.074  1.00  0.00    -0.186 C  
BRANCH  20  21
HETATM   21  C   UNL     1      -8.690   7.088  67.726  1.00  0.00    -0.121 C  
BRANCH  21  22
HETATM   22  C   UNL     1      -7.872   6.693  68.959  1.00  0.00    -0.111 C  
BRANCH  22  23
HETATM   23  C   UNL     1      -7.843   5.176  69.147  1.00  0.00    -0.081 C  
BRANCH  23  24
HETATM   24  C   UNL     1      -7.954   4.786  70.622  1.00  0.00    -0.073 C  
HETATM   25  C   UNL     1      -8.472   3.375  70.787  1.00  0.00    -0.069 C  
HETATM   26  O   UNL     1      -8.770   2.618  69.879  1.00  0.00    -0.058 OA 
HETATM   27  O   UNL     1      -8.579   3.022  72.088  1.00  0.00    -0.072 OA 
ENDBRANCH  23  24
ENDBRANCH  22  23
ENDBRANCH  21  22
ENDBRANCH  20  21
ENDBRANCH  19  20
ENDBRANCH  18  19
ENDBRANCH  10  11
ENDBRANCH   6   9
ENDBRANCH   5   6
ENDBRANCH   4   5
ENDBRANCH   3   4
ENDBRANCH   2   3
TORSDOF 12
ENDMDL
MODEL      392
REMARK 921   NORMALIZED FREE ENERGY PREDICTED BY IDOCK:    1.80 KCAL/MOL
REMARK 922        TOTAL FREE ENERGY PREDICTED BY IDOCK:    1.12 KCAL/MOL
REMARK 923 INTER-LIGAND FREE ENERGY PREDICTED BY IDOCK:    2.46 KCAL/MOL
REMARK 924 INTRA-LIGAND FREE ENERGY PREDICTED BY IDOCK:   -1.34 KCAL/MOL
REMARK 927      BINDING AFFINITY PREDICTED BY RF-SCORE:    0.00 PKD
ROOT
HETATM    1  C   UNL     1      -6.075  13.520  74.003  1.00  0.00     0.727 C  
HETATM    2  C   UNL     1      -6.733  12.271  74.560  1.00  0.00     3.632 C  
ENDROOT
BRANCH   2   3
HETATM    3  C   UNL     1      -5.846  11.034  74.401  1.00  0.00     1.154 C  
BRANCH   3   4
HETATM    4  C   UNL     1      -5.154  11.058  73.039  1.00  0.00     0.394 C  
BRANCH   4   5
HETATM    5  C   UNL     1      -5.582   9.893  72.142  1.00  0.00     0.150 C  
BRANCH   5   6
HETATM    6  C   UNL     1      -6.132   8.693  72.931  1.00  0.00    -0.078 C  
HETATM    7  O   UNL     1      -5.205   7.623  72.775  1.00  0.00    -0.037 OA 
HETATM    8  H   UNL     1      -5.545   6.881  73.262  1.00  0.00     0.000 HD 
BRANCH   6   9
HETATM    9  C   UNL     1      -7.516   8.277  72.483  1.00  0.00    -0.152 C  
HETATM   10  C   UNL     1      -8.264   7.277  72.978  1.00  0.00    -0.131 C  
BRANCH  10  11
HETATM   11  C   UNL     1      -9.574   6.816  72.377  1.00  0.00    -0.164 C  
HETATM   12  C   UNL     1     -10.668   6.778  73.465  1.00  0.00    -0.292 C  
HETATM   13  O   UNL     1     -10.582   5.608  74.269  1.00  0.00    -0.276 OA 
HETATM   14  C   UNL     1     -11.984   6.816  72.718  1.00  0.00     0.159 C  
HETATM   15  H   UNL     1     -11.255   5.585  74.938  1.00  0.00     0.000 HD 
HETATM   16  C   UNL     1     -11.631   7.692  71.557  1.00  0.00    -0.274 C  
HETATM   17  O   UNL     1     -12.480   8.295  70.910  1.00  0.00    -0.160 OA 
HETATM   18  C   UNL     1     -10.138   7.738  71.268  1.00  0.00    -0.203 C  
BRANCH  18  19
HETATM   19  C   UNL     1      -9.792   7.205  69.865  1.00  0.00    -0.174 C  
BRANCH  19  20
HETATM   20  C   UNL     1      -8.837   8.107  69.071  1.00  0.00    -0.144 C  
BRANCH  20  21
HETATM   21  C   UNL     1      -9.566   9.289  68.426  1.00  0.00    -0.158 C  
BRANCH  21  22
HETATM   22  C   UNL     1      -9.474   9.223  66.898  1.00  0.00    -0.211 C  
BRANCH  22  23
HETATM   23  C   UNL     1     -10.493  10.151  66.237  1.00  0.00    -0.192 C  
BRANCH  23  24
HETATM   24  C   UNL     1     -11.333  10.899  67.274  1.00  0.00    -0.230 C  
HETATM   25  C   UNL     1     -11.428  12.374  66.954  1.00  0.00    -0.360 C  
HETATM   26  O   UNL     1     -10.914  12.926  65.996  1.00  0.00    -0.272 OA 
HETATM   27  O   UNL     1     -12.164  13.046  67.868  1.00  0.00    -0.249 OA 
ENDBRANCH  23  24
ENDBRANCH  22  23
ENDBRANCH  21  22
ENDBRANCH  20  21
ENDBRANCH  19  20
ENDBRANCH  18  19
ENDBRANCH  10  11
ENDBRANCH   6   9
ENDBRANCH   5   6
ENDBRANCH   4   5
ENDBRANCH   3   4
ENDBRANCH   2   3
TORSDOF 12
ENDMDL
MODEL      393
REMARK 921   NORMALIZED FREE ENERGY PREDICTED BY IDOCK:    1.83 KCAL/MOL
REMARK 922        TOTAL FREE ENERGY PREDICTED BY IDOCK:    1.17 KCAL/MOL
REMARK 923 INTER-LIGAND FREE ENERGY PREDICTED BY IDOCK:    2.02 KCAL/MOL
REMARK 924 INTRA-LIGAND FREE ENERGY PREDICTED BY IDOCK:   -0.85 KCAL/MOL
REMARK 927      BINDING AFFINITY PREDICTED BY RF-SCORE:    0.00 PKD
ROOT
HETATM    1  C   UNL     1      -6.009  13.577  74.020  1.00  0.00     0.507 C  
HETATM    2  C   UNL     1      -6.745  12.346  74.518  1.00  0.00     3.471 C  
ENDROOT
BRANCH   2   3
HETATM    3  C   UNL     1      -5.864  11.095  74.476  1.00  0.00     1.093 C  
BRANCH   3   4
HETATM    4  C   UNL     1      -5.148  11.003  73.130  1.00  0.00     0.406 C  
BRANCH   4   5
HETATM    5  C   UNL     1      -5.424   9.684  72.405  1.00  0.00     0.038 C  
BRANCH   5   6
HETATM    6  C   UNL     1      -6.878   9.555  71.919  1.00  0.00     0.535 C  
HETATM    7  O   UNL     1      -7.343   8.269  72.314  1.00  0.00    -0.095 OA 
HETATM    8  H   UNL     1      -8.241   8.189  72.014  1.00  0.00     0.000 HD 
BRANCH   6   9
HETATM    9  C   UNL     1      -7.019   9.744  70.424  1.00  0.00    -0.139 C  
HETATM   10  C   UNL     1      -8.128  10.087  69.750  1.00  0.00    -0.188 C  
BRANCH  10  11
HETATM   11  C   UNL     1      -8.236  10.104  68.240  1.00  0.00    -0.110 C  
HETATM   12  C   UNL     1      -8.788   8.754  67.736  1.00  0.00    -0.136 C  
HETATM   13  O   UNL     1      -7.784   7.749  67.691  1.00  0.00    -0.116 OA 
HETATM   14  C   UNL     1      -9.331   9.030  66.350  1.00  0.00    -0.264 C  
HETATM   15  H   UNL     1      -8.124   6.918  67.380  1.00  0.00     0.000 HD 
HETATM   16  C   UNL     1      -9.845  10.426  66.514  1.00  0.00    -0.206 C  
HETATM   17  O   UNL     1     -10.696  10.902  65.771  1.00  0.00    -0.204 OA 
HETATM   18  C   UNL     1      -9.201  11.174  67.672  1.00  0.00    -0.151 C  
BRANCH  18  19
HETATM   19  C   UNL     1      -8.438  12.430  67.211  1.00  0.00    -0.183 C  
BRANCH  19  20
HETATM   20  C   UNL     1      -9.052  13.749  67.698  1.00  0.00    -0.196 C  
BRANCH  20  21
HETATM   21  C   UNL     1      -8.801  14.897  66.716  1.00  0.00    -0.291 C  
BRANCH  21  22
HETATM   22  C   UNL     1      -8.354  16.162  67.454  1.00  0.00    -0.191 C  
BRANCH  22  23
HETATM   23  C   UNL     1      -7.666  17.147  66.508  1.00  0.00    -0.321 C  
BRANCH  23  24
HETATM   24  C   UNL     1      -7.186  18.398  67.245  1.00  0.00    -0.213 C  
HETATM   25  C   UNL     1      -7.899  19.639  66.757  1.00  0.00    -0.282 C  
HETATM   26  O   UNL     1      -8.755  19.670  65.888  1.00  0.00    -0.399 OA 
HETATM   27  O   UNL     1      -7.478  20.753  67.398  1.00  0.00    -0.344 OA 
ENDBRANCH  23  24
ENDBRANCH  22  23
ENDBRANCH  21  22
ENDBRANCH  20  21
ENDBRANCH  19  20
ENDBRANCH  18  19
ENDBRANCH  10  11
ENDBRANCH   6   9
ENDBRANCH   5   6
ENDBRANCH   4   5
ENDBRANCH   3   4
ENDBRANCH   2   3
TORSDOF 12
ENDMDL
MODEL      394
REMARK 921   NORMALIZED FREE ENERGY PREDICTED BY IDOCK:    1.87 KCAL/MOL
REMARK 922        TOTAL FREE ENERGY PREDICTED BY IDOCK:    1.23 KCAL/MOL
REMARK 923 INTER-LIGAND FREE ENERGY PREDICTED BY IDOCK:    0.71 KCAL/MOL
REMARK 924 INTRA-LIGAND FREE ENERGY PREDICTED BY IDOCK:    0.51 KCAL/MOL
REMARK 927      BINDING AFFINITY PREDICTED BY RF-SCORE:    0.00 PKD
ROOT
HETATM    1  C   UNL     1     -13.899   5.384  72.547  1.00  0.00     1.666 C  
HETATM    2  C   UNL     1     -14.363   6.752  73.015  1.00  0.00     1.687 C  
ENDROOT
BRANCH   2   3
HETATM    3  C   UNL     1     -13.497   7.877  72.445  1.00  0.00     0.044 C  
BRANCH   3   4
HETATM    4  C   UNL     1     -13.891   8.160  70.997  1.00  0.00     0.024 C  
BRANCH   4   5
HETATM    5  C   UNL     1     -13.888   9.654  70.667  1.00  0.00     0.345 C  
BRANCH   5   6
HETATM    6  C   UNL     1     -12.614  10.375  71.140  1.00  0.00    -0.410 C  
HETATM    7  O   UNL     1     -12.491  11.566  70.370  1.00  0.00    -0.290 OA 
HETATM    8  H   UNL     1     -11.703  12.011  70.662  1.00  0.00     0.000 HD 
BRANCH   6   9
HETATM    9  C   UNL     1     -11.372   9.520  71.013  1.00  0.00    -0.423 C  
HETATM   10  C   UNL     1     -10.620   9.338  69.915  1.00  0.00    -0.246 C  
BRANCH  10  11
HETATM   11  C   UNL     1      -9.482   8.345  69.817  1.00  0.00    -0.162 C  
HETATM   12  C   UNL     1      -8.506   8.770  68.699  1.00  0.00    -0.129 C  
HETATM   13  O   UNL     1      -8.982   8.409  67.409  1.00  0.00    -0.132 OA 
HETATM   14  C   UNL     1      -7.205   8.061  69.006  1.00  0.00    -0.078 C  
HETATM   15  H   UNL     1      -8.382   8.671  66.721  1.00  0.00     0.000 HD 
HETATM   16  C   UNL     1      -7.218   8.068  70.502  1.00  0.00    -0.052 C  
HETATM   17  O   UNL     1      -6.195   7.943  71.166  1.00  0.00    -0.034 OA 
HETATM   18  C   UNL     1      -8.611   8.231  71.092  1.00  0.00    -0.168 C  
BRANCH  18  19
HETATM   19  C   UNL     1      -9.031   7.024  71.952  1.00  0.00    -0.137 C  
BRANCH  19  20
HETATM   20  C   UNL     1     -10.475   6.559  71.715  1.00  0.00    -0.239 C  
BRANCH  20  21
HETATM   21  C   UNL     1     -10.537   5.123  71.188  1.00  0.00    -0.195 C  
BRANCH  21  22
HETATM   22  C   UNL     1      -9.161   4.453  71.259  1.00  0.00    -0.178 C  
BRANCH  22  23
HETATM   23  C   UNL     1      -8.317   4.782  70.027  1.00  0.00    -0.072 C  
BRANCH  23  24
HETATM   24  C   UNL     1      -6.820   4.648  70.316  1.00  0.00    -0.037 C  
HETATM   25  C   UNL     1      -6.545   3.569  71.338  1.00  0.00    -0.026 C  
HETATM   26  O   UNL     1      -7.387   2.874  71.880  1.00  0.00    -0.041 OA 
HETATM   27  O   UNL     1      -5.225   3.446  71.605  1.00  0.00     0.000 OA 
ENDBRANCH  23  24
ENDBRANCH  22  23
ENDBRANCH  21  22
ENDBRANCH  20  21
ENDBRANCH  19  20
ENDBRANCH  18  19
ENDBRANCH  10  11
ENDBRANCH   6   9
ENDBRANCH   5   6
ENDBRANCH   4   5
ENDBRANCH   3   4
ENDBRANCH   2   3
TORSDOF 12
ENDMDL
MODEL      395
REMARK 921   NORMALIZED FREE ENERGY PREDICTED BY IDOCK:    2.21 KCAL/MOL
REMARK 922        TOTAL FREE ENERGY PREDICTED BY IDOCK:    1.82 KCAL/MOL
REMARK 923 INTER-LIGAND FREE ENERGY PREDICTED BY IDOCK:    2.78 KCAL/MOL
REMARK 924 INTRA-LIGAND FREE ENERGY PREDICTED BY IDOCK:   -0.96 KCAL/MOL
REMARK 927      BINDING AFFINITY PREDICTED BY RF-SCORE:    0.00 PKD
ROOT
HETATM    1  C   UNL     1      -6.112  13.396  73.852  1.00  0.00     1.011 C  
HETATM    2  C   UNL     1      -6.838  12.180  74.398  1.00  0.00     4.789 C  
ENDROOT
BRANCH   2   3
HETATM    3  C   UNL     1      -5.987  10.912  74.300  1.00  0.00     1.443 C  
BRANCH   3   4
HETATM    4  C   UNL     1      -5.129  10.953  73.036  1.00  0.00     0.354 C  
BRANCH   4   5
HETATM    5  C   UNL     1      -5.543   9.897  72.009  1.00  0.00     0.111 C  
BRANCH   5   6
HETATM    6  C   UNL     1      -6.128   8.627  72.651  1.00  0.00    -0.077 C  
HETATM    7  O   UNL     1      -5.297   7.537  72.265  1.00  0.00    -0.036 OA 
HETATM    8  H   UNL     1      -5.658   6.752  72.662  1.00  0.00     0.000 HD 
BRANCH   6   9
HETATM    9  C   UNL     1      -7.566   8.375  72.253  1.00  0.00    -0.146 C  
HETATM   10  C   UNL     1      -8.355   9.169  71.512  1.00  0.00     0.059 C  
BRANCH  10  11
HETATM   11  C   UNL     1      -9.833   8.930  71.285  1.00  0.00    -0.361 C  
HETATM   12  C   UNL     1     -10.478   8.369  72.569  1.00  0.00    -0.302 C  
HETATM   13  O   UNL     1     -10.238   6.976  72.723  1.00  0.00    -0.181 OA 
HETATM   14  C   UNL     1     -11.960   8.643  72.430  1.00  0.00    -0.410 C  
HETATM   15  H   UNL     1     -10.636   6.631  73.514  1.00  0.00     0.000 HD 
HETATM   16  C   UNL     1     -11.945   9.948  71.698  1.00  0.00    -0.346 C  
HETATM   17  O   UNL     1     -12.899  10.718  71.712  1.00  0.00    -0.435 OA 
HETATM   18  C   UNL     1     -10.649  10.201  70.943  1.00  0.00     0.050 C  
BRANCH  18  19
HETATM   19  C   UNL     1     -10.868  10.335  69.424  1.00  0.00    -0.282 C  
BRANCH  19  20
HETATM   20  C   UNL     1      -9.590  10.649  68.633  1.00  0.00    -0.179 C  
BRANCH  20  21
HETATM   21  C   UNL     1      -9.314  12.153  68.561  1.00  0.00    -0.108 C  
BRANCH  21  22
HETATM   22  C   UNL     1     -10.402  12.873  67.758  1.00  0.00    -0.223 C  
BRANCH  22  23
HETATM   23  C   UNL     1      -9.967  14.287  67.372  1.00  0.00    -0.242 C  
BRANCH  23  24
HETATM   24  C   UNL     1     -10.849  14.867  66.264  1.00  0.00    -0.331 C  
HETATM   25  C   UNL     1     -10.103  15.892  65.439  1.00  0.00    -0.261 C  
HETATM   26  O   UNL     1      -8.945  16.232  65.609  1.00  0.00    -0.403 OA 
HETATM   27  O   UNL     1     -10.875  16.415  64.460  1.00  0.00    -0.719 OA 
ENDBRANCH  23  24
ENDBRANCH  22  23
ENDBRANCH  21  22
ENDBRANCH  20  21
ENDBRANCH  19  20
ENDBRANCH  18  19
ENDBRANCH  10  11
ENDBRANCH   6   9
ENDBRANCH   5   6
ENDBRANCH   4   5
ENDBRANCH   3   4
ENDBRANCH   2   3
TORSDOF 12
ENDMDL
MODEL      396
REMARK 921   NORMALIZED FREE ENERGY PREDICTED BY IDOCK:    2.41 KCAL/MOL
REMARK 922        TOTAL FREE ENERGY PREDICTED BY IDOCK:    2.15 KCAL/MOL
REMARK 923 INTER-LIGAND FREE ENERGY PREDICTED BY IDOCK:   -2.58 KCAL/MOL
REMARK 924 INTRA-LIGAND FREE ENERGY PREDICTED BY IDOCK:    4.72 KCAL/MOL
REMARK 927      BINDING AFFINITY PREDICTED BY RF-SCORE:    0.00 PKD
ROOT
HETATM    1  C   UNL     1     -10.880  13.308  65.512  1.00  0.00    -0.297 C  
HETATM    2  C   UNL     1     -10.142  14.116  66.565  1.00  0.00    -0.283 C  
ENDROOT
BRANCH   2   3
HETATM    3  C   UNL     1      -9.582  15.422  65.997  1.00  0.00    -0.382 C  
BRANCH   3   4
HETATM    4  C   UNL     1      -8.278  15.785  66.706  1.00  0.00    -0.302 C  
BRANCH   4   5
HETATM    5  C   UNL     1      -8.154  15.128  68.083  1.00  0.00    -0.137 C  
BRANCH   5   6
HETATM    6  C   UNL     1      -9.094  13.924  68.265  1.00  0.00    -0.191 C  
HETATM    7  O   UNL     1      -9.991  14.244  69.323  1.00  0.00    -0.416 OA 
HETATM    8  H   UNL     1     -10.572  13.500  69.436  1.00  0.00     0.000 HD 
BRANCH   6   9
HETATM    9  C   UNL     1      -8.353  12.637  68.557  1.00  0.00    -0.060 C  
HETATM   10  C   UNL     1      -7.790  11.804  67.666  1.00  0.00    -0.138 C  
BRANCH  10  11
HETATM   11  C   UNL     1      -7.203  10.454  68.016  1.00  0.00    -0.084 C  
HETATM   12  C   UNL     1      -7.665  10.028  69.426  1.00  0.00    -0.129 C  
HETATM   13  O   UNL     1      -6.911  10.664  70.450  1.00  0.00    -0.412 OA 
HETATM   14  C   UNL     1      -7.476   8.527  69.477  1.00  0.00    -0.080 C  
HETATM   15  H   UNL     1      -7.196  10.401  71.318  1.00  0.00     0.000 HD 
HETATM   16  C   UNL     1      -7.793   8.147  68.065  1.00  0.00    -0.122 C  
HETATM   17  O   UNL     1      -8.134   7.012  67.753  1.00  0.00    -0.112 OA 
HETATM   18  C   UNL     1      -7.635   9.298  67.082  1.00  0.00    -0.091 C  
BRANCH  18  19
HETATM   19  C   UNL     1      -6.566   9.014  66.009  1.00  0.00    -0.065 C  
BRANCH  19  20
HETATM   20  C   UNL     1      -7.128   8.426  64.707  1.00  0.00    -0.080 C  
BRANCH  20  21
HETATM   21  C   UNL     1      -6.457   9.026  63.469  1.00  0.00    -0.089 C  
BRANCH  21  22
HETATM   22  C   UNL     1      -6.952  10.453  63.214  1.00  0.00    -0.047 C  
BRANCH  22  23
HETATM   23  C   UNL     1      -8.295  10.708  63.900  1.00  0.00    -0.023 C  
BRANCH  23  24
HETATM   24  C   UNL     1      -9.466  10.206  63.054  1.00  0.00    -0.292 C  
HETATM   25  C   UNL     1     -10.633  11.167  63.091  1.00  0.00    -0.103 C  
HETATM   26  O   UNL     1     -10.665  12.218  63.707  1.00  0.00    -0.373 OA 
HETATM   27  O   UNL     1     -11.676  10.729  62.351  1.00  0.00     1.734 OA 
ENDBRANCH  23  24
ENDBRANCH  22  23
ENDBRANCH  21  22
ENDBRANCH  20  21
ENDBRANCH  19  20
ENDBRANCH  18  19
ENDBRANCH  10  11
ENDBRANCH   6   9
ENDBRANCH   5   6
ENDBRANCH   4   5
ENDBRANCH   3   4
ENDBRANCH   2   3
TORSDOF 12
ENDMDL
MODEL      397
REMARK 921   NORMALIZED FREE ENERGY PREDICTED BY IDOCK:    2.59 KCAL/MOL
REMARK 922        TOTAL FREE ENERGY PREDICTED BY IDOCK:    2.46 KCAL/MOL
REMARK 923 INTER-LIGAND FREE ENERGY PREDICTED BY IDOCK:    3.31 KCAL/MOL
REMARK 924 INTRA-LIGAND FREE ENERGY PREDICTED BY IDOCK:   -0.85 KCAL/MOL
REMARK 927      BINDING AFFINITY PREDICTED BY RF-SCORE:    0.00 PKD
ROOT
HETATM    1  C   UNL     1      -6.841  14.891  71.611  1.00  0.00     1.577 C  
HETATM    2  C   UNL     1      -6.638  14.493  73.062  1.00  0.00     1.880 C  
ENDROOT
BRANCH   2   3
HETATM    3  C   UNL     1      -5.613  13.367  73.210  1.00  0.00     0.372 C  
BRANCH   3   4
HETATM    4  C   UNL     1      -5.993  12.191  72.311  1.00  0.00     2.212 C  
BRANCH   4   5
HETATM    5  C   UNL     1      -5.128  12.109  71.052  1.00  0.00    -0.143 C  
BRANCH   5   6
HETATM    6  C   UNL     1      -5.823  11.384  69.887  1.00  0.00    -0.109 C  
HETATM    7  O   UNL     1      -6.632  12.344  69.215  1.00  0.00    -0.102 OA 
HETATM    8  H   UNL     1      -7.062  11.896  68.495  1.00  0.00     0.000 HD 
BRANCH   6   9
HETATM    9  C   UNL     1      -6.652  10.202  70.338  1.00  0.00    -0.132 C  
HETATM   10  C   UNL     1      -6.202   9.011  70.766  1.00  0.00    -0.048 C  
BRANCH  10  11
HETATM   11  C   UNL     1      -7.089   7.818  71.053  1.00  0.00    -0.053 C  
HETATM   12  C   UNL     1      -6.393   6.873  72.055  1.00  0.00    -0.045 C  
HETATM   13  O   UNL     1      -5.423   6.047  71.425  1.00  0.00    -0.020 OA 
HETATM   14  C   UNL     1      -7.501   6.033  72.655  1.00  0.00    -0.095 C  
HETATM   15  H   UNL     1      -4.995   5.465  72.042  1.00  0.00     0.000 HD 
HETATM   16  C   UNL     1      -8.626   7.019  72.688  1.00  0.00    -0.119 C  
HETATM   17  O   UNL     1      -9.588   6.890  73.435  1.00  0.00    -0.149 OA 
HETATM   18  C   UNL     1      -8.451   8.166  71.703  1.00  0.00    -0.173 C  
BRANCH  18  19
HETATM   19  C   UNL     1      -9.577   8.218  70.653  1.00  0.00    -0.190 C  
BRANCH  19  20
HETATM   20  C   UNL     1     -10.990   8.156  71.247  1.00  0.00    -0.281 C  
BRANCH  20  21
HETATM   21  C   UNL     1     -11.522   9.545  71.613  1.00  0.00    -0.433 C  
BRANCH  21  22
HETATM   22  C   UNL     1     -10.768  10.639  70.851  1.00  0.00     0.817 C  
BRANCH  22  23
HETATM   23  C   UNL     1     -11.575  11.142  69.654  1.00  0.00    -0.398 C  
BRANCH  23  24
HETATM   24  C   UNL     1     -10.671  11.511  68.477  1.00  0.00    -0.242 C  
HETATM   25  C   UNL     1     -11.230  12.674  67.688  1.00  0.00    -0.283 C  
HETATM   26  O   UNL     1     -12.268  13.264  67.935  1.00  0.00    -0.275 OA 
HETATM   27  O   UNL     1     -10.441  13.004  66.641  1.00  0.00    -0.260 OA 
ENDBRANCH  23  24
ENDBRANCH  22  23
ENDBRANCH  21  22
ENDBRANCH  20  21
ENDBRANCH  19  20
ENDBRANCH  18  19
ENDBRANCH  10  11
ENDBRANCH   6   9
ENDBRANCH   5   6
ENDBRANCH   4   5
ENDBRANCH   3   4
ENDBRANCH   2   3
TORSDOF 12
ENDMDL
MODEL      398
REMARK 921   NORMALIZED FREE ENERGY PREDICTED BY IDOCK:    2.81 KCAL/MOL
REMARK 922        TOTAL FREE ENERGY PREDICTED BY IDOCK:    2.84 KCAL/MOL
REMARK 923 INTER-LIGAND FREE ENERGY PREDICTED BY IDOCK:    3.48 KCAL/MOL
REMARK 924 INTRA-LIGAND FREE ENERGY PREDICTED BY IDOCK:   -0.64 KCAL/MOL
REMARK 927      BINDING AFFINITY PREDICTED BY RF-SCORE:    0.00 PKD
ROOT
HETATM    1  C   UNL     1      -6.842  14.891  71.611  1.00  0.00     1.577 C  
HETATM    2  C   UNL     1      -6.648  14.513  73.068  1.00  0.00     1.880 C  
ENDROOT
BRANCH   2   3
HETATM    3  C   UNL     1      -5.625  13.388  73.238  1.00  0.00     0.372 C  
BRANCH   3   4
HETATM    4  C   UNL     1      -6.000  12.200  72.354  1.00  0.00     2.352 C  
BRANCH   4   5
HETATM    5  C   UNL     1      -5.128  12.100  71.100  1.00  0.00    -0.139 C  
BRANCH   5   6
HETATM    6  C   UNL     1      -5.812  11.347  69.947  1.00  0.00    -0.109 C  
HETATM    7  O   UNL     1      -6.626  12.286  69.252  1.00  0.00    -0.102 OA 
HETATM    8  H   UNL     1      -7.049  11.821  68.539  1.00  0.00     0.000 HD 
BRANCH   6   9
HETATM    9  C   UNL     1      -6.633  10.167  70.418  1.00  0.00    -0.132 C  
HETATM   10  C   UNL     1      -6.342   9.324  71.423  1.00  0.00    -0.053 C  
BRANCH  10  11
HETATM   11  C   UNL     1      -7.130   8.071  71.739  1.00  0.00    -0.075 C  
HETATM   12  C   UNL     1      -6.998   7.730  73.238  1.00  0.00    -0.086 C  
HETATM   13  O   UNL     1      -5.770   7.077  73.532  1.00  0.00    -0.049 OA 
HETATM   14  C   UNL     1      -8.171   6.826  73.552  1.00  0.00    -0.124 C  
HETATM   15  H   UNL     1      -5.689   6.867  74.455  1.00  0.00     0.000 HD 
HETATM   16  C   UNL     1      -9.223   7.394  72.651  1.00  0.00    -0.145 C  
HETATM   17  O   UNL     1     -10.420   7.222  72.852  1.00  0.00    -0.226 OA 
HETATM   18  C   UNL     1      -8.652   8.181  71.481  1.00  0.00    -0.174 C  
BRANCH  18  19
HETATM   19  C   UNL     1      -9.036   7.572  70.118  1.00  0.00    -0.147 C  
BRANCH  19  20
HETATM   20  C   UNL     1      -9.258   8.609  69.009  1.00  0.00    -0.145 C  
BRANCH  20  21
HETATM   21  C   UNL     1     -10.669   8.529  68.421  1.00  0.00    -0.084 C  
BRANCH  21  22
HETATM   22  C   UNL     1     -10.665   7.775  67.088  1.00  0.00    -0.337 C  
BRANCH  22  23
HETATM   23  C   UNL     1      -9.367   8.013  66.316  1.00  0.00    -0.246 C  
BRANCH  23  24
HETATM   24  C   UNL     1      -8.681   6.698  65.943  1.00  0.00    -0.147 C  
HETATM   25  C   UNL     1      -7.273   6.630  66.490  1.00  0.00    -0.073 C  
HETATM   26  O   UNL     1      -6.726   7.498  67.150  1.00  0.00    -0.062 OA 
HETATM   27  O   UNL     1      -6.655   5.474  66.162  1.00  0.00    -0.048 OA 
ENDBRANCH  23  24
ENDBRANCH  22  23
ENDBRANCH  21  22
ENDBRANCH  20  21
ENDBRANCH  19  20
ENDBRANCH  18  19
ENDBRANCH  10  11
ENDBRANCH   6   9
ENDBRANCH   5   6
ENDBRANCH   4   5
ENDBRANCH   3   4
ENDBRANCH   2   3
TORSDOF 12
ENDMDL
MODEL      399
REMARK 921   NORMALIZED FREE ENERGY PREDICTED BY IDOCK:    2.88 KCAL/MOL
REMARK 922        TOTAL FREE ENERGY PREDICTED BY IDOCK:    2.95 KCAL/MOL
REMARK 923 INTER-LIGAND FREE ENERGY PREDICTED BY IDOCK:    3.66 KCAL/MOL
REMARK 924 INTRA-LIGAND FREE ENERGY PREDICTED BY IDOCK:   -0.71 KCAL/MOL
REMARK 927      BINDING AFFINITY PREDICTED BY RF-SCORE:    0.00 PKD
ROOT
HETATM    1  C   UNL     1      -6.842  14.891  71.611  1.00  0.00     1.577 C  
HETATM    2  C   UNL     1      -6.648  14.513  73.068  1.00  0.00     1.880 C  
ENDROOT
BRANCH   2   3
HETATM    3  C   UNL     1      -5.625  13.388  73.238  1.00  0.00     0.372 C  
BRANCH   3   4
HETATM    4  C   UNL     1      -6.000  12.200  72.354  1.00  0.00     2.352 C  
BRANCH   4   5
HETATM    5  C   UNL     1      -5.128  12.100  71.100  1.00  0.00    -0.139 C  
BRANCH   5   6
HETATM    6  C   UNL     1      -5.812  11.347  69.947  1.00  0.00    -0.109 C  
HETATM    7  O   UNL     1      -6.626  12.286  69.252  1.00  0.00    -0.102 OA 
HETATM    8  H   UNL     1      -7.049  11.821  68.539  1.00  0.00     0.000 HD 
BRANCH   6   9
HETATM    9  C   UNL     1      -6.633  10.167  70.418  1.00  0.00    -0.132 C  
HETATM   10  C   UNL     1      -6.368   9.356  71.456  1.00  0.00     0.015 C  
BRANCH  10  11
HETATM   11  C   UNL     1      -7.149   8.098  71.775  1.00  0.00    -0.080 C  
HETATM   12  C   UNL     1      -7.418   8.017  73.292  1.00  0.00    -0.139 C  
HETATM   13  O   UNL     1      -6.287   7.542  74.010  1.00  0.00    -0.075 OA 
HETATM   14  C   UNL     1      -8.586   7.066  73.445  1.00  0.00    -0.154 C  
HETATM   15  H   UNL     1      -6.453   7.491  74.945  1.00  0.00     0.000 HD 
HETATM   16  C   UNL     1      -9.376   7.378  72.213  1.00  0.00    -0.142 C  
HETATM   17  O   UNL     1     -10.572   7.124  72.121  1.00  0.00    -0.204 OA 
HETATM   18  C   UNL     1      -8.546   8.018  71.111  1.00  0.00    -0.145 C  
BRANCH  18  19
HETATM   19  C   UNL     1      -8.509   7.164  69.829  1.00  0.00    -0.137 C  
BRANCH  19  20
HETATM   20  C   UNL     1      -7.371   6.136  69.794  1.00  0.00    -0.079 C  
BRANCH  20  21
HETATM   21  C   UNL     1      -6.442   6.346  68.595  1.00  0.00    -0.049 C  
BRANCH  21  22
HETATM   22  C   UNL     1      -7.061   5.772  67.316  1.00  0.00    -0.074 C  
BRANCH  22  23
HETATM   23  C   UNL     1      -7.902   4.531  67.611  1.00  0.00    -0.085 C  
BRANCH  23  24
HETATM   24  C   UNL     1      -9.326   4.672  67.071  1.00  0.00    -0.153 C  
HETATM   25  C   UNL     1      -9.413   4.265  65.617  1.00  0.00    -0.176 C  
HETATM   26  O   UNL     1      -8.483   3.869  64.935  1.00  0.00    -0.106 OA 
HETATM   27  O   UNL     1     -10.667   4.391  65.127  1.00  0.00    -0.255 OA 
ENDBRANCH  23  24
ENDBRANCH  22  23
ENDBRANCH  21  22
ENDBRANCH  20  21
ENDBRANCH  19  20
ENDBRANCH  18  19
ENDBRANCH  10  11
ENDBRANCH   6   9
ENDBRANCH   5   6
ENDBRANCH   4   5
ENDBRANCH   3   4
ENDBRANCH   2   3
TORSDOF 12
ENDMDL
MODEL      400
REMARK 921   NORMALIZED FREE ENERGY PREDICTED BY IDOCK:    3.47 KCAL/MOL
REMARK 922        TOTAL FREE ENERGY PREDICTED BY IDOCK:    3.96 KCAL/MOL
REMARK 923 INTER-LIGAND FREE ENERGY PREDICTED BY IDOCK:    1.54 KCAL/MOL
REMARK 924 INTRA-LIGAND FREE ENERGY PREDICTED BY IDOCK:    2.41 KCAL/MOL
REMARK 927      BINDING AFFINITY PREDICTED BY RF-SCORE:    0.00 PKD
ROOT
HETATM    1  C   UNL     1     -12.888  14.687  70.953  1.00  0.00    -0.427 C  
HETATM    2  C   UNL     1     -14.110  13.889  71.368  1.00  0.00    -0.065 C  
ENDROOT
BRANCH   2   3
HETATM    3  C   UNL     1     -13.991  12.414  70.981  1.00  0.00     2.124 C  
BRANCH   3   4
HETATM    4  C   UNL     1     -13.069  11.687  71.959  1.00  0.00    -0.433 C  
BRANCH   4   5
HETATM    5  C   UNL     1     -12.704  10.278  71.488  1.00  0.00    -0.557 C  
BRANCH   5   6
HETATM    6  C   UNL     1     -11.197  10.092  71.247  1.00  0.00    -0.072 C  
HETATM    7  O   UNL     1     -10.550  11.287  71.673  1.00  0.00     3.429 OA 
HETATM    8  H   UNL     1      -9.618  11.172  71.524  1.00  0.00     0.000 HD 
BRANCH   6   9
HETATM    9  C   UNL     1     -10.864   9.785  69.803  1.00  0.00    -0.285 C  
HETATM   10  C   UNL     1     -10.088   8.791  69.342  1.00  0.00    -0.203 C  
BRANCH  10  11
HETATM   11  C   UNL     1      -9.670   8.638  67.895  1.00  0.00    -0.192 C  
HETATM   12  C   UNL     1      -8.753   9.809  67.484  1.00  0.00    -0.125 C  
HETATM   13  O   UNL     1      -9.492  10.986  67.185  1.00  0.00    -0.163 OA 
HETATM   14  C   UNL     1      -8.002   9.325  66.262  1.00  0.00    -0.107 C  
HETATM   15  H   UNL     1      -8.927  11.707  66.932  1.00  0.00     0.000 HD 
HETATM   16  C   UNL     1      -7.839   7.872  66.580  1.00  0.00    -0.098 C  
HETATM   17  O   UNL     1      -6.970   7.182  66.058  1.00  0.00    -0.062 OA 
HETATM   18  C   UNL     1      -8.854   7.358  67.589  1.00  0.00    -0.127 C  
BRANCH  18  19
HETATM   19  C   UNL     1      -9.750   6.246  67.009  1.00  0.00    -0.173 C  
BRANCH  19  20
HETATM   20  C   UNL     1      -8.978   5.020  66.504  1.00  0.00    -0.116 C  
BRANCH  20  21
HETATM   21  C   UNL     1      -8.801   5.039  64.983  1.00  0.00    -0.149 C  
BRANCH  21  22
HETATM   22  C   UNL     1      -7.779   3.989  64.537  1.00  0.00    -0.081 C  
BRANCH  22  23
HETATM   23  C   UNL     1      -8.117   2.608  65.098  1.00  0.00    -0.083 C  
BRANCH  23  24
HETATM   24  C   UNL     1      -9.452   2.090  64.560  1.00  0.00    -0.110 C  
HETATM   25  C   UNL     1      -9.834   2.774  63.267  1.00  0.00    -0.106 C  
HETATM   26  O   UNL     1      -9.180   3.632  62.699  1.00  0.00    -0.093 OA 
HETATM   27  O   UNL     1     -11.016   2.327  62.785  1.00  0.00    -0.181 OA 
ENDBRANCH  23  24
ENDBRANCH  22  23
ENDBRANCH  21  22
ENDBRANCH  20  21
ENDBRANCH  19  20
ENDBRANCH  18  19
ENDBRANCH  10  11
ENDBRANCH   6   9
ENDBRANCH   5   6
ENDBRANCH   4   5
ENDBRANCH   3   4
ENDBRANCH   2   3
TORSDOF 12
ENDMDL
MODEL      401
REMARK 921   NORMALIZED FREE ENERGY PREDICTED BY IDOCK:    3.59 KCAL/MOL
REMARK 922        TOTAL FREE ENERGY PREDICTED BY IDOCK:    4.16 KCAL/MOL
REMARK 923 INTER-LIGAND FREE ENERGY PREDICTED BY IDOCK:    4.43 KCAL/MOL
REMARK 924 INTRA-LIGAND FREE ENERGY PREDICTED BY IDOCK:   -0.28 KCAL/MOL
REMARK 927      BINDING AFFINITY PREDICTED BY RF-SCORE:    0.00 PKD
ROOT
HETATM    1  C   UNL     1     -11.172  19.569  69.823  1.00  0.00     3.120 C  
HETATM    2  C   UNL     1     -10.202  19.016  70.852  1.00  0.00     2.222 C  
ENDROOT
BRANCH   2   3
HETATM    3  C   UNL     1      -9.324  17.904  70.273  1.00  0.00     2.554 C  
BRANCH   3   4
HETATM    4  C   UNL     1     -10.199  16.786  69.709  1.00  0.00     0.005 C  
BRANCH   4   5
HETATM    5  C   UNL     1      -9.683  16.253  68.371  1.00  0.00    -0.222 C  
BRANCH   5   6
HETATM    6  C   UNL     1      -8.435  15.365  68.514  1.00  0.00    -0.163 C  
HETATM    7  O   UNL     1      -7.367  16.022  67.840  1.00  0.00    -0.121 OA 
HETATM    8  H   UNL     1      -6.596  15.473  67.928  1.00  0.00     0.000 HD 
BRANCH   6   9
HETATM    9  C   UNL     1      -8.639  13.969  67.968  1.00  0.00    -0.179 C  
HETATM   10  C   UNL     1      -9.794  13.286  67.894  1.00  0.00    -0.234 C  
BRANCH  10  11
HETATM   11  C   UNL     1      -9.900  11.834  67.481  1.00  0.00    -0.195 C  
HETATM   12  C   UNL     1     -10.483  11.733  66.056  1.00  0.00    -0.246 C  
HETATM   13  O   UNL     1     -11.897  11.878  66.045  1.00  0.00    -0.497 OA 
HETATM   14  C   UNL     1     -10.083  10.363  65.551  1.00  0.00    -0.352 C  
HETATM   15  H   UNL     1     -12.255  11.815  65.167  1.00  0.00     0.000 HD 
HETATM   16  C   UNL     1      -8.742  10.198  66.195  1.00  0.00    -0.142 C  
HETATM   17  O   UNL     1      -7.901   9.417  65.765  1.00  0.00    -0.097 OA 
HETATM   18  C   UNL     1      -8.550  11.078  67.421  1.00  0.00    -0.132 C  
BRANCH  18  19
HETATM   19  C   UNL     1      -8.309  10.258  68.703  1.00  0.00    -0.122 C  
BRANCH  19  20
HETATM   20  C   UNL     1      -9.277  10.588  69.848  1.00  0.00     0.243 C  
BRANCH  20  21
HETATM   21  C   UNL     1     -10.513   9.685  69.833  1.00  0.00    -0.285 C  
BRANCH  21  22
HETATM   22  C   UNL     1     -10.145   8.257  69.417  1.00  0.00    -0.198 C  
BRANCH  22  23
HETATM   23  C   UNL     1      -8.763   7.863  69.938  1.00  0.00    -0.140 C  
BRANCH  23  24
HETATM   24  C   UNL     1      -8.846   6.731  70.963  1.00  0.00    -0.141 C  
HETATM   25  C   UNL     1      -7.801   5.669  70.706  1.00  0.00    -0.093 C  
HETATM   26  O   UNL     1      -6.980   5.686  69.805  1.00  0.00    -0.058 OA 
HETATM   27  O   UNL     1      -7.870   4.660  71.604  1.00  0.00    -0.091 OA 
ENDBRANCH  23  24
ENDBRANCH  22  23
ENDBRANCH  21  22
ENDBRANCH  20  21
ENDBRANCH  19  20
ENDBRANCH  18  19
ENDBRANCH  10  11
ENDBRANCH   6   9
ENDBRANCH   5   6
ENDBRANCH   4   5
ENDBRANCH   3   4
ENDBRANCH   2   3
TORSDOF 12
ENDMDL
MODEL      402
REMARK 921   NORMALIZED FREE ENERGY PREDICTED BY IDOCK:    5.25 KCAL/MOL
REMARK 922        TOTAL FREE ENERGY PREDICTED BY IDOCK:    6.99 KCAL/MOL
REMARK 923 INTER-LIGAND FREE ENERGY PREDICTED BY IDOCK:    5.68 KCAL/MOL
REMARK 924 INTRA-LIGAND FREE ENERGY PREDICTED BY IDOCK:    1.31 KCAL/MOL
REMARK 927      BINDING AFFINITY PREDICTED BY RF-SCORE:    0.00 PKD
ROOT
HETATM    1  C   UNL     1      -5.882  18.602  67.459  1.00  0.00    -0.170 C  
HETATM    2  C   UNL     1      -6.567  17.420  68.121  1.00  0.00    -0.166 C  
ENDROOT
BRANCH   2   3
HETATM    3  C   UNL     1      -7.395  16.605  67.126  1.00  0.00    -0.220 C  
BRANCH   3   4
HETATM    4  C   UNL     1      -8.032  17.532  66.092  1.00  0.00    -0.261 C  
BRANCH   4   5
HETATM    5  C   UNL     1      -9.306  16.944  65.480  1.00  0.00     0.443 C  
BRANCH   5   6
HETATM    6  C   UNL     1     -10.593  17.537  66.078  1.00  0.00    -0.217 C  
HETATM    7  O   UNL     1     -10.499  18.953  65.964  1.00  0.00    -0.455 OA 
HETATM    8  H   UNL     1     -11.295  19.320  66.333  1.00  0.00     0.000 HD 
BRANCH   6   9
HETATM    9  C   UNL     1     -10.818  17.126  67.517  1.00  0.00    -0.203 C  
HETATM   10  C   UNL     1     -10.155  17.565  68.600  1.00  0.00    -0.361 C  
BRANCH  10  11
HETATM   11  C   UNL     1     -10.326  16.995  69.992  1.00  0.00     0.288 C  
HETATM   12  C   UNL     1     -10.815  18.096  70.956  1.00  0.00     2.685 C  
HETATM   13  O   UNL     1      -9.755  18.937  71.390  1.00  0.00     3.273 OA 
HETATM   14  C   UNL     1     -11.430  17.362  72.129  1.00  0.00     1.513 C  
HETATM   15  H   UNL     1     -10.057  19.614  71.984  1.00  0.00     0.000 HD 
HETATM   16  C   UNL     1     -12.020  16.168  71.447  1.00  0.00    -0.395 C  
HETATM   17  O   UNL     1     -12.927  15.511  71.945  1.00  0.00    -0.382 OA 
HETATM   18  C   UNL     1     -11.375  15.862  70.103  1.00  0.00    -0.369 C  
BRANCH  18  19
HETATM   19  C   UNL     1     -10.708  14.474  70.072  1.00  0.00     0.040 C  
BRANCH  19  20
HETATM   20  C   UNL     1      -9.185  14.515  69.887  1.00  0.00     0.731 C  
BRANCH  20  21
HETATM   21  C   UNL     1      -8.723  13.637  68.722  1.00  0.00     0.070 C  
BRANCH  21  22
HETATM   22  C   UNL     1      -7.357  13.010  69.015  1.00  0.00     0.057 C  
BRANCH  22  23
HETATM   23  C   UNL     1      -6.216  13.908  68.536  1.00  0.00    -0.093 C  
BRANCH  23  24
HETATM   24  C   UNL     1      -6.239  15.270  69.231  1.00  0.00    -0.118 C  
HETATM   25  C   UNL     1      -5.648  15.196  70.621  1.00  0.00    -0.122 C  
HETATM   26  O   UNL     1      -5.200  14.192  71.148  1.00  0.00    -0.118 OA 
HETATM   27  O   UNL     1      -5.668  16.394  71.247  1.00  0.00     0.232 OA 
ENDBRANCH  23  24
ENDBRANCH  22  23
ENDBRANCH  21  22
ENDBRANCH  20  21
ENDBRANCH  19  20
ENDBRANCH  18  19
ENDBRANCH  10  11
ENDBRANCH   6   9
ENDBRANCH   5   6
ENDBRANCH   4   5
ENDBRANCH   3   4
ENDBRANCH   2   3
TORSDOF 12
ENDMDL
MODEL      403
REMARK 921   NORMALIZED FREE ENERGY PREDICTED BY IDOCK:   10.42 KCAL/MOL
REMARK 922        TOTAL FREE ENERGY PREDICTED BY IDOCK:   15.78 KCAL/MOL
REMARK 923 INTER-LIGAND FREE ENERGY PREDICTED BY IDOCK:    8.92 KCAL/MOL
REMARK 924 INTRA-LIGAND FREE ENERGY PREDICTED BY IDOCK:    6.86 KCAL/MOL
REMARK 927      BINDING AFFINITY PREDICTED BY RF-SCORE:    0.00 PKD
ROOT
HETATM    1  C   UNL     1      -5.736  13.110  71.818  1.00  0.00     0.306 C  
HETATM    2  C   UNL     1      -6.518  14.410  71.771  1.00  0.00     0.886 C  
ENDROOT
BRANCH   2   3
HETATM    3  C   UNL     1      -7.246  14.594  70.438  1.00  0.00     0.433 C  
BRANCH   3   4
HETATM    4  C   UNL     1      -8.008  13.320  70.077  1.00  0.00     2.220 C  
BRANCH   4   5
HETATM    5  C   UNL     1      -9.522  13.536  70.022  1.00  0.00     2.577 C  
BRANCH   5   6
HETATM    6  C   UNL     1     -10.279  12.356  69.389  1.00  0.00     0.569 C  
HETATM    7  O   UNL     1     -10.352  11.325  70.369  1.00  0.00     0.362 OA 
HETATM    8  H   UNL     1     -10.819  10.596  69.978  1.00  0.00     0.000 HD 
BRANCH   6   9
HETATM    9  C   UNL     1      -9.625  11.849  68.122  1.00  0.00    -0.195 C  
HETATM   10  C   UNL     1      -8.684  10.896  68.019  1.00  0.00    -0.132 C  
BRANCH  10  11
HETATM   11  C   UNL     1      -7.961  10.549  66.735  1.00  0.00    -0.121 C  
HETATM   12  C   UNL     1      -6.759  11.497  66.535  1.00  0.00    -0.019 C  
HETATM   13  O   UNL     1      -7.155  12.759  66.015  1.00  0.00     1.053 OA 
HETATM   14  C   UNL     1      -5.839  10.785  65.566  1.00  0.00    -0.102 C  
HETATM   15  H   UNL     1      -6.415  13.342  65.892  1.00  0.00     0.000 HD 
HETATM   16  C   UNL     1      -6.048   9.358  65.965  1.00  0.00    -0.063 C  
HETATM   17  O   UNL     1      -5.231   8.480  65.710  1.00  0.00    -0.030 OA 
HETATM   18  C   UNL     1      -7.362   9.122  66.694  1.00  0.00    -0.086 C  
BRANCH  18  19
HETATM   19  C   UNL     1      -8.287   8.147  65.941  1.00  0.00    -0.134 C  
BRANCH  19  20
HETATM   20  C   UNL     1      -9.086   7.208  66.857  1.00  0.00    -0.159 C  
BRANCH  20  21
HETATM   21  C   UNL     1      -9.022   7.645  68.323  1.00  0.00    -0.127 C  
BRANCH  21  22
HETATM   22  C   UNL     1     -10.054   6.889  69.166  1.00  0.00    -0.180 C  
BRANCH  22  23
HETATM   23  C   UNL     1     -11.367   7.666  69.270  1.00  0.00     0.310 C  
BRANCH  23  24
HETATM   24  C   UNL     1     -11.181   9.141  68.909  1.00  0.00     0.206 C  
HETATM   25  C   UNL     1     -11.195   9.354  67.412  1.00  0.00     0.447 C  
HETATM   26  O   UNL     1     -11.337   8.481  66.573  1.00  0.00     1.188 OA 
HETATM   27  O   UNL     1     -11.026  10.654  67.082  1.00  0.00    -0.285 OA 
ENDBRANCH  23  24
ENDBRANCH  22  23
ENDBRANCH  21  22
ENDBRANCH  20  21
ENDBRANCH  19  20
ENDBRANCH  18  19
ENDBRANCH  10  11
ENDBRANCH   6   9
ENDBRANCH   5   6
ENDBRANCH   4   5
ENDBRANCH   3   4
ENDBRANCH   2   3
TORSDOF 12
ENDMDL
MODEL      404
REMARK 921   NORMALIZED FREE ENERGY PREDICTED BY IDOCK:   10.77 KCAL/MOL
REMARK 922        TOTAL FREE ENERGY PREDICTED BY IDOCK:   16.37 KCAL/MOL
REMARK 923 INTER-LIGAND FREE ENERGY PREDICTED BY IDOCK:    2.01 KCAL/MOL
REMARK 924 INTRA-LIGAND FREE ENERGY PREDICTED BY IDOCK:   14.36 KCAL/MOL
REMARK 927      BINDING AFFINITY PREDICTED BY RF-SCORE:    0.00 PKD
ROOT
HETATM    1  C   UNL     1      -9.072  10.562  66.313  1.00  0.00    -0.184 C  
HETATM    2  C   UNL     1      -8.931  12.006  66.759  1.00  0.00    -0.198 C  
ENDROOT
BRANCH   2   3
HETATM    3  C   UNL     1      -8.627  12.117  68.255  1.00  0.00    -0.175 C  
BRANCH   3   4
HETATM    4  C   UNL     1      -9.619  13.069  68.922  1.00  0.00     0.215 C  
BRANCH   4   5
HETATM    5  C   UNL     1     -10.746  13.499  67.980  1.00  0.00    -0.263 C  
BRANCH   5   6
HETATM    6  C   UNL     1     -10.302  13.600  66.511  1.00  0.00    -0.282 C  
HETATM    7  O   UNL     1      -9.249  12.660  66.322  1.00  0.00    -0.359 OA 
HETATM    8  H   UNL     1      -8.974  12.723  65.414  1.00  0.00     0.000 HD 
BRANCH   6   9
HETATM    9  C   UNL     1      -9.856  14.993  66.125  1.00  0.00    -0.325 C  
HETATM   10  C   UNL     1     -10.157  16.144  66.749  1.00  0.00    -0.275 C  
BRANCH  10  11
HETATM   11  C   UNL     1      -9.807  17.518  66.217  1.00  0.00    -0.295 C  
HETATM   12  C   UNL     1     -10.951  18.045  65.325  1.00  0.00     0.533 C  
HETATM   13  O   UNL     1     -10.911  17.487  64.019  1.00  0.00     1.017 OA 
HETATM   14  C   UNL     1     -10.764  19.546  65.272  1.00  0.00     0.139 C  
HETATM   15  H   UNL     1     -11.615  17.812  63.470  1.00  0.00     0.000 HD 
HETATM   16  C   UNL     1     -10.237  19.821  66.645  1.00  0.00    -0.478 C  
HETATM   17  O   UNL     1     -10.306  20.929  67.164  1.00  0.00     0.012 OA 
HETATM   18  C   UNL     1      -9.609  18.602  67.305  1.00  0.00    -0.316 C  
BRANCH  18  19
HETATM   19  C   UNL     1      -8.116  18.808  67.626  1.00  0.00    -0.270 C  
BRANCH  19  20
HETATM   20  C   UNL     1      -7.839  19.217  69.079  1.00  0.00    -0.314 C  
BRANCH  20  21
HETATM   21  C   UNL     1      -8.749  18.481  70.066  1.00  0.00     1.749 C  
BRANCH  21  22
HETATM   22  C   UNL     1      -8.262  17.048  70.297  1.00  0.00     2.765 C  
BRANCH  22  23
HETATM   23  C   UNL     1      -8.630  16.138  69.125  1.00  0.00    -0.235 C  
BRANCH  23  24
HETATM   24  C   UNL     1      -7.700  14.927  69.034  1.00  0.00    -0.153 C  
HETATM   25  C   UNL     1      -6.272  15.341  68.758  1.00  0.00    -0.090 C  
HETATM   26  O   UNL     1      -5.881  16.488  68.621  1.00  0.00    -0.121 OA 
HETATM   27  O   UNL     1      -5.442  14.278  68.671  1.00  0.00    -0.081 OA 
ENDBRANCH  23  24
ENDBRANCH  22  23
ENDBRANCH  21  22
ENDBRANCH  20  21
ENDBRANCH  19  20
ENDBRANCH  18  19
ENDBRANCH  10  11
ENDBRANCH   6   9
ENDBRANCH   5   6
ENDBRANCH   4   5
ENDBRANCH   3   4
ENDBRANCH   2   3
TORSDOF 12
ENDMDL
MODEL      405
REMARK 921   NORMALIZED FREE ENERGY PREDICTED BY IDOCK:   12.39 KCAL/MOL
REMARK 922        TOTAL FREE ENERGY PREDICTED BY IDOCK:   19.14 KCAL/MOL
REMARK 923 INTER-LIGAND FREE ENERGY PREDICTED BY IDOCK:    9.05 KCAL/MOL
REMARK 924 INTRA-LIGAND FREE ENERGY PREDICTED BY IDOCK:   10.09 KCAL/MOL
REMARK 927      BINDING AFFINITY PREDICTED BY RF-SCORE:    0.00 PKD
ROOT
HETATM    1  C   UNL     1      -9.340   8.226  73.788  1.00  0.00     0.228 C  
HETATM    2  C   UNL     1     -10.218   7.912  72.590  1.00  0.00    -0.361 C  
ENDROOT
BRANCH   2   3
HETATM    3  C   UNL     1     -10.224   9.052  71.569  1.00  0.00    -0.414 C  
BRANCH   3   4
HETATM    4  C   UNL     1      -9.759   8.538  70.207  1.00  0.00    -0.182 C  
BRANCH   4   5
HETATM    5  C   UNL     1      -8.927   9.570  69.442  1.00  0.00    -0.174 C  
BRANCH   5   6
HETATM    6  C   UNL     1      -8.168  10.538  70.365  1.00  0.00     1.106 C  
HETATM    7  O   UNL     1      -8.762  10.448  71.655  1.00  0.00     2.417 OA 
HETATM    8  H   UNL     1      -8.293  11.046  72.225  1.00  0.00     0.000 HD 
BRANCH   6   9
HETATM    9  C   UNL     1      -8.185  11.966  69.863  1.00  0.00     2.044 C  
HETATM   10  C   UNL     1      -8.800  12.433  68.764  1.00  0.00     0.152 C  
BRANCH  10  11
HETATM   11  C   UNL     1      -8.645  13.843  68.236  1.00  0.00    -0.177 C  
HETATM   12  C   UNL     1      -7.405  13.928  67.320  1.00  0.00     0.006 C  
HETATM   13  O   UNL     1      -6.198  14.034  68.064  1.00  0.00    -0.114 OA 
HETATM   14  C   UNL     1      -7.616  15.161  66.467  1.00  0.00     0.711 C  
HETATM   15  H   UNL     1      -5.435  14.086  67.500  1.00  0.00     0.000 HD 
HETATM   16  C   UNL     1      -9.102  15.139  66.291  1.00  0.00    -0.278 C  
HETATM   17  O   UNL     1      -9.660  15.722  65.368  1.00  0.00    -0.347 OA 
HETATM   18  C   UNL     1      -9.825  14.342  67.366  1.00  0.00    -0.224 C  
BRANCH  18  19
HETATM   19  C   UNL     1     -10.799  15.208  68.187  1.00  0.00    -0.266 C  
BRANCH  19  20
HETATM   20  C   UNL     1     -10.980  16.633  67.644  1.00  0.00    -0.193 C  
BRANCH  20  21
HETATM   21  C   UNL     1      -9.790  17.533  67.986  1.00  0.00    -0.299 C  
BRANCH  21  22
HETATM   22  C   UNL     1      -8.549  17.132  67.183  1.00  0.00    -0.221 C  
BRANCH  22  23
HETATM   23  C   UNL     1      -7.488  18.232  67.208  1.00  0.00    -0.222 C  
BRANCH  23  24
HETATM   24  C   UNL     1      -7.245  18.815  65.815  1.00  0.00    -0.235 C  
HETATM   25  C   UNL     1      -6.668  17.783  64.872  1.00  0.00     1.728 C  
HETATM   26  O   UNL     1      -6.418  16.624  65.157  1.00  0.00     2.313 OA 
HETATM   27  O   UNL     1      -6.444  18.289  63.639  1.00  0.00     2.048 OA 
ENDBRANCH  23  24
ENDBRANCH  22  23
ENDBRANCH  21  22
ENDBRANCH  20  21
ENDBRANCH  19  20
ENDBRANCH  18  19
ENDBRANCH  10  11
ENDBRANCH   6   9
ENDBRANCH   5   6
ENDBRANCH   4   5
ENDBRANCH   3   4
ENDBRANCH   2   3
TORSDOF 12
ENDMDL
MODEL      406
REMARK 921   NORMALIZED FREE ENERGY PREDICTED BY IDOCK:   13.39 KCAL/MOL
REMARK 922        TOTAL FREE ENERGY PREDICTED BY IDOCK:   20.83 KCAL/MOL
REMARK 923 INTER-LIGAND FREE ENERGY PREDICTED BY IDOCK:   20.66 KCAL/MOL
REMARK 924 INTRA-LIGAND FREE ENERGY PREDICTED BY IDOCK:    0.17 KCAL/MOL
REMARK 927      BINDING AFFINITY PREDICTED BY RF-SCORE:    0.00 PKD
ROOT
HETATM    1  C   UNL     1      -6.705  18.122  67.325  1.00  0.00    -0.205 C  
HETATM    2  C   UNL     1      -7.397  17.415  68.477  1.00  0.00    -0.237 C  
ENDROOT
BRANCH   2   3
HETATM    3  C   UNL     1      -7.308  15.893  68.353  1.00  0.00    -0.125 C  
BRANCH   3   4
HETATM    4  C   UNL     1      -7.659  15.462  66.930  1.00  0.00    -0.111 C  
BRANCH   4   5
HETATM    5  C   UNL     1      -6.420  15.194  66.073  1.00  0.00     5.141 C  
BRANCH   5   6
HETATM    6  C   UNL     1      -5.574  14.017  66.586  1.00  0.00     2.784 C  
HETATM    7  O   UNL     1      -5.955  12.865  65.840  1.00  0.00     2.257 OA 
HETATM    8  H   UNL     1      -5.432  12.137  66.157  1.00  0.00     0.000 HD 
BRANCH   6   9
HETATM    9  C   UNL     1      -5.737  13.776  68.071  1.00  0.00    -0.132 C  
HETATM   10  C   UNL     1      -6.351  12.739  68.663  1.00  0.00    -0.075 C  
BRANCH  10  11
HETATM   11  C   UNL     1      -6.615  12.643  70.150  1.00  0.00     0.335 C  
HETATM   12  C   UNL     1      -5.365  12.098  70.873  1.00  0.00    -0.144 C  
HETATM   13  O   UNL     1      -5.256  10.685  70.762  1.00  0.00    -0.070 OA 
HETATM   14  C   UNL     1      -5.523  12.510  72.321  1.00  0.00     0.585 C  
HETATM   15  H   UNL     1      -4.487  10.350  71.207  1.00  0.00     0.000 HD 
HETATM   16  C   UNL     1      -6.207  13.832  72.172  1.00  0.00     1.099 C  
HETATM   17  O   UNL     1      -6.185  14.684  73.054  1.00  0.00     0.380 OA 
HETATM   18  C   UNL     1      -6.927  13.993  70.842  1.00  0.00     1.165 C  
BRANCH  18  19
HETATM   19  C   UNL     1      -8.444  14.198  71.013  1.00  0.00     4.652 C  
BRANCH  19  20
HETATM   20  C   UNL     1      -9.303  13.134  70.315  1.00  0.00     4.359 C  
BRANCH  20  21
HETATM   21  C   UNL     1      -9.664  13.537  68.882  1.00  0.00     0.089 C  
BRANCH  21  22
HETATM   22  C   UNL     1     -10.507  12.452  68.204  1.00  0.00    -0.228 C  
BRANCH  22  23
HETATM   23  C   UNL     1      -9.665  11.610  67.245  1.00  0.00    -0.192 C  
BRANCH  23  24
HETATM   24  C   UNL     1      -8.852  10.549  67.989  1.00  0.00    -0.131 C  
HETATM   25  C   UNL     1      -9.483   9.180  67.873  1.00  0.00    -0.141 C  
HETATM   26  O   UNL     1     -10.510   8.922  67.268  1.00  0.00    -0.266 OA 
HETATM   27  O   UNL     1      -8.775   8.236  68.532  1.00  0.00    -0.132 OA 
ENDBRANCH  23  24
ENDBRANCH  22  23
ENDBRANCH  21  22
ENDBRANCH  20  21
ENDBRANCH  19  20
ENDBRANCH  18  19
ENDBRANCH  10  11
ENDBRANCH   6   9
ENDBRANCH   5   6
ENDBRANCH   4   5
ENDBRANCH   3   4
ENDBRANCH   2   3
TORSDOF 12
ENDMDL
MODEL      407
REMARK 921   NORMALIZED FREE ENERGY PREDICTED BY IDOCK:   18.69 KCAL/MOL
REMARK 922        TOTAL FREE ENERGY PREDICTED BY IDOCK:   29.85 KCAL/MOL
REMARK 923 INTER-LIGAND FREE ENERGY PREDICTED BY IDOCK:   18.19 KCAL/MOL
REMARK 924 INTRA-LIGAND FREE ENERGY PREDICTED BY IDOCK:   11.66 KCAL/MOL
REMARK 927      BINDING AFFINITY PREDICTED BY RF-SCORE:    0.00 PKD
ROOT
HETATM    1  C   UNL     1     -13.078  14.649  70.877  1.00  0.00    -0.416 C  
HETATM    2  C   UNL     1     -14.407  13.986  71.188  1.00  0.00     0.341 C  
ENDROOT
BRANCH   2   3
HETATM    3  C   UNL     1     -14.282  12.464  71.276  1.00  0.00     2.465 C  
BRANCH   3   4
HETATM    4  C   UNL     1     -13.612  12.068  72.591  1.00  0.00     0.594 C  
BRANCH   4   5
HETATM    5  C   UNL     1     -13.113  10.621  72.584  1.00  0.00     0.849 C  
BRANCH   5   6
HETATM    6  C   UNL     1     -11.586  10.507  72.731  1.00  0.00     4.851 C  
HETATM    7  O   UNL     1     -11.115  11.755  73.229  1.00  0.00    10.341 OA 
HETATM    8  H   UNL     1     -10.171  11.685  73.319  1.00  0.00     0.000 HD 
BRANCH   6   9
HETATM    9  C   UNL     1     -10.895  10.149  71.433  1.00  0.00     0.444 C  
HETATM   10  C   UNL     1     -10.082   9.104  71.208  1.00  0.00    -0.388 C  
BRANCH  10  11
HETATM   11  C   UNL     1      -9.299   8.894  69.929  1.00  0.00    -0.172 C  
HETATM   12  C   UNL     1      -8.177   9.948  69.820  1.00  0.00    -0.180 C  
HETATM   13  O   UNL     1      -8.664  11.202  69.361  1.00  0.00    -0.376 OA 
HETATM   14  C   UNL     1      -7.175   9.372  68.841  1.00  0.00    -0.072 C  
HETATM   15  H   UNL     1      -7.972  11.850  69.293  1.00  0.00     0.000 HD 
HETATM   16  C   UNL     1      -7.273   7.912  69.153  1.00  0.00    -0.081 C  
HETATM   17  O   UNL     1      -6.379   7.121  68.874  1.00  0.00    -0.030 OA 
HETATM   18  C   UNL     1      -8.582   7.526  69.827  1.00  0.00    -0.140 C  
BRANCH  18  19
HETATM   19  C   UNL     1      -9.401   6.523  68.992  1.00  0.00    -0.128 C  
BRANCH  19  20
HETATM   20  C   UNL     1      -8.627   5.260  68.594  1.00  0.00    -0.087 C  
BRANCH  20  21
HETATM   21  C   UNL     1      -8.042   5.364  67.183  1.00  0.00    -0.101 C  
BRANCH  21  22
HETATM   22  C   UNL     1      -7.064   4.218  66.908  1.00  0.00    -0.067 C  
BRANCH  22  23
HETATM   23  C   UNL     1      -7.638   2.875  67.360  1.00  0.00    -0.065 C  
BRANCH  23  24
HETATM   24  C   UNL     1      -9.145   2.793  67.114  1.00  0.00    -0.192 C  
HETATM   25  C   UNL     1      -9.691   4.090  66.561  1.00  0.00    -0.191 C  
HETATM   26  O   UNL     1      -9.036   5.092  66.328  1.00  0.00    -0.122 OA 
HETATM   27  O   UNL     1     -11.024   4.030  66.345  1.00  0.00     1.113 OA 
ENDBRANCH  23  24
ENDBRANCH  22  23
ENDBRANCH  21  22
ENDBRANCH  20  21
ENDBRANCH  19  20
ENDBRANCH  18  19
ENDBRANCH  10  11
ENDBRANCH   6   9
ENDBRANCH   5   6
ENDBRANCH   4   5
ENDBRANCH   3   4
ENDBRANCH   2   3
TORSDOF 12
ENDMDL
MODEL      408
REMARK 921   NORMALIZED FREE ENERGY PREDICTED BY IDOCK:   29.47 KCAL/MOL
REMARK 922        TOTAL FREE ENERGY PREDICTED BY IDOCK:   48.19 KCAL/MOL
REMARK 923 INTER-LIGAND FREE ENERGY PREDICTED BY IDOCK:   -3.95 KCAL/MOL
REMARK 924 INTRA-LIGAND FREE ENERGY PREDICTED BY IDOCK:   52.14 KCAL/MOL
REMARK 927      BINDING AFFINITY PREDICTED BY RF-SCORE:    0.00 PKD
ROOT
HETATM    1  C   UNL     1      -9.494  10.639  66.298  1.00  0.00    -0.213 C  
HETATM    2  C   UNL     1      -9.639  11.882  67.157  1.00  0.00    -0.192 C  
ENDROOT
BRANCH   2   3
HETATM    3  C   UNL     1      -9.990  11.541  68.607  1.00  0.00    -0.207 C  
BRANCH   3   4
HETATM    4  C   UNL     1     -10.694  12.724  69.269  1.00  0.00     0.040 C  
BRANCH   4   5
HETATM    5  C   UNL     1     -10.882  13.905  68.314  1.00  0.00    -0.263 C  
BRANCH   5   6
HETATM    6  C   UNL     1     -10.825  13.500  66.832  1.00  0.00    -0.282 C  
HETATM    7  O   UNL     1     -12.165  13.288  66.399  1.00  0.00    -0.402 OA 
HETATM    8  H   UNL     1     -12.129  13.037  65.482  1.00  0.00     0.000 HD 
BRANCH   6   9
HETATM    9  C   UNL     1      -9.979  12.268  66.590  1.00  0.00    -0.229 C  
HETATM   10  C   UNL     1      -9.488  11.426  67.514  1.00  0.00    -0.173 C  
BRANCH  10  11
HETATM   11  C   UNL     1      -8.519  10.303  67.213  1.00  0.00    -0.125 C  
HETATM   12  C   UNL     1      -7.105  10.683  67.701  1.00  0.00    -0.084 C  
HETATM   13  O   UNL     1      -6.441  11.551  66.792  1.00  0.00    -0.136 OA 
HETATM   14  C   UNL     1      -6.357   9.374  67.834  1.00  0.00    -0.054 C  
HETATM   15  H   UNL     1      -5.571  11.785  67.093  1.00  0.00     0.000 HD 
HETATM   16  C   UNL     1      -7.454   8.458  68.277  1.00  0.00    -0.096 C  
HETATM   17  O   UNL     1      -7.231   7.404  68.863  1.00  0.00    -0.084 OA 
HETATM   18  C   UNL     1      -8.843   8.962  67.916  1.00  0.00    -0.133 C  
BRANCH  18  19
HETATM   19  C   UNL     1      -9.592   8.001  66.973  1.00  0.00    -0.252 C  
BRANCH  19  20
HETATM   20  C   UNL     1     -10.394   6.912  67.697  1.00  0.00    -0.260 C  
BRANCH  20  21
HETATM   21  C   UNL     1     -11.229   7.481  68.848  1.00  0.00     0.264 C  
BRANCH  21  22
HETATM   22  C   UNL     1     -10.492   7.336  70.183  1.00  0.00    -0.229 C  
BRANCH  22  23
HETATM   23  C   UNL     1     -10.739   5.964  70.810  1.00  0.00    -0.344 C  
BRANCH  23  24
HETATM   24  C   UNL     1      -9.444   5.159  70.935  1.00  0.00    -0.223 C  
HETATM   25  C   UNL     1      -8.953   4.681  69.588  1.00  0.00    -0.094 C  
HETATM   26  O   UNL     1      -9.497   4.895  68.518  1.00  0.00    -0.127 OA 
HETATM   27  O   UNL     1      -7.811   3.963  69.688  1.00  0.00    -0.052 OA 
ENDBRANCH  23  24
ENDBRANCH  22  23
ENDBRANCH  21  22
ENDBRANCH  20  21
ENDBRANCH  19  20
ENDBRANCH  18  19
ENDBRANCH  10  11
ENDBRANCH   6   9
ENDBRANCH   5   6
ENDBRANCH   4   5
ENDBRANCH   3   4
ENDBRANCH   2   3
TORSDOF 12
ENDMDL
MODEL      409
REMARK 921   NORMALIZED FREE ENERGY PREDICTED BY IDOCK:   29.83 KCAL/MOL
REMARK 922        TOTAL FREE ENERGY PREDICTED BY IDOCK:   48.80 KCAL/MOL
REMARK 923 INTER-LIGAND FREE ENERGY PREDICTED BY IDOCK:   -3.36 KCAL/MOL
REMARK 924 INTRA-LIGAND FREE ENERGY PREDICTED BY IDOCK:   52.16 KCAL/MOL
REMARK 927      BINDING AFFINITY PREDICTED BY RF-SCORE:    0.00 PKD
ROOT
HETATM    1  C   UNL     1      -9.495  10.639  66.299  1.00  0.00    -0.213 C  
HETATM    2  C   UNL     1      -9.625  11.877  67.169  1.00  0.00    -0.192 C  
ENDROOT
BRANCH   2   3
HETATM    3  C   UNL     1      -9.974  11.527  68.617  1.00  0.00    -0.207 C  
BRANCH   3   4
HETATM    4  C   UNL     1     -10.637  12.722  69.299  1.00  0.00     0.117 C  
BRANCH   4   5
HETATM    5  C   UNL     1     -10.788  13.925  68.365  1.00  0.00    -0.269 C  
BRANCH   5   6
HETATM    6  C   UNL     1     -10.781  13.537  66.876  1.00  0.00    -0.274 C  
HETATM    7  O   UNL     1     -12.139  13.435  66.459  1.00  0.00    -0.395 OA 
HETATM    8  H   UNL     1     -12.135  13.196  65.539  1.00  0.00     0.000 HD 
BRANCH   6   9
HETATM    9  C   UNL     1     -10.036  12.249  66.606  1.00  0.00    -0.231 C  
HETATM   10  C   UNL     1      -9.613  11.350  67.510  1.00  0.00    -0.176 C  
BRANCH  10  11
HETATM   11  C   UNL     1      -8.735  10.161  67.183  1.00  0.00    -0.131 C  
HETATM   12  C   UNL     1      -7.299  10.412  67.689  1.00  0.00    -0.088 C  
HETATM   13  O   UNL     1      -6.560  11.248  66.807  1.00  0.00    -0.119 OA 
HETATM   14  C   UNL     1      -6.660   9.043  67.789  1.00  0.00    -0.061 C  
HETATM   15  H   UNL     1      -5.676  11.402  67.119  1.00  0.00     0.000 HD 
HETATM   16  C   UNL     1      -7.830   8.207  68.201  1.00  0.00    -0.122 C  
HETATM   17  O   UNL     1      -7.697   7.124  68.759  1.00  0.00    -0.111 OA 
HETATM   18  C   UNL     1      -9.172   8.832  67.847  1.00  0.00    -0.149 C  
BRANCH  18  19
HETATM   19  C   UNL     1      -9.990   7.961  66.874  1.00  0.00    -0.332 C  
BRANCH  19  20
HETATM   20  C   UNL     1     -10.886   6.924  67.565  1.00  0.00    -0.363 C  
BRANCH  20  21
HETATM   21  C   UNL     1     -11.683   7.533  68.721  1.00  0.00     1.188 C  
BRANCH  21  22
HETATM   22  C   UNL     1     -10.976   7.296  70.060  1.00  0.00    -0.273 C  
BRANCH  22  23
HETATM   23  C   UNL     1     -10.335   8.580  70.587  1.00  0.00    -0.232 C  
BRANCH  23  24
HETATM   24  C   UNL     1     -10.959   9.021  71.912  1.00  0.00    -0.423 C  
HETATM   25  C   UNL     1     -12.362   9.552  71.718  1.00  0.00    -0.394 C  
HETATM   26  O   UNL     1     -12.949   9.629  70.652  1.00  0.00    -0.142 OA 
HETATM   27  O   UNL     1     -12.921   9.950  72.883  1.00  0.00     0.234 OA 
ENDBRANCH  23  24
ENDBRANCH  22  23
ENDBRANCH  21  22
ENDBRANCH  20  21
ENDBRANCH  19  20
ENDBRANCH  18  19
ENDBRANCH  10  11
ENDBRANCH   6   9
ENDBRANCH   5   6
ENDBRANCH   4   5
ENDBRANCH   3   4
ENDBRANCH   2   3
TORSDOF 12
ENDMDL
