MODEL        1
REMARK 921   NORMALIZED FREE ENERGY PREDICTED BY IDOCK:   -5.01 KCAL/MOL
REMARK 922        TOTAL FREE ENERGY PREDICTED BY IDOCK:   -6.14 KCAL/MOL
REMARK 923 INTER-LIGAND FREE ENERGY PREDICTED BY IDOCK:   -5.88 KCAL/MOL
REMARK 924 INTRA-LIGAND FREE ENERGY PREDICTED BY IDOCK:   -0.26 KCAL/MOL
REMARK 927      BINDING AFFINITY PREDICTED BY RF-SCORE:    0.00 PKD
ROOT
HETATM    1  C   UNL     1     -12.906  10.546  71.584  1.00  0.00    -0.475 C  
HETATM    2  N   UNL     1     -11.985  10.533  70.465  1.00  0.00    -0.313 NA 
HETATM    3  C   UNL     1     -10.762   9.765  70.540  1.00  0.00    -0.317 C  
ENDROOT
BRANCH   2   4
HETATM    4  C   UNL     1     -12.007  11.618  69.602  1.00  0.00    -0.324 A  
HETATM    5  N   UNL     1     -11.919  11.410  68.292  1.00  0.00    -0.610 NA 
HETATM    6  C   UNL     1     -11.910  12.478  67.507  1.00  0.00    -0.323 A  
HETATM    7  N   UNL     1     -11.976  13.716  67.986  1.00  0.00    -0.366 NA 
HETATM    8  N   UNL     1     -12.097  12.832  70.128  1.00  0.00    -0.337 NA 
HETATM    9  C   UNL     1     -12.077  13.866  69.302  1.00  0.00    -0.339 A  
BRANCH   6  10
HETATM   10  N   UNL     1     -11.901  12.310  66.132  1.00  0.00    -0.574 NA 
HETATM   11  C   UNL     1     -10.799  11.604  65.504  1.00  0.00    -0.279 C  
HETATM   12  C   UNL     1     -12.635  13.251  65.307  1.00  0.00    -0.470 C  
ENDBRANCH   6  10
BRANCH   9  13
HETATM   13  N   UNL     1     -12.114  15.143  69.825  1.00  0.00    -0.322 NA 
HETATM   14  C   UNL     1     -12.945  15.438  70.978  1.00  0.00    -0.492 C  
HETATM   15  C   UNL     1     -11.073  16.095  69.490  1.00  0.00    -0.344 C  
ENDBRANCH   9  13
ENDBRANCH   2   4
TORSDOF 3
ENDMDL
MODEL        2
REMARK 921   NORMALIZED FREE ENERGY PREDICTED BY IDOCK:   -4.96 KCAL/MOL
REMARK 922        TOTAL FREE ENERGY PREDICTED BY IDOCK:   -6.09 KCAL/MOL
REMARK 923 INTER-LIGAND FREE ENERGY PREDICTED BY IDOCK:   -5.83 KCAL/MOL
REMARK 924 INTRA-LIGAND FREE ENERGY PREDICTED BY IDOCK:   -0.26 KCAL/MOL
REMARK 927      BINDING AFFINITY PREDICTED BY RF-SCORE:    0.00 PKD
ROOT
HETATM    1  C   UNL     1     -10.991  11.880  65.656  1.00  0.00    -0.304 C  
HETATM    2  N   UNL     1     -11.995  12.696  66.309  1.00  0.00    -0.531 NA 
HETATM    3  C   UNL     1     -12.570  13.831  65.620  1.00  0.00    -0.509 C  
ENDROOT
BRANCH   2   4
HETATM    4  C   UNL     1     -12.002  12.719  67.696  1.00  0.00    -0.273 A  
HETATM    5  N   UNL     1     -11.968  11.572  68.366  1.00  0.00    -0.562 NA 
HETATM    6  C   UNL     1     -12.010  11.640  69.689  1.00  0.00    -0.324 A  
HETATM    7  N   UNL     1     -12.092  12.795  70.341  1.00  0.00    -0.352 NA 
HETATM    8  N   UNL     1     -12.063  13.898  68.300  1.00  0.00    -0.346 NA 
HETATM    9  C   UNL     1     -12.110  13.912  69.622  1.00  0.00    -0.349 A  
BRANCH   6  10
HETATM   10  N   UNL     1     -11.895  10.478  70.433  1.00  0.00    -0.311 NA 
HETATM   11  C   UNL     1     -12.747  10.282  71.592  1.00  0.00    -0.456 C  
HETATM   12  C   UNL     1     -10.638   9.754  70.412  1.00  0.00    -0.304 C  
ENDBRANCH   6  10
BRANCH   9  13
HETATM   13  N   UNL     1     -12.227  15.123  70.276  1.00  0.00    -0.327 NA 
HETATM   14  C   UNL     1     -13.314  15.346  71.211  1.00  0.00    -0.520 C  
HETATM   15  C   UNL     1     -11.097  16.028  70.336  1.00  0.00    -0.364 C  
ENDBRANCH   9  13
ENDBRANCH   2   4
TORSDOF 3
ENDMDL
MODEL        3
REMARK 921   NORMALIZED FREE ENERGY PREDICTED BY IDOCK:   -4.94 KCAL/MOL
REMARK 922        TOTAL FREE ENERGY PREDICTED BY IDOCK:   -6.07 KCAL/MOL
REMARK 923 INTER-LIGAND FREE ENERGY PREDICTED BY IDOCK:   -5.81 KCAL/MOL
REMARK 924 INTRA-LIGAND FREE ENERGY PREDICTED BY IDOCK:   -0.25 KCAL/MOL
REMARK 927      BINDING AFFINITY PREDICTED BY RF-SCORE:    0.00 PKD
ROOT
HETATM    1  C   UNL     1     -10.802  11.493  65.766  1.00  0.00    -0.262 C  
HETATM    2  N   UNL     1     -11.916  12.275  66.265  1.00  0.00    -0.626 NA 
HETATM    3  C   UNL     1     -12.575  13.234  65.405  1.00  0.00    -0.468 C  
ENDROOT
BRANCH   2   4
HETATM    4  C   UNL     1     -11.990  12.487  67.633  1.00  0.00    -0.221 A  
HETATM    5  N   UNL     1     -12.019  13.732  68.099  1.00  0.00    -0.374 NA 
HETATM    6  C   UNL     1     -12.056  13.887  69.415  1.00  0.00    -0.337 A  
HETATM    7  N   UNL     1     -12.056  12.857  70.254  1.00  0.00    -0.344 NA 
HETATM    8  N   UNL     1     -12.010  11.426  68.429  1.00  0.00    -0.590 NA 
HETATM    9  C   UNL     1     -12.040  11.635  69.735  1.00  0.00    -0.289 A  
BRANCH   6  10
HETATM   10  N   UNL     1     -12.170  15.162  69.945  1.00  0.00    -0.324 NA 
HETATM   11  C   UNL     1     -11.024  16.053  69.917  1.00  0.00    -0.353 C  
HETATM   12  C   UNL     1     -13.171  15.410  70.965  1.00  0.00    -0.496 C  
ENDBRANCH   6  10
BRANCH   9  13
HETATM   13  N   UNL     1     -12.006  10.549  70.589  1.00  0.00    -0.326 NA 
HETATM   14  C   UNL     1     -10.813   9.730  70.683  1.00  0.00    -0.329 C  
HETATM   15  C   UNL     1     -12.983  10.434  71.654  1.00  0.00    -0.475 C  
ENDBRANCH   9  13
ENDBRANCH   2   4
TORSDOF 3
ENDMDL
MODEL        4
REMARK 921   NORMALIZED FREE ENERGY PREDICTED BY IDOCK:   -4.94 KCAL/MOL
REMARK 922        TOTAL FREE ENERGY PREDICTED BY IDOCK:   -6.06 KCAL/MOL
REMARK 923 INTER-LIGAND FREE ENERGY PREDICTED BY IDOCK:   -5.81 KCAL/MOL
REMARK 924 INTRA-LIGAND FREE ENERGY PREDICTED BY IDOCK:   -0.26 KCAL/MOL
REMARK 927      BINDING AFFINITY PREDICTED BY RF-SCORE:    0.00 PKD
ROOT
HETATM    1  C   UNL     1     -11.020  15.881  70.141  1.00  0.00    -0.364 C  
HETATM    2  N   UNL     1     -12.207  15.056  70.239  1.00  0.00    -0.318 NA 
HETATM    3  C   UNL     1     -13.192  15.318  71.266  1.00  0.00    -0.488 C  
ENDROOT
BRANCH   2   4
HETATM    4  C   UNL     1     -12.137  13.765  69.735  1.00  0.00    -0.340 A  
HETATM    5  N   UNL     1     -12.172  12.735  70.575  1.00  0.00    -0.358 NA 
HETATM    6  C   UNL     1     -12.068  11.522  70.052  1.00  0.00    -0.331 A  
HETATM    7  N   UNL     1     -11.925  11.318  68.747  1.00  0.00    -0.506 NA 
HETATM    8  N   UNL     1     -12.017  13.613  68.423  1.00  0.00    -0.367 NA 
HETATM    9  C   UNL     1     -11.909  12.382  67.952  1.00  0.00    -0.308 A  
BRANCH   6  10
HETATM   10  N   UNL     1     -12.180  10.415  70.878  1.00  0.00    -0.349 NA 
HETATM   11  C   UNL     1     -13.245  10.362  71.863  1.00  0.00    -0.429 C  
HETATM   12  C   UNL     1     -10.999   9.616  71.143  1.00  0.00    -0.360 C  
ENDBRANCH   6  10
BRANCH   9  13
HETATM   13  N   UNL     1     -11.729  12.196  66.595  1.00  0.00    -0.562 NA 
HETATM   14  C   UNL     1     -12.351  13.098  65.644  1.00  0.00    -0.461 C  
HETATM   15  C   UNL     1     -10.646  11.361  66.115  1.00  0.00    -0.265 C  
ENDBRANCH   9  13
ENDBRANCH   2   4
TORSDOF 3
ENDMDL
MODEL        5
REMARK 921   NORMALIZED FREE ENERGY PREDICTED BY IDOCK:   -4.92 KCAL/MOL
REMARK 922        TOTAL FREE ENERGY PREDICTED BY IDOCK:   -6.05 KCAL/MOL
REMARK 923 INTER-LIGAND FREE ENERGY PREDICTED BY IDOCK:   -5.77 KCAL/MOL
REMARK 924 INTRA-LIGAND FREE ENERGY PREDICTED BY IDOCK:   -0.28 KCAL/MOL
REMARK 927      BINDING AFFINITY PREDICTED BY RF-SCORE:    0.00 PKD
ROOT
HETATM    1  C   UNL     1     -12.002  10.671  69.957  1.00  0.00    -0.329 C  
HETATM    2  N   UNL     1     -11.580  10.812  68.578  1.00  0.00    -0.375 NA 
HETATM    3  C   UNL     1     -10.533   9.967  68.047  1.00  0.00    -0.222 C  
ENDROOT
BRANCH   2   4
HETATM    4  C   UNL     1     -11.780  12.041  67.967  1.00  0.00    -0.331 A  
HETATM    5  N   UNL     1     -11.982  12.091  66.654  1.00  0.00    -0.603 NA 
HETATM    6  C   UNL     1     -12.135  13.289  66.108  1.00  0.00    -0.421 A  
HETATM    7  N   UNL     1     -12.085  14.409  66.822  1.00  0.00    -0.412 NA 
HETATM    8  N   UNL     1     -11.743  13.128  68.726  1.00  0.00    -0.304 NA 
HETATM    9  C   UNL     1     -11.895  14.301  68.132  1.00  0.00    -0.339 A  
BRANCH   6  10
HETATM   10  N   UNL     1     -12.428  13.388  64.758  1.00  0.00    -0.576 NA 
HETATM   11  C   UNL     1     -12.251  12.230  63.900  1.00  0.00    -0.515 C  
HETATM   12  C   UNL     1     -12.374  14.691  64.123  1.00  0.00    -0.265 C  
ENDBRANCH   6  10
BRANCH   9  13
HETATM   13  N   UNL     1     -11.807  15.453  68.889  1.00  0.00    -0.349 NA 
HETATM   14  C   UNL     1     -12.236  15.452  70.275  1.00  0.00    -0.380 C  
HETATM   15  C   UNL     1     -10.959  16.545  68.452  1.00  0.00    -0.348 C  
ENDBRANCH   9  13
ENDBRANCH   2   4
TORSDOF 3
ENDMDL
MODEL        6
REMARK 921   NORMALIZED FREE ENERGY PREDICTED BY IDOCK:   -4.90 KCAL/MOL
REMARK 922        TOTAL FREE ENERGY PREDICTED BY IDOCK:   -6.02 KCAL/MOL
REMARK 923 INTER-LIGAND FREE ENERGY PREDICTED BY IDOCK:   -5.76 KCAL/MOL
REMARK 924 INTRA-LIGAND FREE ENERGY PREDICTED BY IDOCK:   -0.26 KCAL/MOL
REMARK 927      BINDING AFFINITY PREDICTED BY RF-SCORE:    0.00 PKD
ROOT
HETATM    1  C   UNL     1     -11.228  16.232  69.271  1.00  0.00    -0.312 C  
HETATM    2  N   UNL     1     -12.185  15.260  69.760  1.00  0.00    -0.315 NA 
HETATM    3  C   UNL     1     -12.827  15.454  71.042  1.00  0.00    -0.463 C  
ENDROOT
BRANCH   2   4
HETATM    4  C   UNL     1     -12.079  13.960  69.288  1.00  0.00    -0.339 A  
HETATM    5  N   UNL     1     -12.024  13.746  67.977  1.00  0.00    -0.371 NA 
HETATM    6  C   UNL     1     -11.957  12.486  67.570  1.00  0.00    -0.219 A  
HETATM    7  N   UNL     1     -11.952  11.463  68.418  1.00  0.00    -0.590 NA 
HETATM    8  N   UNL     1     -12.056  12.974  70.175  1.00  0.00    -0.338 NA 
HETATM    9  C   UNL     1     -11.996  11.734  69.718  1.00  0.00    -0.322 A  
BRANCH   6  10
HETATM   10  N   UNL     1     -11.816  12.216  66.219  1.00  0.00    -0.594 NA 
HETATM   11  C   UNL     1     -10.646  11.493  65.752  1.00  0.00    -0.263 C  
HETATM   12  C   UNL     1     -12.486  13.073  65.260  1.00  0.00    -0.499 C  
ENDBRANCH   6  10
BRANCH   9  13
HETATM   13  N   UNL     1     -12.025  10.686  70.616  1.00  0.00    -0.337 NA 
HETATM   14  C   UNL     1     -10.937   9.727  70.656  1.00  0.00    -0.331 C  
HETATM   15  C   UNL     1     -12.919  10.732  71.756  1.00  0.00    -0.463 C  
ENDBRANCH   9  13
ENDBRANCH   2   4
TORSDOF 3
ENDMDL
MODEL        7
REMARK 921   NORMALIZED FREE ENERGY PREDICTED BY IDOCK:   -4.89 KCAL/MOL
REMARK 922        TOTAL FREE ENERGY PREDICTED BY IDOCK:   -6.01 KCAL/MOL
REMARK 923 INTER-LIGAND FREE ENERGY PREDICTED BY IDOCK:   -5.73 KCAL/MOL
REMARK 924 INTRA-LIGAND FREE ENERGY PREDICTED BY IDOCK:   -0.28 KCAL/MOL
REMARK 927      BINDING AFFINITY PREDICTED BY RF-SCORE:    0.00 PKD
ROOT
HETATM    1  C   UNL     1     -11.785  10.567  69.930  1.00  0.00    -0.294 C  
HETATM    2  N   UNL     1     -11.655  10.713  68.494  1.00  0.00    -0.351 NA 
HETATM    3  C   UNL     1     -10.904   9.741  67.730  1.00  0.00    -0.246 C  
ENDROOT
BRANCH   2   4
HETATM    4  C   UNL     1     -11.775  11.989  67.964  1.00  0.00    -0.331 A  
HETATM    5  N   UNL     1     -11.695  13.041  68.773  1.00  0.00    -0.305 NA 
HETATM    6  C   UNL     1     -11.849  14.239  68.229  1.00  0.00    -0.335 A  
HETATM    7  N   UNL     1     -12.083  14.408  66.932  1.00  0.00    -0.410 NA 
HETATM    8  N   UNL     1     -11.986  12.106  66.660  1.00  0.00    -0.629 NA 
HETATM    9  C   UNL     1     -12.140  13.323  66.166  1.00  0.00    -0.421 A  
BRANCH   6  10
HETATM   10  N   UNL     1     -11.693  15.368  69.016  1.00  0.00    -0.352 NA 
HETATM   11  C   UNL     1     -12.471  15.504  70.234  1.00  0.00    -0.367 C  
HETATM   12  C   UNL     1     -11.217  16.592  68.399  1.00  0.00    -0.280 C  
ENDBRANCH   6  10
BRANCH   9  13
HETATM   13  N   UNL     1     -12.415  13.472  64.821  1.00  0.00    -0.582 NA 
HETATM   14  C   UNL     1     -12.381  14.787  64.209  1.00  0.00    -0.320 C  
HETATM   15  C   UNL     1     -12.368  12.322  63.939  1.00  0.00    -0.509 C  
ENDBRANCH   9  13
ENDBRANCH   2   4
TORSDOF 3
ENDMDL
MODEL        8
REMARK 921   NORMALIZED FREE ENERGY PREDICTED BY IDOCK:   -4.89 KCAL/MOL
REMARK 922        TOTAL FREE ENERGY PREDICTED BY IDOCK:   -6.01 KCAL/MOL
REMARK 923 INTER-LIGAND FREE ENERGY PREDICTED BY IDOCK:   -5.73 KCAL/MOL
REMARK 924 INTRA-LIGAND FREE ENERGY PREDICTED BY IDOCK:   -0.28 KCAL/MOL
REMARK 927      BINDING AFFINITY PREDICTED BY RF-SCORE:    0.00 PKD
ROOT
HETATM    1  C   UNL     1     -12.429  12.332  63.937  1.00  0.00    -0.485 C  
HETATM    2  N   UNL     1     -12.477  13.510  64.780  1.00  0.00    -0.582 NA 
HETATM    3  C   UNL     1     -12.313  14.825  64.201  1.00  0.00    -0.231 C  
ENDROOT
BRANCH   2   4
HETATM    4  C   UNL     1     -12.151  13.355  66.119  1.00  0.00    -0.429 A  
HETATM    5  N   UNL     1     -11.995  12.131  66.615  1.00  0.00    -0.629 NA 
HETATM    6  C   UNL     1     -11.717  12.030  67.907  1.00  0.00    -0.323 A  
HETATM    7  N   UNL     1     -11.602  13.093  68.696  1.00  0.00    -0.298 NA 
HETATM    8  N   UNL     1     -12.025  14.448  66.861  1.00  0.00    -0.419 NA 
HETATM    9  C   UNL     1     -11.754  14.293  68.146  1.00  0.00    -0.350 A  
BRANCH   6  10
HETATM   10  N   UNL     1     -11.466  10.782  68.452  1.00  0.00    -0.342 NA 
HETATM   11  C   UNL     1     -11.445  10.622  69.894  1.00  0.00    -0.317 C  
HETATM   12  C   UNL     1     -10.717   9.815  67.671  1.00  0.00    -0.274 C  
ENDBRANCH   6  10
BRANCH   9  13
HETATM   13  N   UNL     1     -11.671  15.410  68.954  1.00  0.00    -0.356 NA 
HETATM   14  C   UNL     1     -12.268  15.403  70.276  1.00  0.00    -0.380 C  
HETATM   15  C   UNL     1     -10.693  16.442  68.667  1.00  0.00    -0.317 C  
ENDBRANCH   9  13
ENDBRANCH   2   4
TORSDOF 3
ENDMDL
MODEL        9
REMARK 921   NORMALIZED FREE ENERGY PREDICTED BY IDOCK:   -4.89 KCAL/MOL
REMARK 922        TOTAL FREE ENERGY PREDICTED BY IDOCK:   -6.00 KCAL/MOL
REMARK 923 INTER-LIGAND FREE ENERGY PREDICTED BY IDOCK:   -5.74 KCAL/MOL
REMARK 924 INTRA-LIGAND FREE ENERGY PREDICTED BY IDOCK:   -0.26 KCAL/MOL
REMARK 927      BINDING AFFINITY PREDICTED BY RF-SCORE:    0.00 PKD
ROOT
HETATM    1  C   UNL     1     -13.009  10.246  71.632  1.00  0.00    -0.465 C  
HETATM    2  N   UNL     1     -12.075  10.316  70.526  1.00  0.00    -0.297 NA 
HETATM    3  C   UNL     1     -10.910   9.459  70.502  1.00  0.00    -0.277 C  
ENDROOT
BRANCH   2   4
HETATM    4  C   UNL     1     -12.006  11.507  69.817  1.00  0.00    -0.346 A  
HETATM    5  N   UNL     1     -12.047  12.661  70.476  1.00  0.00    -0.344 NA 
HETATM    6  C   UNL     1     -12.013  13.773  69.756  1.00  0.00    -0.344 A  
HETATM    7  N   UNL     1     -11.949  13.761  68.429  1.00  0.00    -0.368 NA 
HETATM    8  N   UNL     1     -11.921  11.442  68.495  1.00  0.00    -0.555 NA 
HETATM    9  C   UNL     1     -11.897  12.580  67.822  1.00  0.00    -0.313 A  
BRANCH   6  10
HETATM   10  N   UNL     1     -11.972  14.998  70.400  1.00  0.00    -0.299 NA 
HETATM   11  C   UNL     1     -13.123  15.445  71.164  1.00  0.00    -0.498 C  
HETATM   12  C   UNL     1     -11.078  16.024  69.898  1.00  0.00    -0.352 C  
ENDBRANCH   6  10
BRANCH   9  13
HETATM   13  N   UNL     1     -11.863  12.543  66.442  1.00  0.00    -0.516 NA 
HETATM   14  C   UNL     1     -12.447  13.621  65.666  1.00  0.00    -0.496 C  
HETATM   15  C   UNL     1     -10.940  11.654  65.762  1.00  0.00    -0.274 C  
ENDBRANCH   9  13
ENDBRANCH   2   4
TORSDOF 3
ENDMDL
MODEL       10
REMARK 921   NORMALIZED FREE ENERGY PREDICTED BY IDOCK:   -4.87 KCAL/MOL
REMARK 922        TOTAL FREE ENERGY PREDICTED BY IDOCK:   -5.99 KCAL/MOL
REMARK 923 INTER-LIGAND FREE ENERGY PREDICTED BY IDOCK:   -5.73 KCAL/MOL
REMARK 924 INTRA-LIGAND FREE ENERGY PREDICTED BY IDOCK:   -0.26 KCAL/MOL
REMARK 927      BINDING AFFINITY PREDICTED BY RF-SCORE:    0.00 PKD
ROOT
HETATM    1  C   UNL     1     -12.742  15.387  70.748  1.00  0.00    -0.459 C  
HETATM    2  N   UNL     1     -11.915  15.069  69.601  1.00  0.00    -0.313 NA 
HETATM    3  C   UNL     1     -11.532  16.108  68.671  1.00  0.00    -0.340 C  
ENDROOT
BRANCH   2   4
HETATM    4  C   UNL     1     -11.949  13.766  69.126  1.00  0.00    -0.361 A  
HETATM    5  N   UNL     1     -12.000  12.758  69.991  1.00  0.00    -0.335 NA 
HETATM    6  C   UNL     1     -11.997  11.530  69.494  1.00  0.00    -0.335 A  
HETATM    7  N   UNL     1     -11.937  11.290  68.188  1.00  0.00    -0.641 NA 
HETATM    8  N   UNL     1     -11.909  13.580  67.813  1.00  0.00    -0.359 NA 
HETATM    9  C   UNL     1     -11.901  12.334  67.367  1.00  0.00    -0.257 A  
BRANCH   6  10
HETATM   10  N   UNL     1     -12.131  10.450  70.350  1.00  0.00    -0.301 NA 
HETATM   11  C   UNL     1     -12.912  10.593  71.566  1.00  0.00    -0.461 C  
HETATM   12  C   UNL     1     -11.111   9.418  70.341  1.00  0.00    -0.261 C  
ENDBRANCH   6  10
BRANCH   9  13
HETATM   13  N   UNL     1     -11.805  12.109  66.008  1.00  0.00    -0.561 NA 
HETATM   14  C   UNL     1     -12.644  12.848  65.083  1.00  0.00    -0.471 C  
HETATM   15  C   UNL     1     -10.642  11.436  65.464  1.00  0.00    -0.271 C  
ENDBRANCH   9  13
ENDBRANCH   2   4
TORSDOF 3
ENDMDL
MODEL       11
REMARK 921   NORMALIZED FREE ENERGY PREDICTED BY IDOCK:   -4.86 KCAL/MOL
REMARK 922        TOTAL FREE ENERGY PREDICTED BY IDOCK:   -5.97 KCAL/MOL
REMARK 923 INTER-LIGAND FREE ENERGY PREDICTED BY IDOCK:   -5.69 KCAL/MOL
REMARK 924 INTRA-LIGAND FREE ENERGY PREDICTED BY IDOCK:   -0.28 KCAL/MOL
REMARK 927      BINDING AFFINITY PREDICTED BY RF-SCORE:    0.00 PKD
ROOT
HETATM    1  C   UNL     1     -12.301  12.335  64.034  1.00  0.00    -0.475 C  
HETATM    2  N   UNL     1     -12.398  13.545  64.825  1.00  0.00    -0.507 NA 
HETATM    3  C   UNL     1     -12.196  14.837  64.206  1.00  0.00    -0.379 C  
ENDROOT
BRANCH   2   4
HETATM    4  C   UNL     1     -12.155  13.443  66.187  1.00  0.00    -0.429 A  
HETATM    5  N   UNL     1     -12.070  14.551  66.918  1.00  0.00    -0.359 NA 
HETATM    6  C   UNL     1     -11.803  14.407  68.208  1.00  0.00    -0.326 A  
HETATM    7  N   UNL     1     -11.617  13.217  68.770  1.00  0.00    -0.289 NA 
HETATM    8  N   UNL     1     -11.998  12.232  66.704  1.00  0.00    -0.622 NA 
HETATM    9  C   UNL     1     -11.727  12.143  67.996  1.00  0.00    -0.344 A  
BRANCH   6  10
HETATM   10  N   UNL     1     -11.784  15.525  69.026  1.00  0.00    -0.367 NA 
HETATM   11  C   UNL     1     -10.935  16.651  68.680  1.00  0.00    -0.328 C  
HETATM   12  C   UNL     1     -12.143  15.376  70.424  1.00  0.00    -0.372 C  
ENDBRANCH   6  10
BRANCH   9  13
HETATM   13  N   UNL     1     -11.505  10.898  68.550  1.00  0.00    -0.296 NA 
HETATM   14  C   UNL     1     -10.761   9.892  67.815  1.00  0.00    -0.277 C  
HETATM   15  C   UNL     1     -11.667  10.700  69.977  1.00  0.00    -0.324 C  
ENDBRANCH   9  13
ENDBRANCH   2   4
TORSDOF 3
ENDMDL
MODEL       12
REMARK 921   NORMALIZED FREE ENERGY PREDICTED BY IDOCK:   -4.86 KCAL/MOL
REMARK 922        TOTAL FREE ENERGY PREDICTED BY IDOCK:   -5.97 KCAL/MOL
REMARK 923 INTER-LIGAND FREE ENERGY PREDICTED BY IDOCK:   -5.71 KCAL/MOL
REMARK 924 INTRA-LIGAND FREE ENERGY PREDICTED BY IDOCK:   -0.26 KCAL/MOL
REMARK 927      BINDING AFFINITY PREDICTED BY RF-SCORE:    0.00 PKD
ROOT
HETATM    1  C   UNL     1     -11.964  16.088  71.942  1.00  0.00    -0.525 C  
HETATM    2  N   UNL     1     -12.977  15.292  71.278  1.00  0.00    -0.404 NA 
HETATM    3  C   UNL     1     -14.312  15.207  71.828  1.00  0.00    -0.597 C  
ENDROOT
BRANCH   2   4
HETATM    4  C   UNL     1     -12.547  14.244  70.477  1.00  0.00    -0.353 A  
HETATM    5  N   UNL     1     -12.225  14.482  69.209  1.00  0.00    -0.273 NA 
HETATM    6  C   UNL     1     -11.852  13.445  68.473  1.00  0.00    -0.366 A  
HETATM    7  N   UNL     1     -11.802  12.208  68.956  1.00  0.00    -0.314 NA 
HETATM    8  N   UNL     1     -12.493  13.032  71.012  1.00  0.00    -0.353 NA 
HETATM    9  C   UNL     1     -12.122  12.029  70.234  1.00  0.00    -0.312 A  
BRANCH   6  10
HETATM   10  N   UNL     1     -11.429  13.654  67.171  1.00  0.00    -0.325 NA 
HETATM   11  C   UNL     1     -11.085  14.996  66.737  1.00  0.00    -0.326 C  
HETATM   12  C   UNL     1     -11.836  12.715  66.143  1.00  0.00    -0.418 C  
ENDBRANCH   6  10
BRANCH   9  13
HETATM   13  N   UNL     1     -12.109  10.748  70.749  1.00  0.00    -0.344 NA 
HETATM   14  C   UNL     1     -10.934   9.910  70.596  1.00  0.00    -0.337 C  
HETATM   15  C   UNL     1     -13.082  10.358  71.750  1.00  0.00    -0.462 C  
ENDBRANCH   9  13
ENDBRANCH   2   4
TORSDOF 3
ENDMDL
MODEL       13
REMARK 921   NORMALIZED FREE ENERGY PREDICTED BY IDOCK:   -4.83 KCAL/MOL
REMARK 922        TOTAL FREE ENERGY PREDICTED BY IDOCK:   -5.94 KCAL/MOL
REMARK 923 INTER-LIGAND FREE ENERGY PREDICTED BY IDOCK:   -5.67 KCAL/MOL
REMARK 924 INTRA-LIGAND FREE ENERGY PREDICTED BY IDOCK:   -0.28 KCAL/MOL
REMARK 927      BINDING AFFINITY PREDICTED BY RF-SCORE:    0.00 PKD
ROOT
HETATM    1  C   UNL     1     -10.799  16.591  68.632  1.00  0.00    -0.345 C  
HETATM    2  N   UNL     1     -11.690  15.531  69.059  1.00  0.00    -0.367 NA 
HETATM    3  C   UNL     1     -12.060  15.409  70.453  1.00  0.00    -0.372 C  
ENDROOT
BRANCH   2   4
HETATM    4  C   UNL     1     -11.745  14.385  68.281  1.00  0.00    -0.341 A  
HETATM    5  N   UNL     1     -11.864  14.498  66.961  1.00  0.00    -0.401 NA 
HETATM    6  C   UNL     1     -11.946  13.377  66.260  1.00  0.00    -0.411 A  
HETATM    7  N   UNL     1     -11.921  12.177  66.830  1.00  0.00    -0.609 NA 
HETATM    8  N   UNL     1     -11.693  13.211  68.895  1.00  0.00    -0.306 NA 
HETATM    9  C   UNL     1     -11.786  12.121  68.151  1.00  0.00    -0.341 A  
BRANCH   6  10
HETATM   10  N   UNL     1     -11.990  13.442  64.878  1.00  0.00    -0.360 NA 
HETATM   11  C   UNL     1     -12.159  14.729  64.227  1.00  0.00    -0.394 C  
HETATM   12  C   UNL     1     -12.409  12.269  64.134  1.00  0.00    -0.451 C  
ENDBRANCH   6  10
BRANCH   9  13
HETATM   13  N   UNL     1     -11.790  10.885  68.768  1.00  0.00    -0.432 NA 
HETATM   14  C   UNL     1     -10.896   9.837  68.311  1.00  0.00    -0.210 C  
HETATM   15  C   UNL     1     -12.386  10.731  70.081  1.00  0.00    -0.325 C  
ENDBRANCH   9  13
ENDBRANCH   2   4
TORSDOF 3
ENDMDL
MODEL       14
REMARK 921   NORMALIZED FREE ENERGY PREDICTED BY IDOCK:   -4.83 KCAL/MOL
REMARK 922        TOTAL FREE ENERGY PREDICTED BY IDOCK:   -5.94 KCAL/MOL
REMARK 923 INTER-LIGAND FREE ENERGY PREDICTED BY IDOCK:   -5.66 KCAL/MOL
REMARK 924 INTRA-LIGAND FREE ENERGY PREDICTED BY IDOCK:   -0.28 KCAL/MOL
REMARK 927      BINDING AFFINITY PREDICTED BY RF-SCORE:    0.00 PKD
ROOT
HETATM    1  C   UNL     1     -11.968  16.004  72.219  1.00  0.00    -0.538 C  
HETATM    2  N   UNL     1     -12.883  15.587  71.175  1.00  0.00    -0.465 NA 
HETATM    3  C   UNL     1     -14.194  15.081  71.516  1.00  0.00    -0.540 C  
ENDROOT
BRANCH   2   4
HETATM    4  C   UNL     1     -12.336  15.183  69.966  1.00  0.00    -0.315 A  
HETATM    5  N   UNL     1     -12.386  13.899  69.624  1.00  0.00    -0.306 NA 
HETATM    6  C   UNL     1     -11.822  13.553  68.476  1.00  0.00    -0.362 A  
HETATM    7  N   UNL     1     -11.218  14.434  67.685  1.00  0.00    -0.300 NA 
HETATM    8  N   UNL     1     -11.764  16.103  69.201  1.00  0.00    -0.294 NA 
HETATM    9  C   UNL     1     -11.209  15.706  68.068  1.00  0.00    -0.339 A  
BRANCH   6  10
HETATM   10  N   UNL     1     -11.919  12.243  68.040  1.00  0.00    -0.458 NA 
HETATM   11  C   UNL     1     -11.882  11.161  69.007  1.00  0.00    -0.348 C  
HETATM   12  C   UNL     1     -11.517  11.925  66.682  1.00  0.00    -0.314 C  
ENDBRANCH   6  10
BRANCH   9  13
HETATM   13  N   UNL     1     -10.558  16.634  67.278  1.00  0.00    -0.310 NA 
HETATM   14  C   UNL     1     -10.279  16.340  65.885  1.00  0.00    -0.364 C  
HETATM   15  C   UNL     1     -10.485  18.020  67.697  1.00  0.00    -0.409 C  
ENDBRANCH   9  13
ENDBRANCH   2   4
TORSDOF 3
ENDMDL
MODEL       15
REMARK 921   NORMALIZED FREE ENERGY PREDICTED BY IDOCK:   -4.83 KCAL/MOL
REMARK 922        TOTAL FREE ENERGY PREDICTED BY IDOCK:   -5.93 KCAL/MOL
REMARK 923 INTER-LIGAND FREE ENERGY PREDICTED BY IDOCK:   -5.67 KCAL/MOL
REMARK 924 INTRA-LIGAND FREE ENERGY PREDICTED BY IDOCK:   -0.26 KCAL/MOL
REMARK 927      BINDING AFFINITY PREDICTED BY RF-SCORE:    0.00 PKD
ROOT
HETATM    1  C   UNL     1     -10.818  15.316  66.808  1.00  0.00    -0.312 C  
HETATM    2  N   UNL     1     -11.420  14.027  67.088  1.00  0.00    -0.333 NA 
HETATM    3  C   UNL     1     -12.133  13.316  66.050  1.00  0.00    -0.436 C  
ENDROOT
BRANCH   2   4
HETATM    4  C   UNL     1     -11.764  13.752  68.403  1.00  0.00    -0.358 A  
HETATM    5  N   UNL     1     -12.151  14.746  69.198  1.00  0.00    -0.276 NA 
HETATM    6  C   UNL     1     -12.438  14.441  70.455  1.00  0.00    -0.350 A  
HETATM    7  N   UNL     1     -12.343  13.203  70.928  1.00  0.00    -0.360 NA 
HETATM    8  N   UNL     1     -11.674  12.497  68.822  1.00  0.00    -0.312 NA 
HETATM    9  C   UNL     1     -11.964  12.246  70.088  1.00  0.00    -0.298 A  
BRANCH   6  10
HETATM   10  N   UNL     1     -12.923  15.427  71.299  1.00  0.00    -0.441 NA 
HETATM   11  C   UNL     1     -11.993  16.209  72.095  1.00  0.00    -0.537 C  
HETATM   12  C   UNL     1     -14.283  15.321  71.791  1.00  0.00    -0.568 C  
ENDBRANCH   6  10
BRANCH   9  13
HETATM   13  N   UNL     1     -11.827  10.957  70.566  1.00  0.00    -0.338 NA 
HETATM   14  C   UNL     1     -12.786  10.423  71.515  1.00  0.00    -0.459 C  
HETATM   15  C   UNL     1     -10.978  10.012  69.869  1.00  0.00    -0.293 C  
ENDBRANCH   9  13
ENDBRANCH   2   4
TORSDOF 3
ENDMDL
MODEL       16
REMARK 921   NORMALIZED FREE ENERGY PREDICTED BY IDOCK:   -4.80 KCAL/MOL
REMARK 922        TOTAL FREE ENERGY PREDICTED BY IDOCK:   -5.91 KCAL/MOL
REMARK 923 INTER-LIGAND FREE ENERGY PREDICTED BY IDOCK:   -5.63 KCAL/MOL
REMARK 924 INTRA-LIGAND FREE ENERGY PREDICTED BY IDOCK:   -0.27 KCAL/MOL
REMARK 927      BINDING AFFINITY PREDICTED BY RF-SCORE:    0.00 PKD
ROOT
HETATM    1  C   UNL     1     -10.115  18.326  68.492  1.00  0.00    -0.398 C  
HETATM    2  N   UNL     1     -10.350  17.138  67.696  1.00  0.00    -0.333 NA 
HETATM    3  C   UNL     1     -10.388  17.226  66.253  1.00  0.00    -0.322 C  
ENDROOT
BRANCH   2   4
HETATM    4  C   UNL     1     -11.039  16.092  68.292  1.00  0.00    -0.351 A  
HETATM    5  N   UNL     1     -11.507  16.239  69.527  1.00  0.00    -0.281 NA 
HETATM    6  C   UNL     1     -12.129  15.202  70.069  1.00  0.00    -0.345 A  
HETATM    7  N   UNL     1     -12.284  14.049  69.426  1.00  0.00    -0.333 NA 
HETATM    8  N   UNL     1     -11.187  14.969  67.601  1.00  0.00    -0.317 NA 
HETATM    9  C   UNL     1     -11.809  13.961  68.189  1.00  0.00    -0.372 A  
BRANCH   6  10
HETATM   10  N   UNL     1     -12.704  15.333  71.322  1.00  0.00    -0.365 NA 
HETATM   11  C   UNL     1     -14.142  15.195  71.468  1.00  0.00    -0.540 C  
HETATM   12  C   UNL     1     -12.012  16.112  72.332  1.00  0.00    -0.554 C  
ENDBRANCH   6  10
BRANCH   9  13
HETATM   13  N   UNL     1     -11.930  12.762  67.514  1.00  0.00    -0.381 NA 
HETATM   14  C   UNL     1     -11.987  12.741  66.064  1.00  0.00    -0.432 C  
HETATM   15  C   UNL     1     -11.627  11.515  68.189  1.00  0.00    -0.308 C  
ENDBRANCH   9  13
ENDBRANCH   2   4
TORSDOF 3
ENDMDL
MODEL       17
REMARK 921   NORMALIZED FREE ENERGY PREDICTED BY IDOCK:   -4.80 KCAL/MOL
REMARK 922        TOTAL FREE ENERGY PREDICTED BY IDOCK:   -5.91 KCAL/MOL
REMARK 923 INTER-LIGAND FREE ENERGY PREDICTED BY IDOCK:   -5.63 KCAL/MOL
REMARK 924 INTRA-LIGAND FREE ENERGY PREDICTED BY IDOCK:   -0.28 KCAL/MOL
REMARK 927      BINDING AFFINITY PREDICTED BY RF-SCORE:    0.00 PKD
ROOT
HETATM    1  C   UNL     1     -10.796  16.336  68.967  1.00  0.00    -0.315 C  
HETATM    2  N   UNL     1     -11.846  15.370  69.224  1.00  0.00    -0.342 NA 
HETATM    3  C   UNL     1     -12.454  15.288  70.534  1.00  0.00    -0.405 C  
ENDROOT
BRANCH   2   4
HETATM    4  C   UNL     1     -11.882  14.233  68.430  1.00  0.00    -0.338 A  
HETATM    5  N   UNL     1     -11.632  13.047  68.978  1.00  0.00    -0.299 NA 
HETATM    6  C   UNL     1     -11.644  11.993  68.176  1.00  0.00    -0.340 A  
HETATM    7  N   UNL     1     -11.884  12.091  66.873  1.00  0.00    -0.616 NA 
HETATM    8  N   UNL     1     -12.148  14.381  67.140  1.00  0.00    -0.394 NA 
HETATM    9  C   UNL     1     -12.141  13.298  66.380  1.00  0.00    -0.394 A  
BRANCH   6  10
HETATM   10  N   UNL     1     -11.469  10.729  68.714  1.00  0.00    -0.288 NA 
HETATM   11  C   UNL     1     -11.528  10.549  70.154  1.00  0.00    -0.325 C  
HETATM   12  C   UNL     1     -10.720   9.743  67.958  1.00  0.00    -0.247 C  
ENDBRANCH   6  10
BRANCH   9  13
HETATM   13  N   UNL     1     -12.362  13.429  65.023  1.00  0.00    -0.431 NA 
HETATM   14  C   UNL     1     -12.157  14.707  64.368  1.00  0.00    -0.462 C  
HETATM   15  C   UNL     1     -12.427  12.250  64.181  1.00  0.00    -0.434 C  
ENDBRANCH   9  13
ENDBRANCH   2   4
TORSDOF 3
ENDMDL
MODEL       18
REMARK 921   NORMALIZED FREE ENERGY PREDICTED BY IDOCK:   -4.80 KCAL/MOL
REMARK 922        TOTAL FREE ENERGY PREDICTED BY IDOCK:   -5.90 KCAL/MOL
REMARK 923 INTER-LIGAND FREE ENERGY PREDICTED BY IDOCK:   -5.65 KCAL/MOL
REMARK 924 INTRA-LIGAND FREE ENERGY PREDICTED BY IDOCK:   -0.25 KCAL/MOL
REMARK 927      BINDING AFFINITY PREDICTED BY RF-SCORE:    0.00 PKD
ROOT
HETATM    1  C   UNL     1     -10.053  14.469  67.100  1.00  0.00    -0.252 C  
HETATM    2  N   UNL     1     -11.327  13.801  67.276  1.00  0.00    -0.307 NA 
HETATM    3  C   UNL     1     -12.365  13.941  66.279  1.00  0.00    -0.449 C  
ENDROOT
BRANCH   2   4
HETATM    4  C   UNL     1     -11.721  13.500  68.571  1.00  0.00    -0.357 A  
HETATM    5  N   UNL     1     -11.727  12.233  68.973  1.00  0.00    -0.309 NA 
HETATM    6  C   UNL     1     -12.143  11.989  70.208  1.00  0.00    -0.312 A  
HETATM    7  N   UNL     1     -12.549  12.954  71.026  1.00  0.00    -0.345 NA 
HETATM    8  N   UNL     1     -12.096  14.500  69.357  1.00  0.00    -0.307 NA 
HETATM    9  C   UNL     1     -12.510  14.204  70.579  1.00  0.00    -0.361 A  
BRANCH   6  10
HETATM   10  N   UNL     1     -12.091  10.695  70.698  1.00  0.00    -0.332 NA 
HETATM   11  C   UNL     1     -12.947  10.315  71.808  1.00  0.00    -0.469 C  
HETATM   12  C   UNL     1     -10.878   9.922  70.509  1.00  0.00    -0.326 C  
ENDBRANCH   6  10
BRANCH   9  13
HETATM   13  N   UNL     1     -12.958  15.220  71.401  1.00  0.00    -0.394 NA 
HETATM   14  C   UNL     1     -14.321  15.210  71.898  1.00  0.00    -0.596 C  
HETATM   15  C   UNL     1     -12.006  16.082  72.074  1.00  0.00    -0.537 C  
ENDBRANCH   9  13
ENDBRANCH   2   4
TORSDOF 3
ENDMDL
MODEL       19
REMARK 921   NORMALIZED FREE ENERGY PREDICTED BY IDOCK:   -4.77 KCAL/MOL
REMARK 922        TOTAL FREE ENERGY PREDICTED BY IDOCK:   -5.86 KCAL/MOL
REMARK 923 INTER-LIGAND FREE ENERGY PREDICTED BY IDOCK:   -5.59 KCAL/MOL
REMARK 924 INTRA-LIGAND FREE ENERGY PREDICTED BY IDOCK:   -0.27 KCAL/MOL
REMARK 927      BINDING AFFINITY PREDICTED BY RF-SCORE:    0.00 PKD
ROOT
HETATM    1  C   UNL     1     -13.232  10.281  72.027  1.00  0.00    -0.411 C  
HETATM    2  N   UNL     1     -12.250  10.553  70.996  1.00  0.00    -0.368 NA 
HETATM    3  C   UNL     1     -11.028   9.782  70.935  1.00  0.00    -0.341 C  
ENDROOT
BRANCH   2   4
HETATM    4  C   UNL     1     -12.231  11.827  70.447  1.00  0.00    -0.330 A  
HETATM    5  N   UNL     1     -12.653  12.856  71.175  1.00  0.00    -0.344 NA 
HETATM    6  C   UNL     1     -12.648  14.050  70.599  1.00  0.00    -0.344 A  
HETATM    7  N   UNL     1     -12.253  14.234  69.344  1.00  0.00    -0.312 NA 
HETATM    8  N   UNL     1     -11.807  11.961  69.198  1.00  0.00    -0.311 NA 
HETATM    9  C   UNL     1     -11.829  13.172  68.666  1.00  0.00    -0.328 A  
BRANCH   6  10
HETATM   10  N   UNL     1     -13.001  15.164  71.342  1.00  0.00    -0.367 NA 
HETATM   11  C   UNL     1     -11.962  16.017  71.889  1.00  0.00    -0.525 C  
HETATM   12  C   UNL     1     -14.287  15.179  72.014  1.00  0.00    -0.586 C  
ENDBRANCH   6  10
BRANCH   9  13
HETATM   13  N   UNL     1     -11.443  13.334  67.349  1.00  0.00    -0.313 NA 
HETATM   14  C   UNL     1     -11.321  12.182  66.476  1.00  0.00    -0.350 C  
HETATM   15  C   UNL     1     -11.522  14.641  66.726  1.00  0.00    -0.364 C  
ENDBRANCH   9  13
ENDBRANCH   2   4
TORSDOF 3
ENDMDL
MODEL       20
REMARK 921   NORMALIZED FREE ENERGY PREDICTED BY IDOCK:   -4.76 KCAL/MOL
REMARK 922        TOTAL FREE ENERGY PREDICTED BY IDOCK:   -5.86 KCAL/MOL
REMARK 923 INTER-LIGAND FREE ENERGY PREDICTED BY IDOCK:   -5.58 KCAL/MOL
REMARK 924 INTRA-LIGAND FREE ENERGY PREDICTED BY IDOCK:   -0.28 KCAL/MOL
REMARK 927      BINDING AFFINITY PREDICTED BY RF-SCORE:    0.00 PKD
ROOT
HETATM    1  C   UNL     1     -11.908  11.046  68.869  1.00  0.00    -0.308 C  
HETATM    2  N   UNL     1     -11.846  12.127  67.906  1.00  0.00    -0.490 NA 
HETATM    3  C   UNL     1     -11.325  11.890  66.577  1.00  0.00    -0.341 C  
ENDROOT
BRANCH   2   4
HETATM    4  C   UNL     1     -11.776  13.422  68.398  1.00  0.00    -0.355 A  
HETATM    5  N   UNL     1     -12.300  13.696  69.589  1.00  0.00    -0.260 NA 
HETATM    6  C   UNL     1     -12.240  14.954  70.004  1.00  0.00    -0.333 A  
HETATM    7  N   UNL     1     -11.691  15.919  69.275  1.00  0.00    -0.370 NA 
HETATM    8  N   UNL     1     -11.199  14.347  67.642  1.00  0.00    -0.300 NA 
HETATM    9  C   UNL     1     -11.171  15.588  68.098  1.00  0.00    -0.343 A  
BRANCH   6  10
HETATM   10  N   UNL     1     -12.699  15.273  71.271  1.00  0.00    -0.365 NA 
HETATM   11  C   UNL     1     -14.124  15.232  71.548  1.00  0.00    -0.524 C  
HETATM   12  C   UNL     1     -11.889  16.133  72.113  1.00  0.00    -0.536 C  
ENDBRANCH   6  10
BRANCH   9  13
HETATM   13  N   UNL     1     -10.624  16.581  67.309  1.00  0.00    -0.310 NA 
HETATM   14  C   UNL     1     -10.287  17.870  67.884  1.00  0.00    -0.389 C  
HETATM   15  C   UNL     1     -10.040  16.248  66.025  1.00  0.00    -0.356 C  
ENDBRANCH   9  13
ENDBRANCH   2   4
TORSDOF 3
ENDMDL
MODEL       21
REMARK 921   NORMALIZED FREE ENERGY PREDICTED BY IDOCK:   -4.76 KCAL/MOL
REMARK 922        TOTAL FREE ENERGY PREDICTED BY IDOCK:   -5.86 KCAL/MOL
REMARK 923 INTER-LIGAND FREE ENERGY PREDICTED BY IDOCK:   -5.59 KCAL/MOL
REMARK 924 INTRA-LIGAND FREE ENERGY PREDICTED BY IDOCK:   -0.27 KCAL/MOL
REMARK 927      BINDING AFFINITY PREDICTED BY RF-SCORE:    0.00 PKD
ROOT
HETATM    1  C   UNL     1      -9.840  18.719  68.780  1.00  0.00    -0.384 C  
HETATM    2  N   UNL     1     -10.175  17.742  67.763  1.00  0.00    -0.344 NA 
HETATM    3  C   UNL     1     -10.365  18.158  66.390  1.00  0.00    -0.394 C  
ENDROOT
BRANCH   2   4
HETATM    4  C   UNL     1     -10.810  16.579  68.173  1.00  0.00    -0.345 A  
HETATM    5  N   UNL     1     -10.949  15.575  67.313  1.00  0.00    -0.318 NA 
HETATM    6  C   UNL     1     -11.591  14.496  67.738  1.00  0.00    -0.365 A  
HETATM    7  N   UNL     1     -12.093  14.403  68.965  1.00  0.00    -0.297 NA 
HETATM    8  N   UNL     1     -11.273  16.526  69.414  1.00  0.00    -0.251 NA 
HETATM    9  C   UNL     1     -11.914  15.430  69.787  1.00  0.00    -0.358 A  
BRANCH   6  10
HETATM   10  N   UNL     1     -11.690  13.394  66.906  1.00  0.00    -0.367 NA 
HETATM   11  C   UNL     1     -12.465  13.487  65.682  1.00  0.00    -0.479 C  
HETATM   12  C   UNL     1     -11.515  12.070  67.474  1.00  0.00    -0.333 C  
ENDBRANCH   6  10
BRANCH   9  13
HETATM   13  N   UNL     1     -12.455  15.368  71.057  1.00  0.00    -0.376 NA 
HETATM   14  C   UNL     1     -11.799  16.038  72.164  1.00  0.00    -0.528 C  
HETATM   15  C   UNL     1     -13.838  14.974  71.238  1.00  0.00    -0.450 C  
ENDBRANCH   9  13
ENDBRANCH   2   4
TORSDOF 3
ENDMDL
MODEL       22
REMARK 921   NORMALIZED FREE ENERGY PREDICTED BY IDOCK:   -4.73 KCAL/MOL
REMARK 922        TOTAL FREE ENERGY PREDICTED BY IDOCK:   -5.83 KCAL/MOL
REMARK 923 INTER-LIGAND FREE ENERGY PREDICTED BY IDOCK:   -5.57 KCAL/MOL
REMARK 924 INTRA-LIGAND FREE ENERGY PREDICTED BY IDOCK:   -0.26 KCAL/MOL
REMARK 927      BINDING AFFINITY PREDICTED BY RF-SCORE:    0.00 PKD
ROOT
HETATM    1  C   UNL     1     -11.175   9.975  69.663  1.00  0.00    -0.239 C  
HETATM    2  N   UNL     1     -11.886  10.894  70.530  1.00  0.00    -0.338 NA 
HETATM    3  C   UNL     1     -12.871  10.396  71.465  1.00  0.00    -0.464 C  
ENDROOT
BRANCH   2   4
HETATM    4  C   UNL     1     -12.014  12.208  70.106  1.00  0.00    -0.314 A  
HETATM    5  N   UNL     1     -11.661  12.531  68.866  1.00  0.00    -0.308 NA 
HETATM    6  C   UNL     1     -11.769  13.805  68.515  1.00  0.00    -0.356 A  
HETATM    7  N   UNL     1     -12.200  14.740  69.354  1.00  0.00    -0.256 NA 
HETATM    8  N   UNL     1     -12.470  13.102  70.974  1.00  0.00    -0.364 NA 
HETATM    9  C   UNL     1     -12.552  14.361  70.578  1.00  0.00    -0.353 A  
BRANCH   6  10
HETATM   10  N   UNL     1     -11.491  14.175  67.210  1.00  0.00    -0.331 NA 
HETATM   11  C   UNL     1     -10.767  15.408  66.955  1.00  0.00    -0.314 C  
HETATM   12  C   UNL     1     -12.341  13.679  66.145  1.00  0.00    -0.426 C  
ENDBRANCH   6  10
BRANCH   9  13
HETATM   13  N   UNL     1     -12.973  15.322  71.477  1.00  0.00    -0.376 NA 
HETATM   14  C   UNL     1     -14.344  15.329  71.951  1.00  0.00    -0.589 C  
HETATM   15  C   UNL     1     -11.998  16.082  72.235  1.00  0.00    -0.538 C  
ENDBRANCH   9  13
ENDBRANCH   2   4
TORSDOF 3
ENDMDL
MODEL       23
REMARK 921   NORMALIZED FREE ENERGY PREDICTED BY IDOCK:   -4.73 KCAL/MOL
REMARK 922        TOTAL FREE ENERGY PREDICTED BY IDOCK:   -5.83 KCAL/MOL
REMARK 923 INTER-LIGAND FREE ENERGY PREDICTED BY IDOCK:   -5.56 KCAL/MOL
REMARK 924 INTRA-LIGAND FREE ENERGY PREDICTED BY IDOCK:   -0.26 KCAL/MOL
REMARK 927      BINDING AFFINITY PREDICTED BY RF-SCORE:    0.00 PKD
ROOT
HETATM    1  C   UNL     1     -10.931   9.879  70.004  1.00  0.00    -0.291 C  
HETATM    2  N   UNL     1     -11.868  10.774  70.654  1.00  0.00    -0.342 NA 
HETATM    3  C   UNL     1     -12.981  10.239  71.408  1.00  0.00    -0.440 C  
ENDROOT
BRANCH   2   4
HETATM    4  C   UNL     1     -12.005  12.051  70.130  1.00  0.00    -0.321 A  
HETATM    5  N   UNL     1     -12.433  13.035  70.916  1.00  0.00    -0.357 NA 
HETATM    6  C   UNL     1     -12.581  14.231  70.365  1.00  0.00    -0.343 A  
HETATM    7  N   UNL     1     -12.327  14.461  69.081  1.00  0.00    -0.203 NA 
HETATM    8  N   UNL     1     -11.718  12.234  68.849  1.00  0.00    -0.313 NA 
HETATM    9  C   UNL     1     -11.889  13.445  68.345  1.00  0.00    -0.366 A  
BRANCH   6  10
HETATM   10  N   UNL     1     -12.946  15.305  71.160  1.00  0.00    -0.418 NA 
HETATM   11  C   UNL     1     -11.917  16.089  71.821  1.00  0.00    -0.517 C  
HETATM   12  C   UNL     1     -14.267  15.316  71.759  1.00  0.00    -0.568 C  
ENDBRANCH   6  10
BRANCH   9  13
HETATM   13  N   UNL     1     -11.650  13.653  67.000  1.00  0.00    -0.340 NA 
HETATM   14  C   UNL     1     -10.997  14.869  66.553  1.00  0.00    -0.327 C  
HETATM   15  C   UNL     1     -11.695  12.538  66.075  1.00  0.00    -0.417 C  
ENDBRANCH   9  13
ENDBRANCH   2   4
TORSDOF 3
ENDMDL
MODEL       24
REMARK 921   NORMALIZED FREE ENERGY PREDICTED BY IDOCK:   -4.73 KCAL/MOL
REMARK 922        TOTAL FREE ENERGY PREDICTED BY IDOCK:   -5.82 KCAL/MOL
REMARK 923 INTER-LIGAND FREE ENERGY PREDICTED BY IDOCK:   -5.55 KCAL/MOL
REMARK 924 INTRA-LIGAND FREE ENERGY PREDICTED BY IDOCK:   -0.27 KCAL/MOL
REMARK 927      BINDING AFFINITY PREDICTED BY RF-SCORE:    0.00 PKD
ROOT
HETATM    1  C   UNL     1     -12.155  16.031  72.307  1.00  0.00    -0.527 C  
HETATM    2  N   UNL     1     -12.988  15.594  71.204  1.00  0.00    -0.496 NA 
HETATM    3  C   UNL     1     -14.272  14.979  71.462  1.00  0.00    -0.540 C  
ENDROOT
BRANCH   2   4
HETATM    4  C   UNL     1     -12.359  15.284  70.007  1.00  0.00    -0.328 A  
HETATM    5  N   UNL     1     -11.779  16.252  69.306  1.00  0.00    -0.211 NA 
HETATM    6  C   UNL     1     -11.219  15.915  68.152  1.00  0.00    -0.339 A  
HETATM    7  N   UNL     1     -11.232  14.669  67.691  1.00  0.00    -0.307 NA 
HETATM    8  N   UNL     1     -12.380  14.021  69.601  1.00  0.00    -0.316 NA 
HETATM    9  C   UNL     1     -11.814  13.738  68.439  1.00  0.00    -0.376 A  
BRANCH   6  10
HETATM   10  N   UNL     1     -10.533  16.873  67.425  1.00  0.00    -0.317 NA 
HETATM   11  C   UNL     1     -10.536  18.253  67.877  1.00  0.00    -0.370 C  
HETATM   12  C   UNL     1     -10.297  16.644  66.012  1.00  0.00    -0.340 C  
ENDBRANCH   6  10
BRANCH   9  13
HETATM   13  N   UNL     1     -11.868  12.442  67.965  1.00  0.00    -0.381 NA 
HETATM   14  C   UNL     1     -11.637  12.167  66.559  1.00  0.00    -0.359 C  
HETATM   15  C   UNL     1     -11.779  11.327  68.888  1.00  0.00    -0.341 C  
ENDBRANCH   9  13
ENDBRANCH   2   4
TORSDOF 3
ENDMDL
MODEL       25
REMARK 921   NORMALIZED FREE ENERGY PREDICTED BY IDOCK:   -4.73 KCAL/MOL
REMARK 922        TOTAL FREE ENERGY PREDICTED BY IDOCK:   -5.82 KCAL/MOL
REMARK 923 INTER-LIGAND FREE ENERGY PREDICTED BY IDOCK:   -5.54 KCAL/MOL
REMARK 924 INTRA-LIGAND FREE ENERGY PREDICTED BY IDOCK:   -0.28 KCAL/MOL
REMARK 927      BINDING AFFINITY PREDICTED BY RF-SCORE:    0.00 PKD
ROOT
HETATM    1  C   UNL     1     -11.539  10.536  70.361  1.00  0.00    -0.342 C  
HETATM    2  N   UNL     1     -11.499  10.636  68.915  1.00  0.00    -0.271 NA 
HETATM    3  C   UNL     1     -10.771   9.658  68.138  1.00  0.00    -0.217 C  
ENDROOT
BRANCH   2   4
HETATM    4  C   UNL     1     -11.683  11.891  68.354  1.00  0.00    -0.326 A  
HETATM    5  N   UNL     1     -11.751  12.957  69.146  1.00  0.00    -0.309 NA 
HETATM    6  C   UNL     1     -11.961  14.131  68.569  1.00  0.00    -0.332 A  
HETATM    7  N   UNL     1     -12.108  14.263  67.255  1.00  0.00    -0.401 NA 
HETATM    8  N   UNL     1     -11.802  11.973  67.035  1.00  0.00    -0.611 NA 
HETATM    9  C   UNL     1     -12.017  13.167  66.508  1.00  0.00    -0.398 A  
BRANCH   6  10
HETATM   10  N   UNL     1     -11.959  15.278  69.344  1.00  0.00    -0.326 NA 
HETATM   11  C   UNL     1     -10.858  16.218  69.231  1.00  0.00    -0.318 C  
HETATM   12  C   UNL     1     -12.701  15.283  70.591  1.00  0.00    -0.416 C  
ENDBRANCH   6  10
BRANCH   9  13
HETATM   13  N   UNL     1     -12.199  13.276  65.143  1.00  0.00    -0.415 NA 
HETATM   14  C   UNL     1     -12.160  14.577  64.502  1.00  0.00    -0.484 C  
HETATM   15  C   UNL     1     -12.054  12.108  64.297  1.00  0.00    -0.375 C  
ENDBRANCH   9  13
ENDBRANCH   2   4
TORSDOF 3
ENDMDL
MODEL       26
REMARK 921   NORMALIZED FREE ENERGY PREDICTED BY IDOCK:   -4.72 KCAL/MOL
REMARK 922        TOTAL FREE ENERGY PREDICTED BY IDOCK:   -5.81 KCAL/MOL
REMARK 923 INTER-LIGAND FREE ENERGY PREDICTED BY IDOCK:   -5.53 KCAL/MOL
REMARK 924 INTRA-LIGAND FREE ENERGY PREDICTED BY IDOCK:   -0.28 KCAL/MOL
REMARK 927      BINDING AFFINITY PREDICTED BY RF-SCORE:    0.00 PKD
ROOT
HETATM    1  C   UNL     1     -11.664  11.427  68.167  1.00  0.00    -0.284 C  
HETATM    2  N   UNL     1     -11.917  12.623  67.389  1.00  0.00    -0.442 NA 
HETATM    3  C   UNL     1     -11.796  12.592  65.947  1.00  0.00    -0.444 C  
ENDROOT
BRANCH   2   4
HETATM    4  C   UNL     1     -11.747  13.847  68.018  1.00  0.00    -0.352 A  
HETATM    5  N   UNL     1     -11.057  14.805  67.406  1.00  0.00    -0.314 NA 
HETATM    6  C   UNL     1     -10.891  15.946  68.059  1.00  0.00    -0.317 A  
HETATM    7  N   UNL     1     -11.377  16.146  69.280  1.00  0.00    -0.337 NA 
HETATM    8  N   UNL     1     -12.270  14.005  69.227  1.00  0.00    -0.330 NA 
HETATM    9  C   UNL     1     -12.070  15.160  69.840  1.00  0.00    -0.336 A  
BRANCH   6  10
HETATM   10  N   UNL     1     -10.250  17.001  67.431  1.00  0.00    -0.306 NA 
HETATM   11  C   UNL     1     -10.027  18.238  68.157  1.00  0.00    -0.360 C  
HETATM   12  C   UNL     1     -10.297  17.087  65.984  1.00  0.00    -0.315 C  
ENDBRANCH   6  10
BRANCH   9  13
HETATM   13  N   UNL     1     -12.557  15.334  71.120  1.00  0.00    -0.357 NA 
HETATM   14  C   UNL     1     -11.790  16.081  72.099  1.00  0.00    -0.528 C  
HETATM   15  C   UNL     1     -13.963  15.114  71.398  1.00  0.00    -0.506 C  
ENDBRANCH   9  13
ENDBRANCH   2   4
TORSDOF 3
ENDMDL
MODEL       27
REMARK 921   NORMALIZED FREE ENERGY PREDICTED BY IDOCK:   -4.71 KCAL/MOL
REMARK 922        TOTAL FREE ENERGY PREDICTED BY IDOCK:   -5.79 KCAL/MOL
REMARK 923 INTER-LIGAND FREE ENERGY PREDICTED BY IDOCK:   -5.54 KCAL/MOL
REMARK 924 INTRA-LIGAND FREE ENERGY PREDICTED BY IDOCK:   -0.26 KCAL/MOL
REMARK 927      BINDING AFFINITY PREDICTED BY RF-SCORE:    0.00 PKD
ROOT
HETATM    1  C   UNL     1     -13.215  10.271  71.937  1.00  0.00    -0.445 C  
HETATM    2  N   UNL     1     -12.209  10.523  70.924  1.00  0.00    -0.353 NA 
HETATM    3  C   UNL     1     -11.005   9.722  70.880  1.00  0.00    -0.341 C  
ENDROOT
BRANCH   2   4
HETATM    4  C   UNL     1     -12.150  11.797  70.381  1.00  0.00    -0.352 A  
HETATM    5  N   UNL     1     -11.628  11.966  69.169  1.00  0.00    -0.287 NA 
HETATM    6  C   UNL     1     -11.562  13.205  68.703  1.00  0.00    -0.321 A  
HETATM    7  N   UNL     1     -11.984  14.253  69.403  1.00  0.00    -0.323 NA 
HETATM    8  N   UNL     1     -12.604  12.808  71.109  1.00  0.00    -0.340 NA 
HETATM    9  C   UNL     1     -12.508  14.026  70.602  1.00  0.00    -0.365 A  
BRANCH   6  10
HETATM   10  N   UNL     1     -11.102  13.422  67.415  1.00  0.00    -0.271 NA 
HETATM   11  C   UNL     1     -10.066  14.412  67.182  1.00  0.00    -0.253 C  
HETATM   12  C   UNL     1     -11.971  13.104  66.298  1.00  0.00    -0.415 C  
ENDBRANCH   6  10
BRANCH   9  13
HETATM   13  N   UNL     1     -12.924  15.103  71.361  1.00  0.00    -0.367 NA 
HETATM   14  C   UNL     1     -14.272  15.146  71.894  1.00  0.00    -0.579 C  
HETATM   15  C   UNL     1     -11.945  16.001  71.943  1.00  0.00    -0.525 C  
ENDBRANCH   9  13
ENDBRANCH   2   4
TORSDOF 3
ENDMDL
MODEL       28
REMARK 921   NORMALIZED FREE ENERGY PREDICTED BY IDOCK:   -4.69 KCAL/MOL
REMARK 922        TOTAL FREE ENERGY PREDICTED BY IDOCK:   -5.78 KCAL/MOL
REMARK 923 INTER-LIGAND FREE ENERGY PREDICTED BY IDOCK:   -5.52 KCAL/MOL
REMARK 924 INTRA-LIGAND FREE ENERGY PREDICTED BY IDOCK:   -0.25 KCAL/MOL
REMARK 927      BINDING AFFINITY PREDICTED BY RF-SCORE:    0.00 PKD
ROOT
HETATM    1  C   UNL     1     -12.660  13.847  65.622  1.00  0.00    -0.517 C  
HETATM    2  N   UNL     1     -11.810  13.576  66.764  1.00  0.00    -0.386 NA 
HETATM    3  C   UNL     1     -11.661  12.224  67.255  1.00  0.00    -0.357 C  
ENDROOT
BRANCH   2   4
HETATM    4  C   UNL     1     -11.592  14.611  67.663  1.00  0.00    -0.361 A  
HETATM    5  N   UNL     1     -10.835  15.641  67.299  1.00  0.00    -0.307 NA 
HETATM    6  C   UNL     1     -10.627  16.590  68.201  1.00  0.00    -0.329 A  
HETATM    7  N   UNL     1     -11.137  16.532  69.427  1.00  0.00    -0.293 NA 
HETATM    8  N   UNL     1     -12.141  14.517  68.866  1.00  0.00    -0.277 NA 
HETATM    9  C   UNL     1     -11.897  15.486  69.733  1.00  0.00    -0.359 A  
BRANCH   6  10
HETATM   10  N   UNL     1      -9.913  17.721  67.844  1.00  0.00    -0.306 NA 
HETATM   11  C   UNL     1      -8.571  17.915  68.364  1.00  0.00    -0.293 C  
HETATM   12  C   UNL     1     -10.639  18.910  67.440  1.00  0.00    -0.460 C  
ENDBRANCH   6  10
BRANCH   9  13
HETATM   13  N   UNL     1     -12.411  15.389  71.011  1.00  0.00    -0.357 NA 
HETATM   14  C   UNL     1     -11.771  16.086  72.111  1.00  0.00    -0.488 C  
HETATM   15  C   UNL     1     -13.768  14.921  71.215  1.00  0.00    -0.435 C  
ENDBRANCH   9  13
ENDBRANCH   2   4
TORSDOF 3
ENDMDL
MODEL       29
REMARK 921   NORMALIZED FREE ENERGY PREDICTED BY IDOCK:   -4.68 KCAL/MOL
REMARK 922        TOTAL FREE ENERGY PREDICTED BY IDOCK:   -5.77 KCAL/MOL
REMARK 923 INTER-LIGAND FREE ENERGY PREDICTED BY IDOCK:   -5.49 KCAL/MOL
REMARK 924 INTRA-LIGAND FREE ENERGY PREDICTED BY IDOCK:   -0.28 KCAL/MOL
REMARK 927      BINDING AFFINITY PREDICTED BY RF-SCORE:    0.00 PKD
ROOT
HETATM    1  C   UNL     1     -10.294  13.689  65.206  1.00  0.00    -0.348 C  
HETATM    2  N   UNL     1     -11.429  13.947  66.071  1.00  0.00    -0.331 NA 
HETATM    3  C   UNL     1     -12.776  13.775  65.574  1.00  0.00    -0.488 C  
ENDROOT
BRANCH   2   4
HETATM    4  C   UNL     1     -11.244  14.829  67.126  1.00  0.00    -0.343 A  
HETATM    5  N   UNL     1     -11.576  14.450  68.357  1.00  0.00    -0.301 NA 
HETATM    6  C   UNL     1     -11.414  15.336  69.329  1.00  0.00    -0.320 A  
HETATM    7  N   UNL     1     -10.949  16.561  69.106  1.00  0.00    -0.316 NA 
HETATM    8  N   UNL     1     -10.756  16.032  66.856  1.00  0.00    -0.298 NA 
HETATM    9  C   UNL     1     -10.620  16.882  67.860  1.00  0.00    -0.361 A  
BRANCH   6  10
HETATM   10  N   UNL     1     -11.669  14.962  70.637  1.00  0.00    -0.286 NA 
HETATM   11  C   UNL     1     -12.422  13.749  70.902  1.00  0.00    -0.377 C  
HETATM   12  C   UNL     1     -11.685  15.984  71.668  1.00  0.00    -0.506 C  
ENDBRANCH   6  10
BRANCH   9  13
HETATM   13  N   UNL     1     -10.166  18.161  67.600  1.00  0.00    -0.355 NA 
HETATM   14  C   UNL     1     -10.367  18.757  66.293  1.00  0.00    -0.448 C  
HETATM   15  C   UNL     1      -9.833  19.049  68.696  1.00  0.00    -0.413 C  
ENDBRANCH   9  13
ENDBRANCH   2   4
TORSDOF 3
ENDMDL
MODEL       30
REMARK 921   NORMALIZED FREE ENERGY PREDICTED BY IDOCK:   -4.67 KCAL/MOL
REMARK 922        TOTAL FREE ENERGY PREDICTED BY IDOCK:   -5.75 KCAL/MOL
REMARK 923 INTER-LIGAND FREE ENERGY PREDICTED BY IDOCK:   -5.47 KCAL/MOL
REMARK 924 INTRA-LIGAND FREE ENERGY PREDICTED BY IDOCK:   -0.28 KCAL/MOL
REMARK 927      BINDING AFFINITY PREDICTED BY RF-SCORE:    0.00 PKD
ROOT
HETATM    1  C   UNL     1     -11.873  16.077  71.592  1.00  0.00    -0.507 C  
HETATM    2  N   UNL     1     -12.132  15.129  70.527  1.00  0.00    -0.315 NA 
HETATM    3  C   UNL     1     -12.314  13.726  70.830  1.00  0.00    -0.379 C  
ENDROOT
BRANCH   2   4
HETATM    4  C   UNL     1     -11.687  15.456  69.254  1.00  0.00    -0.349 A  
HETATM    5  N   UNL     1     -11.713  14.532  68.298  1.00  0.00    -0.328 NA 
HETATM    6  C   UNL     1     -11.247  14.879  67.106  1.00  0.00    -0.343 A  
HETATM    7  N   UNL     1     -10.761  16.090  66.856  1.00  0.00    -0.298 NA 
HETATM    8  N   UNL     1     -11.231  16.684  69.049  1.00  0.00    -0.230 NA 
HETATM    9  C   UNL     1     -10.771  16.978  67.844  1.00  0.00    -0.348 A  
BRANCH   6  10
HETATM   10  N   UNL     1     -11.329  13.978  66.058  1.00  0.00    -0.322 NA 
HETATM   11  C   UNL     1     -10.229  13.876  65.115  1.00  0.00    -0.358 C  
HETATM   12  C   UNL     1     -12.638  13.566  65.588  1.00  0.00    -0.459 C  
ENDBRANCH   6  10
BRANCH   9  13
HETATM   13  N   UNL     1     -10.241  18.233  67.616  1.00  0.00    -0.362 NA 
HETATM   14  C   UNL     1     -10.305  18.824  66.292  1.00  0.00    -0.448 C  
HETATM   15  C   UNL     1      -9.963  19.117  68.731  1.00  0.00    -0.427 C  
ENDBRANCH   9  13
ENDBRANCH   2   4
TORSDOF 3
ENDMDL
MODEL       31
REMARK 921   NORMALIZED FREE ENERGY PREDICTED BY IDOCK:   -4.67 KCAL/MOL
REMARK 922        TOTAL FREE ENERGY PREDICTED BY IDOCK:   -5.75 KCAL/MOL
REMARK 923 INTER-LIGAND FREE ENERGY PREDICTED BY IDOCK:   -5.50 KCAL/MOL
REMARK 924 INTRA-LIGAND FREE ENERGY PREDICTED BY IDOCK:   -0.25 KCAL/MOL
REMARK 927      BINDING AFFINITY PREDICTED BY RF-SCORE:    0.00 PKD
ROOT
HETATM    1  C   UNL     1     -14.007  15.116  71.352  1.00  0.00    -0.506 C  
HETATM    2  N   UNL     1     -12.568  15.287  71.333  1.00  0.00    -0.342 NA 
HETATM    3  C   UNL     1     -11.884  15.823  72.490  1.00  0.00    -0.499 C  
ENDROOT
BRANCH   2   4
HETATM    4  C   UNL     1     -11.955  15.443  70.099  1.00  0.00    -0.349 A  
HETATM    5  N   UNL     1     -11.267  16.552  69.848  1.00  0.00    -0.244 NA 
HETATM    6  C   UNL     1     -10.727  16.673  68.644  1.00  0.00    -0.349 A  
HETATM    7  N   UNL     1     -10.861  15.742  67.706  1.00  0.00    -0.310 NA 
HETATM    8  N   UNL     1     -12.100  14.475  69.204  1.00  0.00    -0.294 NA 
HETATM    9  C   UNL     1     -11.548  14.647  68.014  1.00  0.00    -0.340 A  
BRANCH   6  10
HETATM   10  N   UNL     1      -9.933  17.773  68.364  1.00  0.00    -0.341 NA 
HETATM   11  C   UNL     1     -10.485  18.878  67.600  1.00  0.00    -0.443 C  
HETATM   12  C   UNL     1      -8.492  17.608  68.334  1.00  0.00    -0.287 C  
ENDBRANCH   6  10
BRANCH   9  13
HETATM   13  N   UNL     1     -11.728  13.680  67.044  1.00  0.00    -0.362 NA 
HETATM   14  C   UNL     1     -11.602  12.275  67.380  1.00  0.00    -0.355 C  
HETATM   15  C   UNL     1     -12.400  14.013  65.803  1.00  0.00    -0.480 C  
ENDBRANCH   9  13
ENDBRANCH   2   4
TORSDOF 3
ENDMDL
MODEL       32
REMARK 921   NORMALIZED FREE ENERGY PREDICTED BY IDOCK:   -4.66 KCAL/MOL
REMARK 922        TOTAL FREE ENERGY PREDICTED BY IDOCK:   -5.73 KCAL/MOL
REMARK 923 INTER-LIGAND FREE ENERGY PREDICTED BY IDOCK:   -5.45 KCAL/MOL
REMARK 924 INTRA-LIGAND FREE ENERGY PREDICTED BY IDOCK:   -0.28 KCAL/MOL
REMARK 927      BINDING AFFINITY PREDICTED BY RF-SCORE:    0.00 PKD
ROOT
HETATM    1  C   UNL     1      -9.739  19.133  68.710  1.00  0.00    -0.430 C  
HETATM    2  N   UNL     1     -10.082  18.342  67.545  1.00  0.00    -0.340 NA 
HETATM    3  C   UNL     1     -10.361  18.991  66.282  1.00  0.00    -0.459 C  
ENDROOT
BRANCH   2   4
HETATM    4  C   UNL     1     -10.645  17.093  67.759  1.00  0.00    -0.360 A  
HETATM    5  N   UNL     1     -10.771  16.251  66.738  1.00  0.00    -0.257 NA 
HETATM    6  C   UNL     1     -11.344  15.081  66.982  1.00  0.00    -0.318 A  
HETATM    7  N   UNL     1     -11.790  14.744  68.188  1.00  0.00    -0.315 NA 
HETATM    8  N   UNL     1     -11.055  16.795  68.985  1.00  0.00    -0.237 NA 
HETATM    9  C   UNL     1     -11.627  15.617  69.175  1.00  0.00    -0.383 A  
BRANCH   6  10
HETATM   10  N   UNL     1     -11.424  14.140  65.969  1.00  0.00    -0.334 NA 
HETATM   11  C   UNL     1     -10.413  14.121  64.928  1.00  0.00    -0.438 C  
HETATM   12  C   UNL     1     -12.719  13.574  65.640  1.00  0.00    -0.421 C  
ENDBRANCH   6  10
BRANCH   9  13
HETATM   13  N   UNL     1     -12.112  15.302  70.429  1.00  0.00    -0.321 NA 
HETATM   14  C   UNL     1     -12.515  13.942  70.737  1.00  0.00    -0.375 C  
HETATM   15  C   UNL     1     -11.879  16.199  71.544  1.00  0.00    -0.463 C  
ENDBRANCH   9  13
ENDBRANCH   2   4
TORSDOF 3
ENDMDL
MODEL       33
REMARK 921   NORMALIZED FREE ENERGY PREDICTED BY IDOCK:   -4.62 KCAL/MOL
REMARK 922        TOTAL FREE ENERGY PREDICTED BY IDOCK:   -5.69 KCAL/MOL
REMARK 923 INTER-LIGAND FREE ENERGY PREDICTED BY IDOCK:   -5.42 KCAL/MOL
REMARK 924 INTRA-LIGAND FREE ENERGY PREDICTED BY IDOCK:   -0.27 KCAL/MOL
REMARK 927      BINDING AFFINITY PREDICTED BY RF-SCORE:    0.00 PKD
ROOT
HETATM    1  C   UNL     1     -10.308  18.021  67.948  1.00  0.00    -0.392 C  
HETATM    2  N   UNL     1     -10.516  16.764  67.256  1.00  0.00    -0.321 NA 
HETATM    3  C   UNL     1     -10.650  16.740  65.816  1.00  0.00    -0.250 C  
ENDROOT
BRANCH   2   4
HETATM    4  C   UNL     1     -11.097  15.726  67.970  1.00  0.00    -0.337 A  
HETATM    5  N   UNL     1     -11.240  14.538  67.391  1.00  0.00    -0.313 NA 
HETATM    6  C   UNL     1     -11.830  13.585  68.099  1.00  0.00    -0.365 A  
HETATM    7  N   UNL     1     -12.276  13.788  69.334  1.00  0.00    -0.320 NA 
HETATM    8  N   UNL     1     -11.506  15.972  69.207  1.00  0.00    -0.355 NA 
HETATM    9  C   UNL     1     -12.096  14.990  69.869  1.00  0.00    -0.334 A  
BRANCH   6  10
HETATM   10  N   UNL     1     -11.929  12.309  67.570  1.00  0.00    -0.528 NA 
HETATM   11  C   UNL     1     -11.677  11.160  68.420  1.00  0.00    -0.279 C  
HETATM   12  C   UNL     1     -11.739  12.126  66.143  1.00  0.00    -0.315 C  
ENDBRANCH   6  10
BRANCH   9  13
HETATM   13  N   UNL     1     -12.581  15.233  71.139  1.00  0.00    -0.357 NA 
HETATM   14  C   UNL     1     -13.968  14.953  71.457  1.00  0.00    -0.486 C  
HETATM   15  C   UNL     1     -11.661  15.403  72.247  1.00  0.00    -0.469 C  
ENDBRANCH   9  13
ENDBRANCH   2   4
TORSDOF 3
ENDMDL
MODEL       34
REMARK 921   NORMALIZED FREE ENERGY PREDICTED BY IDOCK:   -4.61 KCAL/MOL
REMARK 922        TOTAL FREE ENERGY PREDICTED BY IDOCK:   -5.68 KCAL/MOL
REMARK 923 INTER-LIGAND FREE ENERGY PREDICTED BY IDOCK:   -5.42 KCAL/MOL
REMARK 924 INTRA-LIGAND FREE ENERGY PREDICTED BY IDOCK:   -0.26 KCAL/MOL
REMARK 927      BINDING AFFINITY PREDICTED BY RF-SCORE:    0.00 PKD
ROOT
HETATM    1  C   UNL     1     -10.470  13.849  68.163  1.00  0.00    -0.245 C  
HETATM    2  N   UNL     1     -11.032  12.530  68.373  1.00  0.00    -0.235 NA 
HETATM    3  C   UNL     1     -11.369  11.694  67.242  1.00  0.00    -0.305 C  
ENDROOT
BRANCH   2   4
HETATM    4  C   UNL     1     -11.711  12.302  69.561  1.00  0.00    -0.332 A  
HETATM    5  N   UNL     1     -12.203  13.335  70.239  1.00  0.00    -0.340 NA 
HETATM    6  C   UNL     1     -12.815  13.073  71.385  1.00  0.00    -0.292 A  
HETATM    7  N   UNL     1     -12.937  11.839  71.862  1.00  0.00    -0.391 NA 
HETATM    8  N   UNL     1     -11.826  11.050  69.984  1.00  0.00    -0.322 NA 
HETATM    9  C   UNL     1     -12.439  10.843  71.138  1.00  0.00    -0.405 A  
BRANCH   6  10
HETATM   10  N   UNL     1     -13.414  14.107  72.085  1.00  0.00    -0.409 NA 
HETATM   11  C   UNL     1     -14.353  14.982  71.407  1.00  0.00    -0.497 C  
HETATM   12  C   UNL     1     -12.742  14.642  73.254  1.00  0.00    -0.440 C  
ENDBRANCH   6  10
BRANCH   9  13
HETATM   13  N   UNL     1     -12.526   9.555  71.630  1.00  0.00    -0.364 NA 
HETATM   14  C   UNL     1     -11.322   8.812  71.949  1.00  0.00    -0.361 C  
HETATM   15  C   UNL     1     -13.777   9.072  72.181  1.00  0.00    -0.480 C  
ENDBRANCH   9  13
ENDBRANCH   2   4
TORSDOF 3
ENDMDL
MODEL       35
REMARK 921   NORMALIZED FREE ENERGY PREDICTED BY IDOCK:   -4.60 KCAL/MOL
REMARK 922        TOTAL FREE ENERGY PREDICTED BY IDOCK:   -5.67 KCAL/MOL
REMARK 923 INTER-LIGAND FREE ENERGY PREDICTED BY IDOCK:   -5.39 KCAL/MOL
REMARK 924 INTRA-LIGAND FREE ENERGY PREDICTED BY IDOCK:   -0.28 KCAL/MOL
REMARK 927      BINDING AFFINITY PREDICTED BY RF-SCORE:    0.00 PKD
ROOT
HETATM    1  C   UNL     1     -11.032  11.841  67.088  1.00  0.00    -0.276 C  
HETATM    2  N   UNL     1     -11.874  13.000  66.869  1.00  0.00    -0.382 NA 
HETATM    3  C   UNL     1     -12.431  13.256  65.559  1.00  0.00    -0.474 C  
ENDROOT
BRANCH   2   4
HETATM    4  C   UNL     1     -11.706  14.086  67.716  1.00  0.00    -0.368 A  
HETATM    5  N   UNL     1     -12.178  14.022  68.957  1.00  0.00    -0.316 NA 
HETATM    6  C   UNL     1     -12.024  15.095  69.720  1.00  0.00    -0.334 A  
HETATM    7  N   UNL     1     -11.434  16.203  69.283  1.00  0.00    -0.327 NA 
HETATM    8  N   UNL     1     -11.091  15.160  67.239  1.00  0.00    -0.328 NA 
HETATM    9  C   UNL     1     -10.969  16.207  68.038  1.00  0.00    -0.338 A  
BRANCH   6  10
HETATM   10  N   UNL     1     -12.426  15.049  71.045  1.00  0.00    -0.310 NA 
HETATM   11  C   UNL     1     -11.812  15.943  72.011  1.00  0.00    -0.515 C  
HETATM   12  C   UNL     1     -13.004  13.822  71.559  1.00  0.00    -0.363 C  
ENDBRANCH   6  10
BRANCH   9  13
HETATM   13  N   UNL     1     -10.382  17.358  67.551  1.00  0.00    -0.339 NA 
HETATM   14  C   UNL     1     -10.348  17.614  66.124  1.00  0.00    -0.334 C  
HETATM   15  C   UNL     1     -10.137  18.478  68.438  1.00  0.00    -0.388 C  
ENDBRANCH   9  13
ENDBRANCH   2   4
TORSDOF 3
ENDMDL
MODEL       36
REMARK 921   NORMALIZED FREE ENERGY PREDICTED BY IDOCK:   -4.58 KCAL/MOL
REMARK 922        TOTAL FREE ENERGY PREDICTED BY IDOCK:   -5.65 KCAL/MOL
REMARK 923 INTER-LIGAND FREE ENERGY PREDICTED BY IDOCK:   -5.37 KCAL/MOL
REMARK 924 INTRA-LIGAND FREE ENERGY PREDICTED BY IDOCK:   -0.28 KCAL/MOL
REMARK 927      BINDING AFFINITY PREDICTED BY RF-SCORE:    0.00 PKD
ROOT
HETATM    1  C   UNL     1      -9.711  15.593  66.457  1.00  0.00    -0.266 C  
HETATM    2  N   UNL     1     -10.650  16.199  67.380  1.00  0.00    -0.311 NA 
HETATM    3  C   UNL     1     -10.575  17.614  67.669  1.00  0.00    -0.362 C  
ENDROOT
BRANCH   2   4
HETATM    4  C   UNL     1     -11.227  15.380  68.339  1.00  0.00    -0.315 A  
HETATM    5  N   UNL     1     -11.755  15.926  69.430  1.00  0.00    -0.360 NA 
HETATM    6  C   UNL     1     -12.266  15.103  70.335  1.00  0.00    -0.344 A  
HETATM    7  N   UNL     1     -12.255  13.783  70.184  1.00  0.00    -0.350 NA 
HETATM    8  N   UNL     1     -11.211  14.070  68.132  1.00  0.00    -0.263 NA 
HETATM    9  C   UNL     1     -11.727  13.291  69.069  1.00  0.00    -0.322 A  
BRANCH   6  10
HETATM   10  N   UNL     1     -12.899  15.628  71.449  1.00  0.00    -0.466 NA 
HETATM   11  C   UNL     1     -12.105  16.201  72.521  1.00  0.00    -0.550 C  
HETATM   12  C   UNL     1     -14.221  15.142  71.798  1.00  0.00    -0.578 C  
ENDBRANCH   6  10
BRANCH   9  13
HETATM   13  N   UNL     1     -11.675  11.920  68.906  1.00  0.00    -0.302 NA 
HETATM   14  C   UNL     1     -12.096  11.040  69.980  1.00  0.00    -0.364 C  
HETATM   15  C   UNL     1     -11.568  11.351  67.577  1.00  0.00    -0.219 C  
ENDBRANCH   9  13
ENDBRANCH   2   4
TORSDOF 3
ENDMDL
MODEL       37
REMARK 921   NORMALIZED FREE ENERGY PREDICTED BY IDOCK:   -4.45 KCAL/MOL
REMARK 922        TOTAL FREE ENERGY PREDICTED BY IDOCK:   -5.49 KCAL/MOL
REMARK 923 INTER-LIGAND FREE ENERGY PREDICTED BY IDOCK:   -5.22 KCAL/MOL
REMARK 924 INTRA-LIGAND FREE ENERGY PREDICTED BY IDOCK:   -0.28 KCAL/MOL
REMARK 927      BINDING AFFINITY PREDICTED BY RF-SCORE:    0.00 PKD
ROOT
HETATM    1  C   UNL     1     -10.845   9.816  70.633  1.00  0.00    -0.329 C  
HETATM    2  N   UNL     1     -11.164  10.347  69.322  1.00  0.00    -0.241 NA 
HETATM    3  C   UNL     1     -10.643   9.709  68.133  1.00  0.00    -0.226 C  
ENDROOT
BRANCH   2   4
HETATM    4  C   UNL     1     -11.489  11.693  69.236  1.00  0.00    -0.300 A  
HETATM    5  N   UNL     1     -11.289  12.339  68.091  1.00  0.00    -0.272 NA 
HETATM    6  C   UNL     1     -11.583  13.631  68.064  1.00  0.00    -0.333 A  
HETATM    7  N   UNL     1     -12.050  14.278  69.126  1.00  0.00    -0.326 NA 
HETATM    8  N   UNL     1     -11.973  12.288  70.317  1.00  0.00    -0.335 NA 
HETATM    9  C   UNL     1     -12.244  13.581  70.241  1.00  0.00    -0.347 A  
BRANCH   6  10
HETATM   10  N   UNL     1     -11.469  14.328  66.873  1.00  0.00    -0.346 NA 
HETATM   11  C   UNL     1     -10.820  15.627  66.862  1.00  0.00    -0.282 C  
HETATM   12  C   UNL     1     -12.420  14.060  65.810  1.00  0.00    -0.494 C  
ENDBRANCH   6  10
BRANCH   9  13
HETATM   13  N   UNL     1     -12.698  14.239  71.367  1.00  0.00    -0.332 NA 
HETATM   14  C   UNL     1     -12.768  15.688  71.388  1.00  0.00    -0.471 C  
HETATM   15  C   UNL     1     -13.449  13.518  72.375  1.00  0.00    -0.584 C  
ENDBRANCH   9  13
ENDBRANCH   2   4
TORSDOF 3
ENDMDL
MODEL       38
REMARK 921   NORMALIZED FREE ENERGY PREDICTED BY IDOCK:   -4.45 KCAL/MOL
REMARK 922        TOTAL FREE ENERGY PREDICTED BY IDOCK:   -5.49 KCAL/MOL
REMARK 923 INTER-LIGAND FREE ENERGY PREDICTED BY IDOCK:   -5.21 KCAL/MOL
REMARK 924 INTRA-LIGAND FREE ENERGY PREDICTED BY IDOCK:   -0.27 KCAL/MOL
REMARK 927      BINDING AFFINITY PREDICTED BY RF-SCORE:    0.00 PKD
ROOT
HETATM    1  C   UNL     1     -11.715  15.675  71.705  1.00  0.00    -0.446 C  
HETATM    2  N   UNL     1     -12.060  14.808  70.595  1.00  0.00    -0.288 NA 
HETATM    3  C   UNL     1     -12.347  13.410  70.826  1.00  0.00    -0.354 C  
ENDROOT
BRANCH   2   4
HETATM    4  C   UNL     1     -11.607  15.168  69.334  1.00  0.00    -0.323 A  
HETATM    5  N   UNL     1     -11.024  16.351  69.164  1.00  0.00    -0.321 NA 
HETATM    6  C   UNL     1     -10.637  16.667  67.937  1.00  0.00    -0.342 A  
HETATM    7  N   UNL     1     -10.822  15.855  66.901  1.00  0.00    -0.286 NA 
HETATM    8  N   UNL     1     -11.796  14.315  68.337  1.00  0.00    -0.339 NA 
HETATM    9  C   UNL     1     -11.398  14.680  67.129  1.00  0.00    -0.356 A  
BRANCH   6  10
HETATM   10  N   UNL     1      -9.952  17.851  67.724  1.00  0.00    -0.316 NA 
HETATM   11  C   UNL     1      -8.708  18.096  68.432  1.00  0.00    -0.291 C  
HETATM   12  C   UNL     1     -10.690  19.015  67.269  1.00  0.00    -0.470 C  
ENDBRANCH   6  10
BRANCH   9  13
HETATM   13  N   UNL     1     -11.630  13.835  66.062  1.00  0.00    -0.334 NA 
HETATM   14  C   UNL     1     -11.248  14.230  64.719  1.00  0.00    -0.385 C  
HETATM   15  C   UNL     1     -11.897  12.429  66.294  1.00  0.00    -0.364 C  
ENDBRANCH   9  13
ENDBRANCH   2   4
TORSDOF 3
ENDMDL
MODEL       39
REMARK 921   NORMALIZED FREE ENERGY PREDICTED BY IDOCK:   -4.43 KCAL/MOL
REMARK 922        TOTAL FREE ENERGY PREDICTED BY IDOCK:   -5.46 KCAL/MOL
REMARK 923 INTER-LIGAND FREE ENERGY PREDICTED BY IDOCK:   -5.19 KCAL/MOL
REMARK 924 INTRA-LIGAND FREE ENERGY PREDICTED BY IDOCK:   -0.27 KCAL/MOL
REMARK 927      BINDING AFFINITY PREDICTED BY RF-SCORE:    0.00 PKD
ROOT
HETATM    1  C   UNL     1     -10.263  16.606  65.649  1.00  0.00    -0.262 C  
HETATM    2  N   UNL     1     -10.898  16.143  66.867  1.00  0.00    -0.237 NA 
HETATM    3  C   UNL     1     -10.692  16.853  68.110  1.00  0.00    -0.375 C  
ENDROOT
BRANCH   2   4
HETATM    4  C   UNL     1     -11.232  14.799  66.945  1.00  0.00    -0.347 A  
HETATM    5  N   UNL     1     -11.482  14.258  68.134  1.00  0.00    -0.290 NA 
HETATM    6  C   UNL     1     -11.764  12.963  68.165  1.00  0.00    -0.352 A  
HETATM    7  N   UNL     1     -11.795  12.214  67.068  1.00  0.00    -0.594 NA 
HETATM    8  N   UNL     1     -11.271  14.099  65.820  1.00  0.00    -0.307 NA 
HETATM    9  C   UNL     1     -11.551  12.808  65.905  1.00  0.00    -0.382 A  
BRANCH   6  10
HETATM   10  N   UNL     1     -12.110  12.373  69.369  1.00  0.00    -0.230 NA 
HETATM   11  C   UNL     1     -12.136  13.175  70.579  1.00  0.00    -0.306 C  
HETATM   12  C   UNL     1     -11.912  10.945  69.531  1.00  0.00    -0.330 C  
ENDBRANCH   6  10
BRANCH   9  13
HETATM   13  N   UNL     1     -11.545  12.043  64.755  1.00  0.00    -0.309 NA 
HETATM   14  C   UNL     1     -12.501  12.306  63.696  1.00  0.00    -0.541 C  
HETATM   15  C   UNL     1     -10.384  11.241  64.424  1.00  0.00    -0.329 C  
ENDBRANCH   9  13
ENDBRANCH   2   4
TORSDOF 3
ENDMDL
MODEL       40
REMARK 921   NORMALIZED FREE ENERGY PREDICTED BY IDOCK:   -4.38 KCAL/MOL
REMARK 922        TOTAL FREE ENERGY PREDICTED BY IDOCK:   -5.41 KCAL/MOL
REMARK 923 INTER-LIGAND FREE ENERGY PREDICTED BY IDOCK:   -5.14 KCAL/MOL
REMARK 924 INTRA-LIGAND FREE ENERGY PREDICTED BY IDOCK:   -0.27 KCAL/MOL
REMARK 927      BINDING AFFINITY PREDICTED BY RF-SCORE:    0.00 PKD
ROOT
HETATM    1  C   UNL     1     -12.279  12.922  70.676  1.00  0.00    -0.302 C  
HETATM    2  N   UNL     1     -11.939  12.104  69.529  1.00  0.00    -0.297 NA 
HETATM    3  C   UNL     1     -11.335  10.803  69.717  1.00  0.00    -0.300 C  
ENDROOT
BRANCH   2   4
HETATM    4  C   UNL     1     -11.701  12.752  68.326  1.00  0.00    -0.344 A  
HETATM    5  N   UNL     1     -11.504  14.067  68.322  1.00  0.00    -0.285 NA 
HETATM    6  C   UNL     1     -11.313  14.648  67.146  1.00  0.00    -0.356 A  
HETATM    7  N   UNL     1     -11.322  13.968  66.005  1.00  0.00    -0.322 NA 
HETATM    8  N   UNL     1     -11.698  12.025  67.216  1.00  0.00    -0.548 NA 
HETATM    9  C   UNL     1     -11.510  12.655  66.068  1.00  0.00    -0.368 A  
BRANCH   6  10
HETATM   10  N   UNL     1     -11.023  16.002  67.098  1.00  0.00    -0.244 NA 
HETATM   11  C   UNL     1     -10.439  16.566  65.895  1.00  0.00    -0.323 C  
HETATM   12  C   UNL     1     -10.785  16.712  68.341  1.00  0.00    -0.353 C  
ENDBRANCH   6  10
BRANCH   9  13
HETATM   13  N   UNL     1     -11.556  11.932  64.891  1.00  0.00    -0.271 NA 
HETATM   14  C   UNL     1     -12.470  12.317  63.833  1.00  0.00    -0.485 C  
HETATM   15  C   UNL     1     -10.466  11.042  64.543  1.00  0.00    -0.342 C  
ENDBRANCH   9  13
ENDBRANCH   2   4
TORSDOF 3
ENDMDL
MODEL       41
REMARK 921   NORMALIZED FREE ENERGY PREDICTED BY IDOCK:   -4.37 KCAL/MOL
REMARK 922        TOTAL FREE ENERGY PREDICTED BY IDOCK:   -5.40 KCAL/MOL
REMARK 923 INTER-LIGAND FREE ENERGY PREDICTED BY IDOCK:   -5.12 KCAL/MOL
REMARK 924 INTRA-LIGAND FREE ENERGY PREDICTED BY IDOCK:   -0.28 KCAL/MOL
REMARK 927      BINDING AFFINITY PREDICTED BY RF-SCORE:    0.00 PKD
ROOT
HETATM    1  C   UNL     1     -11.061  10.633  69.629  1.00  0.00    -0.284 C  
HETATM    2  N   UNL     1     -11.486  11.565  68.603  1.00  0.00    -0.264 NA 
HETATM    3  C   UNL     1     -11.270  11.259  67.207  1.00  0.00    -0.296 C  
ENDROOT
BRANCH   2   4
HETATM    4  C   UNL     1     -11.592  12.903  68.955  1.00  0.00    -0.322 A  
HETATM    5  N   UNL     1     -12.160  13.229  70.113  1.00  0.00    -0.348 NA 
HETATM    6  C   UNL     1     -12.270  14.520  70.392  1.00  0.00    -0.329 A  
HETATM    7  N   UNL     1     -11.846  15.468  69.563  1.00  0.00    -0.355 NA 
HETATM    8  N   UNL     1     -11.134  13.810  68.104  1.00  0.00    -0.250 NA 
HETATM    9  C   UNL     1     -11.274  15.086  68.426  1.00  0.00    -0.293 A  
BRANCH   6  10
HETATM   10  N   UNL     1     -12.780  14.908  71.620  1.00  0.00    -0.310 NA 
HETATM   11  C   UNL     1     -11.983  15.752  72.492  1.00  0.00    -0.495 C  
HETATM   12  C   UNL     1     -13.793  14.082  72.250  1.00  0.00    -0.557 C  
ENDBRANCH   6  10
BRANCH   9  13
HETATM   13  N   UNL     1     -10.855  16.054  67.534  1.00  0.00    -0.313 NA 
HETATM   14  C   UNL     1     -10.445  17.360  68.012  1.00  0.00    -0.383 C  
HETATM   15  C   UNL     1     -10.463  15.680  66.189  1.00  0.00    -0.317 C  
ENDBRANCH   9  13
ENDBRANCH   2   4
TORSDOF 3
ENDMDL
MODEL       42
REMARK 921   NORMALIZED FREE ENERGY PREDICTED BY IDOCK:   -4.36 KCAL/MOL
REMARK 922        TOTAL FREE ENERGY PREDICTED BY IDOCK:   -5.39 KCAL/MOL
REMARK 923 INTER-LIGAND FREE ENERGY PREDICTED BY IDOCK:   -5.12 KCAL/MOL
REMARK 924 INTRA-LIGAND FREE ENERGY PREDICTED BY IDOCK:   -0.27 KCAL/MOL
REMARK 927      BINDING AFFINITY PREDICTED BY RF-SCORE:    0.00 PKD
ROOT
HETATM    1  C   UNL     1      -9.649  11.791  67.271  1.00  0.00    -0.176 C  
HETATM    2  N   UNL     1     -10.990  12.298  67.484  1.00  0.00    -0.242 NA 
HETATM    3  C   UNL     1     -11.525  13.325  66.618  1.00  0.00    -0.347 C  
ENDROOT
BRANCH   2   4
HETATM    4  C   UNL     1     -11.518  12.201  68.763  1.00  0.00    -0.307 A  
HETATM    5  N   UNL     1     -11.577  11.011  69.355  1.00  0.00    -0.283 NA 
HETATM    6  C   UNL     1     -12.119  10.961  70.563  1.00  0.00    -0.371 A  
HETATM    7  N   UNL     1     -12.599  12.039  71.175  1.00  0.00    -0.336 NA 
HETATM    8  N   UNL     1     -11.964  13.309  69.340  1.00  0.00    -0.313 NA 
HETATM    9  C   UNL     1     -12.503  13.204  70.543  1.00  0.00    -0.248 A  
BRANCH   6  10
HETATM   10  N   UNL     1     -12.130   9.760  71.253  1.00  0.00    -0.353 NA 
HETATM   11  C   UNL     1     -13.236   9.454  72.142  1.00  0.00    -0.460 C  
HETATM   12  C   UNL     1     -10.869   9.095  71.520  1.00  0.00    -0.366 C  
ENDBRANCH   6  10
BRANCH   9  13
HETATM   13  N   UNL     1     -13.024  14.332  71.146  1.00  0.00    -0.341 NA 
HETATM   14  C   UNL     1     -13.977  14.206  72.233  1.00  0.00    -0.548 C  
HETATM   15  C   UNL     1     -12.370  15.614  70.975  1.00  0.00    -0.428 C  
ENDBRANCH   9  13
ENDBRANCH   2   4
TORSDOF 3
ENDMDL
MODEL       43
REMARK 921   NORMALIZED FREE ENERGY PREDICTED BY IDOCK:   -4.32 KCAL/MOL
REMARK 922        TOTAL FREE ENERGY PREDICTED BY IDOCK:   -5.34 KCAL/MOL
REMARK 923 INTER-LIGAND FREE ENERGY PREDICTED BY IDOCK:   -5.07 KCAL/MOL
REMARK 924 INTRA-LIGAND FREE ENERGY PREDICTED BY IDOCK:   -0.26 KCAL/MOL
REMARK 927      BINDING AFFINITY PREDICTED BY RF-SCORE:    0.00 PKD
ROOT
HETATM    1  C   UNL     1     -12.232  14.995  71.028  1.00  0.00    -0.326 C  
HETATM    2  N   UNL     1     -13.112  13.868  71.263  1.00  0.00    -0.330 NA 
HETATM    3  C   UNL     1     -14.135  13.944  72.283  1.00  0.00    -0.535 C  
ENDROOT
BRANCH   2   4
HETATM    4  C   UNL     1     -12.649  12.607  70.915  1.00  0.00    -0.249 A  
HETATM    5  N   UNL     1     -12.915  11.573  71.707  1.00  0.00    -0.438 NA 
HETATM    6  C   UNL     1     -12.425  10.394  71.353  1.00  0.00    -0.415 A  
HETATM    7  N   UNL     1     -11.688  10.228  70.259  1.00  0.00    -0.287 NA 
HETATM    8  N   UNL     1     -11.937  12.490  69.802  1.00  0.00    -0.311 NA 
HETATM    9  C   UNL     1     -11.464  11.293  69.496  1.00  0.00    -0.307 A  
BRANCH   6  10
HETATM   10  N   UNL     1     -12.742   9.274  72.102  1.00  0.00    -0.389 NA 
HETATM   11  C   UNL     1     -11.746   8.235  72.294  1.00  0.00    -0.388 C  
HETATM   12  C   UNL     1     -14.134   8.880  72.219  1.00  0.00    -0.442 C  
ENDBRANCH   6  10
BRANCH   9  13
HETATM   13  N   UNL     1     -10.674  11.151  68.372  1.00  0.00    -0.185 NA 
HETATM   14  C   UNL     1     -11.117  11.677  67.095  1.00  0.00    -0.299 C  
HETATM   15  C   UNL     1      -9.268  10.827  68.510  1.00  0.00    -0.174 C  
ENDBRANCH   9  13
ENDBRANCH   2   4
TORSDOF 3
ENDMDL
MODEL       44
REMARK 921   NORMALIZED FREE ENERGY PREDICTED BY IDOCK:   -4.31 KCAL/MOL
REMARK 922        TOTAL FREE ENERGY PREDICTED BY IDOCK:   -5.33 KCAL/MOL
REMARK 923 INTER-LIGAND FREE ENERGY PREDICTED BY IDOCK:   -5.05 KCAL/MOL
REMARK 924 INTRA-LIGAND FREE ENERGY PREDICTED BY IDOCK:   -0.27 KCAL/MOL
REMARK 927      BINDING AFFINITY PREDICTED BY RF-SCORE:    0.00 PKD
ROOT
HETATM    1  C   UNL     1      -9.374  16.395  66.057  1.00  0.00    -0.300 C  
HETATM    2  N   UNL     1     -10.221  16.010  67.168  1.00  0.00    -0.272 NA 
HETATM    3  C   UNL     1     -10.089  16.673  68.447  1.00  0.00    -0.268 C  
ENDROOT
BRANCH   2   4
HETATM    4  C   UNL     1     -10.738  14.722  67.165  1.00  0.00    -0.299 A  
HETATM    5  N   UNL     1     -10.892  14.085  66.009  1.00  0.00    -0.292 NA 
HETATM    6  C   UNL     1     -11.421  12.870  66.051  1.00  0.00    -0.340 A  
HETATM    7  N   UNL     1     -11.797  12.295  67.189  1.00  0.00    -0.566 NA 
HETATM    8  N   UNL     1     -11.078  14.184  68.329  1.00  0.00    -0.245 NA 
HETATM    9  C   UNL     1     -11.608  12.972  68.316  1.00  0.00    -0.340 A  
BRANCH   6  10
HETATM   10  N   UNL     1     -11.526  12.135  64.882  1.00  0.00    -0.331 NA 
HETATM   11  C   UNL     1     -10.496  11.166  64.550  1.00  0.00    -0.350 C  
HETATM   12  C   UNL     1     -12.298  12.677  63.780  1.00  0.00    -0.478 C  
ENDBRANCH   6  10
BRANCH   9  13
HETATM   13  N   UNL     1     -12.021  12.408  69.508  1.00  0.00    -0.288 NA 
HETATM   14  C   UNL     1     -11.846  10.987  69.743  1.00  0.00    -0.347 C  
HETATM   15  C   UNL     1     -12.277  13.251  70.659  1.00  0.00    -0.338 C  
ENDBRANCH   9  13
ENDBRANCH   2   4
TORSDOF 3
ENDMDL
MODEL       45
REMARK 921   NORMALIZED FREE ENERGY PREDICTED BY IDOCK:   -4.21 KCAL/MOL
REMARK 922        TOTAL FREE ENERGY PREDICTED BY IDOCK:   -5.21 KCAL/MOL
REMARK 923 INTER-LIGAND FREE ENERGY PREDICTED BY IDOCK:   -4.93 KCAL/MOL
REMARK 924 INTRA-LIGAND FREE ENERGY PREDICTED BY IDOCK:   -0.28 KCAL/MOL
REMARK 927      BINDING AFFINITY PREDICTED BY RF-SCORE:    0.00 PKD
ROOT
HETATM    1  C   UNL     1     -10.849   9.833  67.883  1.00  0.00    -0.242 C  
HETATM    2  N   UNL     1     -11.183  10.906  68.800  1.00  0.00    -0.247 NA 
HETATM    3  C   UNL     1     -11.896  10.619  70.025  1.00  0.00    -0.322 C  
ENDROOT
BRANCH   2   4
HETATM    4  C   UNL     1     -11.299  12.185  68.276  1.00  0.00    -0.289 A  
HETATM    5  N   UNL     1     -11.555  13.202  69.093  1.00  0.00    -0.297 NA 
HETATM    6  C   UNL     1     -11.691  14.402  68.545  1.00  0.00    -0.335 A  
HETATM    7  N   UNL     1     -11.589  14.603  67.236  1.00  0.00    -0.379 NA 
HETATM    8  N   UNL     1     -11.168  12.337  66.965  1.00  0.00    -0.290 NA 
HETATM    9  C   UNL     1     -11.319  13.553  66.467  1.00  0.00    -0.319 A  
BRANCH   6  10
HETATM   10  N   UNL     1     -11.877  15.504  69.363  1.00  0.00    -0.364 NA 
HETATM   11  C   UNL     1     -10.884  16.564  69.372  1.00  0.00    -0.311 C  
HETATM   12  C   UNL     1     -12.703  15.367  70.547  1.00  0.00    -0.405 C  
ENDBRANCH   6  10
BRANCH   9  13
HETATM   13  N   UNL     1     -11.241  13.733  65.100  1.00  0.00    -0.306 NA 
HETATM   14  C   UNL     1     -10.642  12.712  64.261  1.00  0.00    -0.384 C  
HETATM   15  C   UNL     1     -12.069  14.731  64.451  1.00  0.00    -0.440 C  
ENDBRANCH   9  13
ENDBRANCH   2   4
TORSDOF 3
ENDMDL
MODEL       46
REMARK 921   NORMALIZED FREE ENERGY PREDICTED BY IDOCK:   -4.20 KCAL/MOL
REMARK 922        TOTAL FREE ENERGY PREDICTED BY IDOCK:   -5.20 KCAL/MOL
REMARK 923 INTER-LIGAND FREE ENERGY PREDICTED BY IDOCK:   -4.92 KCAL/MOL
REMARK 924 INTRA-LIGAND FREE ENERGY PREDICTED BY IDOCK:   -0.28 KCAL/MOL
REMARK 927      BINDING AFFINITY PREDICTED BY RF-SCORE:    0.00 PKD
ROOT
HETATM    1  C   UNL     1      -8.816   9.123  65.456  1.00  0.00    -0.191 C  
HETATM    2  N   UNL     1      -9.715   9.062  66.592  1.00  0.00    -0.208 NA 
HETATM    3  C   UNL     1     -10.185   7.784  67.079  1.00  0.00    -0.305 C  
ENDROOT
BRANCH   2   4
HETATM    4  C   UNL     1     -10.505  10.173  66.846  1.00  0.00    -0.222 A  
HETATM    5  N   UNL     1     -10.801  11.004  65.851  1.00  0.00    -0.171 NA 
HETATM    6  C   UNL     1     -11.531  12.070  66.147  1.00  0.00    -0.339 A  
HETATM    7  N   UNL     1     -11.953  12.325  67.380  1.00  0.00    -0.544 NA 
HETATM    8  N   UNL     1     -10.921  10.372  68.090  1.00  0.00    -0.264 NA 
HETATM    9  C   UNL     1     -11.640  11.455  68.335  1.00  0.00    -0.315 A  
BRANCH   6  10
HETATM   10  N   UNL     1     -11.932  12.921  65.130  1.00  0.00    -0.386 NA 
HETATM   11  C   UNL     1     -12.562  14.186  65.463  1.00  0.00    -0.479 C  
HETATM   12  C   UNL     1     -12.228  12.361  63.825  1.00  0.00    -0.533 C  
ENDBRANCH   6  10
BRANCH   9  13
HETATM   13  N   UNL     1     -12.041  11.716  69.630  1.00  0.00    -0.299 NA 
HETATM   14  C   UNL     1     -12.111  10.643  70.604  1.00  0.00    -0.365 C  
HETATM   15  C   UNL     1     -12.032  13.076  70.133  1.00  0.00    -0.303 C  
ENDBRANCH   9  13
ENDBRANCH   2   4
TORSDOF 3
ENDMDL
MODEL       47
REMARK 921   NORMALIZED FREE ENERGY PREDICTED BY IDOCK:   -4.19 KCAL/MOL
REMARK 922        TOTAL FREE ENERGY PREDICTED BY IDOCK:   -5.18 KCAL/MOL
REMARK 923 INTER-LIGAND FREE ENERGY PREDICTED BY IDOCK:   -4.90 KCAL/MOL
REMARK 924 INTRA-LIGAND FREE ENERGY PREDICTED BY IDOCK:   -0.28 KCAL/MOL
REMARK 927      BINDING AFFINITY PREDICTED BY RF-SCORE:    0.00 PKD
ROOT
HETATM    1  C   UNL     1     -12.437  14.071  65.804  1.00  0.00    -0.494 C  
HETATM    2  N   UNL     1     -12.048  13.882  67.187  1.00  0.00    -0.411 NA 
HETATM    3  C   UNL     1     -11.502  14.986  67.946  1.00  0.00    -0.340 C  
ENDROOT
BRANCH   2   4
HETATM    4  C   UNL     1     -11.707  12.599  67.589  1.00  0.00    -0.361 A  
HETATM    5  N   UNL     1     -11.941  12.225  68.843  1.00  0.00    -0.291 NA 
HETATM    6  C   UNL     1     -11.569  11.002  69.192  1.00  0.00    -0.319 A  
HETATM    7  N   UNL     1     -10.976  10.169  68.343  1.00  0.00    -0.251 NA 
HETATM    8  N   UNL     1     -11.138  11.797  66.699  1.00  0.00    -0.298 NA 
HETATM    9  C   UNL     1     -10.778  10.589  67.098  1.00  0.00    -0.265 A  
BRANCH   6  10
HETATM   10  N   UNL     1     -11.865  10.539  70.463  1.00  0.00    -0.319 NA 
HETATM   11  C   UNL     1     -12.718  11.329  71.332  1.00  0.00    -0.396 C  
HETATM   12  C   UNL     1     -10.946   9.617  71.104  1.00  0.00    -0.360 C  
ENDBRANCH   6  10
BRANCH   9  13
HETATM   13  N   UNL     1     -10.135   9.751  66.208  1.00  0.00    -0.251 NA 
HETATM   14  C   UNL     1      -9.712  10.248  64.912  1.00  0.00    -0.320 C  
HETATM   15  C   UNL     1      -9.545   8.512  66.675  1.00  0.00    -0.227 C  
ENDBRANCH   9  13
ENDBRANCH   2   4
TORSDOF 3
ENDMDL
MODEL       48
REMARK 921   NORMALIZED FREE ENERGY PREDICTED BY IDOCK:   -4.12 KCAL/MOL
REMARK 922        TOTAL FREE ENERGY PREDICTED BY IDOCK:   -5.10 KCAL/MOL
REMARK 923 INTER-LIGAND FREE ENERGY PREDICTED BY IDOCK:   -4.83 KCAL/MOL
REMARK 924 INTRA-LIGAND FREE ENERGY PREDICTED BY IDOCK:   -0.27 KCAL/MOL
REMARK 927      BINDING AFFINITY PREDICTED BY RF-SCORE:    0.00 PKD
ROOT
HETATM    1  C   UNL     1      -8.800   8.421  68.694  1.00  0.00    -0.136 C  
HETATM    2  N   UNL     1     -10.116   8.530  68.096  1.00  0.00    -0.193 NA 
HETATM    3  C   UNL     1     -10.483   7.680  66.985  1.00  0.00    -0.349 C  
ENDROOT
BRANCH   2   4
HETATM    4  C   UNL     1     -10.780   9.741  68.221  1.00  0.00    -0.233 A  
HETATM    5  N   UNL     1     -11.209  10.129  69.419  1.00  0.00    -0.230 NA 
HETATM    6  C   UNL     1     -11.868  11.277  69.485  1.00  0.00    -0.357 A  
HETATM    7  N   UNL     1     -12.109  12.024  68.413  1.00  0.00    -0.397 NA 
HETATM    8  N   UNL     1     -10.978  10.461  67.125  1.00  0.00    -0.241 NA 
HETATM    9  C   UNL     1     -11.647  11.596  67.243  1.00  0.00    -0.238 A  
BRANCH   6  10
HETATM   10  N   UNL     1     -12.263  11.762  70.721  1.00  0.00    -0.371 NA 
HETATM   11  C   UNL     1     -12.953  10.883  71.648  1.00  0.00    -0.464 C  
HETATM   12  C   UNL     1     -12.488  13.187  70.875  1.00  0.00    -0.323 C  
ENDBRANCH   6  10
BRANCH   9  13
HETATM   13  N   UNL     1     -11.914  12.339  66.110  1.00  0.00    -0.618 NA 
HETATM   14  C   UNL     1     -12.482  13.669  66.225  1.00  0.00    -0.366 C  
HETATM   15  C   UNL     1     -11.302  11.980  64.846  1.00  0.00    -0.310 C  
ENDBRANCH   9  13
ENDBRANCH   2   4
TORSDOF 3
ENDMDL
MODEL       49
REMARK 921   NORMALIZED FREE ENERGY PREDICTED BY IDOCK:   -4.07 KCAL/MOL
REMARK 922        TOTAL FREE ENERGY PREDICTED BY IDOCK:   -5.05 KCAL/MOL
REMARK 923 INTER-LIGAND FREE ENERGY PREDICTED BY IDOCK:   -4.79 KCAL/MOL
REMARK 924 INTRA-LIGAND FREE ENERGY PREDICTED BY IDOCK:   -0.26 KCAL/MOL
REMARK 927      BINDING AFFINITY PREDICTED BY RF-SCORE:    0.00 PKD
ROOT
HETATM    1  C   UNL     1     -12.698  12.069  63.816  1.00  0.00    -0.400 C  
HETATM    2  N   UNL     1     -11.361  12.522  64.144  1.00  0.00    -0.351 NA 
HETATM    3  C   UNL     1     -10.215  11.962  63.463  1.00  0.00    -0.457 C  
ENDROOT
BRANCH   2   4
HETATM    4  C   UNL     1     -11.155  13.054  65.409  1.00  0.00    -0.275 A  
HETATM    5  N   UNL     1     -11.667  12.432  66.468  1.00  0.00    -0.487 NA 
HETATM    6  C   UNL     1     -11.474  12.994  67.653  1.00  0.00    -0.324 A  
HETATM    7  N   UNL     1     -10.808  14.134  67.802  1.00  0.00    -0.250 NA 
HETATM    8  N   UNL     1     -10.466  14.182  65.507  1.00  0.00    -0.321 NA 
HETATM    9  C   UNL     1     -10.307  14.706  66.712  1.00  0.00    -0.268 A  
BRANCH   6  10
HETATM   10  N   UNL     1     -11.917  12.343  68.792  1.00  0.00    -0.282 NA 
HETATM   11  C   UNL     1     -11.998  13.070  70.046  1.00  0.00    -0.312 C  
HETATM   12  C   UNL     1     -11.774  10.902  68.876  1.00  0.00    -0.306 C  
ENDBRANCH   6  10
BRANCH   9  13
HETATM   13  N   UNL     1      -9.640  15.909  66.838  1.00  0.00    -0.224 NA 
HETATM   14  C   UNL     1      -8.218  15.929  67.125  1.00  0.00    -0.203 C  
HETATM   15  C   UNL     1     -10.237  17.127  66.328  1.00  0.00    -0.334 C  
ENDBRANCH   9  13
ENDBRANCH   2   4
TORSDOF 3
ENDMDL
MODEL       50
REMARK 921   NORMALIZED FREE ENERGY PREDICTED BY IDOCK:   -4.07 KCAL/MOL
REMARK 922        TOTAL FREE ENERGY PREDICTED BY IDOCK:   -5.05 KCAL/MOL
REMARK 923 INTER-LIGAND FREE ENERGY PREDICTED BY IDOCK:   -4.77 KCAL/MOL
REMARK 924 INTRA-LIGAND FREE ENERGY PREDICTED BY IDOCK:   -0.28 KCAL/MOL
REMARK 927      BINDING AFFINITY PREDICTED BY RF-SCORE:    0.00 PKD
ROOT
HETATM    1  C   UNL     1     -10.436   9.086  67.223  1.00  0.00    -0.273 C  
HETATM    2  N   UNL     1     -10.917  10.449  67.333  1.00  0.00    -0.293 NA 
HETATM    3  C   UNL     1     -10.462  11.459  66.403  1.00  0.00    -0.254 C  
ENDROOT
BRANCH   2   4
HETATM    4  C   UNL     1     -11.353  10.877  68.579  1.00  0.00    -0.299 A  
HETATM    5  N   UNL     1     -11.522   9.987  69.552  1.00  0.00    -0.170 NA 
HETATM    6  C   UNL     1     -11.972  10.436  70.714  1.00  0.00    -0.363 A  
HETATM    7  N   UNL     1     -12.258  11.717  70.921  1.00  0.00    -0.346 NA 
HETATM    8  N   UNL     1     -11.603  12.169  68.742  1.00  0.00    -0.302 NA 
HETATM    9  C   UNL     1     -12.058  12.566  69.919  1.00  0.00    -0.252 A  
BRANCH   6  10
HETATM   10  N   UNL     1     -12.087   9.560  71.781  1.00  0.00    -0.386 NA 
HETATM   11  C   UNL     1     -10.998   8.647  72.079  1.00  0.00    -0.362 C  
HETATM   12  C   UNL     1     -13.412   9.173  72.230  1.00  0.00    -0.486 C  
ENDBRANCH   6  10
BRANCH   9  13
HETATM   13  N   UNL     1     -12.378  13.897  70.101  1.00  0.00    -0.342 NA 
HETATM   14  C   UNL     1     -12.921  14.352  71.368  1.00  0.00    -0.335 C  
HETATM   15  C   UNL     1     -11.844  14.902  69.203  1.00  0.00    -0.307 C  
ENDBRANCH   9  13
ENDBRANCH   2   4
TORSDOF 3
ENDMDL
MODEL       51
REMARK 921   NORMALIZED FREE ENERGY PREDICTED BY IDOCK:   -4.07 KCAL/MOL
REMARK 922        TOTAL FREE ENERGY PREDICTED BY IDOCK:   -5.04 KCAL/MOL
REMARK 923 INTER-LIGAND FREE ENERGY PREDICTED BY IDOCK:   -4.77 KCAL/MOL
REMARK 924 INTRA-LIGAND FREE ENERGY PREDICTED BY IDOCK:   -0.27 KCAL/MOL
REMARK 927      BINDING AFFINITY PREDICTED BY RF-SCORE:    0.00 PKD
ROOT
HETATM    1  C   UNL     1      -9.234   9.004  65.529  1.00  0.00    -0.198 C  
HETATM    2  N   UNL     1      -9.168   9.893  66.672  1.00  0.00    -0.150 NA 
HETATM    3  C   UNL     1      -8.465   9.488  67.869  1.00  0.00    -0.119 C  
ENDROOT
BRANCH   2   4
HETATM    4  C   UNL     1     -10.175  10.837  66.810  1.00  0.00    -0.230 A  
HETATM    5  N   UNL     1     -10.617  11.145  68.026  1.00  0.00    -0.187 NA 
HETATM    6  C   UNL     1     -11.603  12.027  68.108  1.00  0.00    -0.340 A  
HETATM    7  N   UNL     1     -12.149  12.587  67.034  1.00  0.00    -0.514 NA 
HETATM    8  N   UNL     1     -10.673  11.385  65.709  1.00  0.00    -0.267 NA 
HETATM    9  C   UNL     1     -11.660  12.254  65.845  1.00  0.00    -0.393 A  
BRANCH   6  10
HETATM   10  N   UNL     1     -12.042  12.440  69.355  1.00  0.00    -0.230 NA 
HETATM   11  C   UNL     1     -11.872  13.826  69.751  1.00  0.00    -0.331 C  
HETATM   12  C   UNL     1     -12.149  11.460  70.420  1.00  0.00    -0.384 C  
ENDBRANCH   6  10
BRANCH   9  13
HETATM   13  N   UNL     1     -12.235  12.799  64.713  1.00  0.00    -0.433 NA 
HETATM   14  C   UNL     1     -12.285  14.239  64.540  1.00  0.00    -0.455 C  
HETATM   15  C   UNL     1     -12.446  11.977  63.538  1.00  0.00    -0.540 C  
ENDBRANCH   9  13
ENDBRANCH   2   4
TORSDOF 3
ENDMDL
MODEL       52
REMARK 921   NORMALIZED FREE ENERGY PREDICTED BY IDOCK:   -4.06 KCAL/MOL
REMARK 922        TOTAL FREE ENERGY PREDICTED BY IDOCK:   -5.03 KCAL/MOL
REMARK 923 INTER-LIGAND FREE ENERGY PREDICTED BY IDOCK:   -4.78 KCAL/MOL
REMARK 924 INTRA-LIGAND FREE ENERGY PREDICTED BY IDOCK:   -0.25 KCAL/MOL
REMARK 927      BINDING AFFINITY PREDICTED BY RF-SCORE:    0.00 PKD
ROOT
HETATM    1  C   UNL     1     -11.994  15.039  71.199  1.00  0.00    -0.323 C  
HETATM    2  N   UNL     1     -12.846  13.876  71.344  1.00  0.00    -0.346 NA 
HETATM    3  C   UNL     1     -13.706  13.745  72.500  1.00  0.00    -0.561 C  
ENDROOT
BRANCH   2   4
HETATM    4  C   UNL     1     -12.458  12.711  70.700  1.00  0.00    -0.239 A  
HETATM    5  N   UNL     1     -11.890  12.787  69.500  1.00  0.00    -0.320 NA 
HETATM    6  C   UNL     1     -11.566  11.647  68.908  1.00  0.00    -0.314 A  
HETATM    7  N   UNL     1     -11.797  10.463  69.466  1.00  0.00    -0.193 NA 
HETATM    8  N   UNL     1     -12.690  11.555  71.308  1.00  0.00    -0.398 NA 
HETATM    9  C   UNL     1     -12.354  10.445  70.672  1.00  0.00    -0.346 A  
BRANCH   6  10
HETATM   10  N   UNL     1     -10.900  11.678  67.694  1.00  0.00    -0.213 NA 
HETATM   11  C   UNL     1      -9.448  11.714  67.675  1.00  0.00    -0.177 C  
HETATM   12  C   UNL     1     -11.587  12.207  66.531  1.00  0.00    -0.359 C  
ENDBRANCH   6  10
BRANCH   9  13
HETATM   13  N   UNL     1     -12.633   9.225  71.258  1.00  0.00    -0.317 NA 
HETATM   14  C   UNL     1     -11.562   8.417  71.808  1.00  0.00    -0.308 C  
HETATM   15  C   UNL     1     -13.988   8.910  71.667  1.00  0.00    -0.362 C  
ENDBRANCH   9  13
ENDBRANCH   2   4
TORSDOF 3
ENDMDL
MODEL       53
REMARK 921   NORMALIZED FREE ENERGY PREDICTED BY IDOCK:   -4.02 KCAL/MOL
REMARK 922        TOTAL FREE ENERGY PREDICTED BY IDOCK:   -4.99 KCAL/MOL
REMARK 923 INTER-LIGAND FREE ENERGY PREDICTED BY IDOCK:   -4.69 KCAL/MOL
REMARK 924 INTRA-LIGAND FREE ENERGY PREDICTED BY IDOCK:   -0.29 KCAL/MOL
REMARK 927      BINDING AFFINITY PREDICTED BY RF-SCORE:    0.00 PKD
ROOT
HETATM    1  C   UNL     1      -7.977   8.832  65.134  1.00  0.00    -0.125 C  
HETATM    2  N   UNL     1      -9.114   9.477  64.509  1.00  0.00    -0.223 NA 
HETATM    3  C   UNL     1      -9.101   9.761  63.091  1.00  0.00    -0.243 C  
ENDROOT
BRANCH   2   4
HETATM    4  C   UNL     1      -9.926  10.266  65.311  1.00  0.00    -0.317 A  
HETATM    5  N   UNL     1      -9.995  10.014  66.615  1.00  0.00    -0.205 NA 
HETATM    6  C   UNL     1     -10.809  10.772  67.337  1.00  0.00    -0.290 A  
HETATM    7  N   UNL     1     -11.541  11.743  66.802  1.00  0.00    -0.536 NA 
HETATM    8  N   UNL     1     -10.619  11.237  64.733  1.00  0.00    -0.315 NA 
HETATM    9  C   UNL     1     -11.422  11.961  65.497  1.00  0.00    -0.252 A  
BRANCH   6  10
HETATM   10  N   UNL     1     -10.854  10.601  68.711  1.00  0.00    -0.212 NA 
HETATM   11  C   UNL     1     -11.559  11.571  69.530  1.00  0.00    -0.333 C  
HETATM   12  C   UNL     1      -9.807   9.832  69.356  1.00  0.00    -0.205 C  
ENDBRANCH   6  10
BRANCH   9  13
HETATM   13  N   UNL     1     -12.198  12.943  64.913  1.00  0.00    -0.426 NA 
HETATM   14  C   UNL     1     -12.629  14.091  65.689  1.00  0.00    -0.512 C  
HETATM   15  C   UNL     1     -12.275  13.044  63.469  1.00  0.00    -0.501 C  
ENDBRANCH   9  13
ENDBRANCH   2   4
TORSDOF 3
ENDMDL
MODEL       54
REMARK 921   NORMALIZED FREE ENERGY PREDICTED BY IDOCK:   -4.02 KCAL/MOL
REMARK 922        TOTAL FREE ENERGY PREDICTED BY IDOCK:   -4.98 KCAL/MOL
REMARK 923 INTER-LIGAND FREE ENERGY PREDICTED BY IDOCK:   -4.71 KCAL/MOL
REMARK 924 INTRA-LIGAND FREE ENERGY PREDICTED BY IDOCK:   -0.27 KCAL/MOL
REMARK 927      BINDING AFFINITY PREDICTED BY RF-SCORE:    0.00 PKD
ROOT
HETATM    1  C   UNL     1     -12.500  14.041  65.819  1.00  0.00    -0.494 C  
HETATM    2  N   UNL     1     -11.999  13.965  67.176  1.00  0.00    -0.414 NA 
HETATM    3  C   UNL     1     -11.304  15.092  67.759  1.00  0.00    -0.330 C  
ENDROOT
BRANCH   2   4
HETATM    4  C   UNL     1     -11.718  12.706  67.688  1.00  0.00    -0.361 A  
HETATM    5  N   UNL     1     -11.186  11.783  66.892  1.00  0.00    -0.314 NA 
HETATM    6  C   UNL     1     -10.966  10.585  67.414  1.00  0.00    -0.288 A  
HETATM    7  N   UNL     1     -11.264  10.292  68.676  1.00  0.00    -0.234 NA 
HETATM    8  N   UNL     1     -12.014  12.469  68.959  1.00  0.00    -0.271 NA 
HETATM    9  C   UNL     1     -11.781  11.255  69.430  1.00  0.00    -0.339 A  
BRANCH   6  10
HETATM   10  N   UNL     1     -10.338   9.616  66.649  1.00  0.00    -0.230 NA 
HETATM   11  C   UNL     1     -10.648   8.216  66.873  1.00  0.00    -0.241 C  
HETATM   12  C   UNL     1      -9.049   9.918  66.056  1.00  0.00    -0.158 C  
ENDBRANCH   6  10
BRANCH   9  13
HETATM   13  N   UNL     1     -12.129  10.964  70.735  1.00  0.00    -0.350 NA 
HETATM   14  C   UNL     1     -12.874  11.926  71.525  1.00  0.00    -0.316 C  
HETATM   15  C   UNL     1     -12.098   9.593  71.205  1.00  0.00    -0.371 C  
ENDBRANCH   9  13
ENDBRANCH   2   4
TORSDOF 3
ENDMDL
MODEL       55
REMARK 921   NORMALIZED FREE ENERGY PREDICTED BY IDOCK:   -4.01 KCAL/MOL
REMARK 922        TOTAL FREE ENERGY PREDICTED BY IDOCK:   -4.97 KCAL/MOL
REMARK 923 INTER-LIGAND FREE ENERGY PREDICTED BY IDOCK:   -4.68 KCAL/MOL
REMARK 924 INTRA-LIGAND FREE ENERGY PREDICTED BY IDOCK:   -0.29 KCAL/MOL
REMARK 927      BINDING AFFINITY PREDICTED BY RF-SCORE:    0.00 PKD
ROOT
HETATM    1  C   UNL     1     -12.188  13.158  70.438  1.00  0.00    -0.316 C  
HETATM    2  N   UNL     1     -12.196  11.775  70.006  1.00  0.00    -0.271 NA 
HETATM    3  C   UNL     1     -12.172  10.708  70.982  1.00  0.00    -0.393 C  
ENDROOT
BRANCH   2   4
HETATM    4  C   UNL     1     -11.704  11.494  68.740  1.00  0.00    -0.334 A  
HETATM    5  N   UNL     1     -11.109  10.326  68.516  1.00  0.00    -0.253 NA 
HETATM    6  C   UNL     1     -10.624  10.115  67.301  1.00  0.00    -0.261 A  
HETATM    7  N   UNL     1     -10.709  11.020  66.332  1.00  0.00    -0.252 NA 
HETATM    8  N   UNL     1     -11.833  12.422  67.801  1.00  0.00    -0.436 NA 
HETATM    9  C   UNL     1     -11.326  12.165  66.606  1.00  0.00    -0.350 A  
BRANCH   6  10
HETATM   10  N   UNL     1     -10.068   8.883  66.997  1.00  0.00    -0.236 NA 
HETATM   11  C   UNL     1      -9.810   7.931  68.063  1.00  0.00    -0.165 C  
HETATM   12  C   UNL     1      -9.272   8.753  65.791  1.00  0.00    -0.206 C  
ENDBRANCH   6  10
BRANCH   9  13
HETATM   13  N   UNL     1     -11.397  13.134  65.624  1.00  0.00    -0.298 NA 
HETATM   14  C   UNL     1     -10.630  12.992  64.401  1.00  0.00    -0.409 C  
HETATM   15  C   UNL     1     -12.490  14.086  65.622  1.00  0.00    -0.504 C  
ENDBRANCH   9  13
ENDBRANCH   2   4
TORSDOF 3
ENDMDL
MODEL       56
REMARK 921   NORMALIZED FREE ENERGY PREDICTED BY IDOCK:   -4.00 KCAL/MOL
REMARK 922        TOTAL FREE ENERGY PREDICTED BY IDOCK:   -4.97 KCAL/MOL
REMARK 923 INTER-LIGAND FREE ENERGY PREDICTED BY IDOCK:   -4.70 KCAL/MOL
REMARK 924 INTRA-LIGAND FREE ENERGY PREDICTED BY IDOCK:   -0.27 KCAL/MOL
REMARK 927      BINDING AFFINITY PREDICTED BY RF-SCORE:    0.00 PKD
ROOT
HETATM    1  C   UNL     1      -8.784   8.636  68.494  1.00  0.00    -0.139 C  
HETATM    2  N   UNL     1     -10.173   8.638  68.080  1.00  0.00    -0.201 NA 
HETATM    3  C   UNL     1     -10.658   7.634  67.159  1.00  0.00    -0.340 C  
ENDROOT
BRANCH   2   4
HETATM    4  C   UNL     1     -10.857   9.844  68.129  1.00  0.00    -0.234 A  
HETATM    5  N   UNL     1     -11.034  10.539  67.010  1.00  0.00    -0.227 NA 
HETATM    6  C   UNL     1     -11.664  11.701  67.110  1.00  0.00    -0.133 A  
HETATM    7  N   UNL     1     -12.101  12.177  68.271  1.00  0.00    -0.384 NA 
HETATM    8  N   UNL     1     -11.293  10.266  69.309  1.00  0.00    -0.219 NA 
HETATM    9  C   UNL     1     -11.909  11.436  69.356  1.00  0.00    -0.351 A  
BRANCH   6  10
HETATM   10  N   UNL     1     -11.944  12.422  65.961  1.00  0.00    -0.602 NA 
HETATM   11  C   UNL     1     -11.302  12.056  64.711  1.00  0.00    -0.313 C  
HETATM   12  C   UNL     1     -12.400  13.794  66.089  1.00  0.00    -0.452 C  
ENDBRANCH   6  10
BRANCH   9  13
HETATM   13  N   UNL     1     -12.326  11.925  70.579  1.00  0.00    -0.317 NA 
HETATM   14  C   UNL     1     -12.431  13.356  70.796  1.00  0.00    -0.341 C  
HETATM   15  C   UNL     1     -13.010  11.054  71.514  1.00  0.00    -0.448 C  
ENDBRANCH   9  13
ENDBRANCH   2   4
TORSDOF 3
ENDMDL
MODEL       57
REMARK 921   NORMALIZED FREE ENERGY PREDICTED BY IDOCK:   -3.98 KCAL/MOL
REMARK 922        TOTAL FREE ENERGY PREDICTED BY IDOCK:   -4.94 KCAL/MOL
REMARK 923 INTER-LIGAND FREE ENERGY PREDICTED BY IDOCK:   -4.68 KCAL/MOL
REMARK 924 INTRA-LIGAND FREE ENERGY PREDICTED BY IDOCK:   -0.26 KCAL/MOL
REMARK 927      BINDING AFFINITY PREDICTED BY RF-SCORE:    0.00 PKD
ROOT
HETATM    1  C   UNL     1      -9.936  14.043  66.163  1.00  0.00    -0.312 C  
HETATM    2  N   UNL     1     -11.231  13.439  66.408  1.00  0.00    -0.299 NA 
HETATM    3  C   UNL     1     -12.332  13.689  65.504  1.00  0.00    -0.482 C  
ENDROOT
BRANCH   2   4
HETATM    4  C   UNL     1     -11.542  13.093  67.715  1.00  0.00    -0.337 A  
HETATM    5  N   UNL     1     -12.112  13.993  68.509  1.00  0.00    -0.342 NA 
HETATM    6  C   UNL     1     -12.361  13.630  69.759  1.00  0.00    -0.228 A  
HETATM    7  N   UNL     1     -12.055  12.423  70.225  1.00  0.00    -0.341 NA 
HETATM    8  N   UNL     1     -11.236  11.869  68.125  1.00  0.00    -0.237 NA 
HETATM    9  C   UNL     1     -11.498  11.558  69.384  1.00  0.00    -0.309 A  
BRANCH   6  10
HETATM   10  N   UNL     1     -13.027  14.505  70.601  1.00  0.00    -0.344 NA 
HETATM   11  C   UNL     1     -12.554  15.871  70.733  1.00  0.00    -0.222 C  
HETATM   12  C   UNL     1     -13.794  13.965  71.708  1.00  0.00    -0.359 C  
ENDBRANCH   6  10
BRANCH   9  13
HETATM   13  N   UNL     1     -11.142  10.309  69.854  1.00  0.00    -0.283 NA 
HETATM   14  C   UNL     1     -10.000   9.614  69.291  1.00  0.00    -0.191 C  
HETATM   15  C   UNL     1     -11.642   9.845  71.133  1.00  0.00    -0.389 C  
ENDBRANCH   9  13
ENDBRANCH   2   4
TORSDOF 3
ENDMDL
MODEL       58
REMARK 921   NORMALIZED FREE ENERGY PREDICTED BY IDOCK:   -3.96 KCAL/MOL
REMARK 922        TOTAL FREE ENERGY PREDICTED BY IDOCK:   -4.91 KCAL/MOL
REMARK 923 INTER-LIGAND FREE ENERGY PREDICTED BY IDOCK:   -4.66 KCAL/MOL
REMARK 924 INTRA-LIGAND FREE ENERGY PREDICTED BY IDOCK:   -0.26 KCAL/MOL
REMARK 927      BINDING AFFINITY PREDICTED BY RF-SCORE:    0.00 PKD
ROOT
HETATM    1  C   UNL     1      -6.467  14.726  67.620  1.00  0.00    -0.139 C  
HETATM    2  N   UNL     1      -6.756  15.958  66.913  1.00  0.00    -0.263 NA 
HETATM    3  C   UNL     1      -5.802  17.045  66.926  1.00  0.00    -0.190 C  
ENDROOT
BRANCH   2   4
HETATM    4  C   UNL     1      -8.088  16.279  66.700  1.00  0.00    -0.288 A  
HETATM    5  N   UNL     1      -8.513  17.510  66.970  1.00  0.00    -0.227 NA 
HETATM    6  C   UNL     1      -9.801  17.762  66.782  1.00  0.00    -0.320 A  
HETATM    7  N   UNL     1     -10.653  16.838  66.352  1.00  0.00    -0.244 NA 
HETATM    8  N   UNL     1      -8.894  15.328  66.247  1.00  0.00    -0.282 NA 
HETATM    9  C   UNL     1     -10.172  15.628  66.084  1.00  0.00    -0.311 A  
BRANCH   6  10
HETATM   10  N   UNL     1     -10.275  19.049  66.972  1.00  0.00    -0.360 NA 
HETATM   11  C   UNL     1     -10.433  19.930  65.829  1.00  0.00    -0.414 C  
HETATM   12  C   UNL     1     -10.094  19.678  68.267  1.00  0.00    -0.449 C  
ENDBRANCH   6  10
BRANCH   9  13
HETATM   13  N   UNL     1     -11.045  14.643  65.666  1.00  0.00    -0.328 NA 
HETATM   14  C   UNL     1     -10.736  13.839  64.499  1.00  0.00    -0.390 C  
HETATM   15  C   UNL     1     -12.066  14.147  66.569  1.00  0.00    -0.454 C  
ENDBRANCH   9  13
ENDBRANCH   2   4
TORSDOF 3
ENDMDL
MODEL       59
REMARK 921   NORMALIZED FREE ENERGY PREDICTED BY IDOCK:   -3.95 KCAL/MOL
REMARK 922        TOTAL FREE ENERGY PREDICTED BY IDOCK:   -4.91 KCAL/MOL
REMARK 923 INTER-LIGAND FREE ENERGY PREDICTED BY IDOCK:   -4.65 KCAL/MOL
REMARK 924 INTRA-LIGAND FREE ENERGY PREDICTED BY IDOCK:   -0.25 KCAL/MOL
REMARK 927      BINDING AFFINITY PREDICTED BY RF-SCORE:    0.00 PKD
ROOT
HETATM    1  C   UNL     1      -7.715  16.741  67.409  1.00  0.00    -0.169 C  
HETATM    2  N   UNL     1      -9.087  17.110  67.699  1.00  0.00    -0.225 NA 
HETATM    3  C   UNL     1      -9.371  18.269  68.515  1.00  0.00    -0.319 C  
ENDROOT
BRANCH   2   4
HETATM    4  C   UNL     1     -10.044  16.106  67.658  1.00  0.00    -0.248 A  
HETATM    5  N   UNL     1     -10.303  15.500  66.503  1.00  0.00    -0.280 NA 
HETATM    6  C   UNL     1     -11.248  14.571  66.504  1.00  0.00    -0.344 A  
HETATM    7  N   UNL     1     -11.928  14.247  67.599  1.00  0.00    -0.385 NA 
HETATM    8  N   UNL     1     -10.679  15.804  68.782  1.00  0.00    -0.240 NA 
HETATM    9  C   UNL     1     -11.619  14.875  68.729  1.00  0.00    -0.323 A  
BRANCH   6  10
HETATM   10  N   UNL     1     -11.498  13.856  65.345  1.00  0.00    -0.306 NA 
HETATM   11  C   UNL     1     -12.263  14.471  64.275  1.00  0.00    -0.415 C  
HETATM   12  C   UNL     1     -11.495  12.406  65.402  1.00  0.00    -0.358 C  
ENDBRANCH   6  10
BRANCH   9  13
HETATM   13  N   UNL     1     -12.335  14.578  69.872  1.00  0.00    -0.317 NA 
HETATM   14  C   UNL     1     -12.338  13.227  70.403  1.00  0.00    -0.295 C  
HETATM   15  C   UNL     1     -12.770  15.643  70.753  1.00  0.00    -0.431 C  
ENDBRANCH   9  13
ENDBRANCH   2   4
TORSDOF 3
ENDMDL
MODEL       60
REMARK 921   NORMALIZED FREE ENERGY PREDICTED BY IDOCK:   -3.92 KCAL/MOL
REMARK 922        TOTAL FREE ENERGY PREDICTED BY IDOCK:   -4.87 KCAL/MOL
REMARK 923 INTER-LIGAND FREE ENERGY PREDICTED BY IDOCK:   -4.59 KCAL/MOL
REMARK 924 INTRA-LIGAND FREE ENERGY PREDICTED BY IDOCK:   -0.29 KCAL/MOL
REMARK 927      BINDING AFFINITY PREDICTED BY RF-SCORE:    0.00 PKD
ROOT
HETATM    1  C   UNL     1     -10.237   9.142  67.931  1.00  0.00    -0.216 C  
HETATM    2  N   UNL     1     -10.810  10.324  67.317  1.00  0.00    -0.273 NA 
HETATM    3  C   UNL     1     -10.503  10.650  65.942  1.00  0.00    -0.174 C  
ENDROOT
BRANCH   2   4
HETATM    4  C   UNL     1     -11.185  11.365  68.153  1.00  0.00    -0.278 A  
HETATM    5  N   UNL     1     -10.883  12.615  67.813  1.00  0.00    -0.216 NA 
HETATM    6  C   UNL     1     -11.230  13.575  68.658  1.00  0.00    -0.278 A  
HETATM    7  N   UNL     1     -11.848  13.323  69.808  1.00  0.00    -0.324 NA 
HETATM    8  N   UNL     1     -11.819  11.064  69.278  1.00  0.00    -0.321 NA 
HETATM    9  C   UNL     1     -12.138  12.058  70.092  1.00  0.00    -0.298 A  
BRANCH   6  10
HETATM   10  N   UNL     1     -11.010  14.897  68.311  1.00  0.00    -0.255 NA 
HETATM   11  C   UNL     1     -11.298  15.947  69.272  1.00  0.00    -0.355 C  
HETATM   12  C   UNL     1     -11.030  15.265  66.908  1.00  0.00    -0.315 C  
ENDBRANCH   6  10
BRANCH   9  13
HETATM   13  N   UNL     1     -12.750  11.770  71.296  1.00  0.00    -0.368 NA 
HETATM   14  C   UNL     1     -13.382  12.825  72.066  1.00  0.00    -0.466 C  
HETATM   15  C   UNL     1     -13.101  10.401  71.622  1.00  0.00    -0.448 C  
ENDBRANCH   9  13
ENDBRANCH   2   4
TORSDOF 3
ENDMDL
MODEL       61
REMARK 921   NORMALIZED FREE ENERGY PREDICTED BY IDOCK:   -3.92 KCAL/MOL
REMARK 922        TOTAL FREE ENERGY PREDICTED BY IDOCK:   -4.87 KCAL/MOL
REMARK 923 INTER-LIGAND FREE ENERGY PREDICTED BY IDOCK:   -4.59 KCAL/MOL
REMARK 924 INTRA-LIGAND FREE ENERGY PREDICTED BY IDOCK:   -0.28 KCAL/MOL
REMARK 927      BINDING AFFINITY PREDICTED BY RF-SCORE:    0.00 PKD
ROOT
HETATM    1  C   UNL     1     -10.579  17.087  68.915  1.00  0.00    -0.328 C  
HETATM    2  N   UNL     1     -10.239  15.747  68.478  1.00  0.00    -0.212 NA 
HETATM    3  C   UNL     1      -9.768  15.519  67.130  1.00  0.00    -0.222 C  
ENDROOT
BRANCH   2   4
HETATM    4  C   UNL     1     -10.848  14.685  69.131  1.00  0.00    -0.259 A  
HETATM    5  N   UNL     1     -10.546  13.441  68.773  1.00  0.00    -0.237 NA 
HETATM    6  C   UNL     1     -11.176  12.459  69.401  1.00  0.00    -0.158 A  
HETATM    7  N   UNL     1     -12.083  12.683  70.346  1.00  0.00    -0.352 NA 
HETATM    8  N   UNL     1     -11.729  14.961  70.083  1.00  0.00    -0.276 NA 
HETATM    9  C   UNL     1     -12.337  13.945  70.675  1.00  0.00    -0.381 A  
BRANCH   6  10
HETATM   10  N   UNL     1     -10.837  11.146  69.120  1.00  0.00    -0.227 NA 
HETATM   11  C   UNL     1     -10.971  10.646  67.763  1.00  0.00    -0.306 C  
HETATM   12  C   UNL     1     -10.883  10.166  70.189  1.00  0.00    -0.311 C  
ENDBRANCH   6  10
BRANCH   9  13
HETATM   13  N   UNL     1     -13.299  14.203  71.631  1.00  0.00    -0.345 NA 
HETATM   14  C   UNL     1     -13.870  13.117  72.405  1.00  0.00    -0.483 C  
HETATM   15  C   UNL     1     -13.476  15.550  72.137  1.00  0.00    -0.490 C  
ENDBRANCH   9  13
ENDBRANCH   2   4
TORSDOF 3
ENDMDL
MODEL       62
REMARK 921   NORMALIZED FREE ENERGY PREDICTED BY IDOCK:   -3.90 KCAL/MOL
REMARK 922        TOTAL FREE ENERGY PREDICTED BY IDOCK:   -4.85 KCAL/MOL
REMARK 923 INTER-LIGAND FREE ENERGY PREDICTED BY IDOCK:   -4.57 KCAL/MOL
REMARK 924 INTRA-LIGAND FREE ENERGY PREDICTED BY IDOCK:   -0.28 KCAL/MOL
REMARK 927      BINDING AFFINITY PREDICTED BY RF-SCORE:    0.00 PKD
ROOT
HETATM    1  C   UNL     1     -12.832  10.979  71.359  1.00  0.00    -0.443 C  
HETATM    2  N   UNL     1     -11.891  10.256  70.526  1.00  0.00    -0.304 NA 
HETATM    3  C   UNL     1     -10.946   9.339  71.125  1.00  0.00    -0.339 C  
ENDROOT
BRANCH   2   4
HETATM    4  C   UNL     1     -11.550  10.819  69.305  1.00  0.00    -0.305 A  
HETATM    5  N   UNL     1     -11.858  12.090  69.064  1.00  0.00    -0.320 NA 
HETATM    6  C   UNL     1     -11.543  12.575  67.872  1.00  0.00    -0.347 A  
HETATM    7  N   UNL     1     -10.953  11.840  66.936  1.00  0.00    -0.270 NA 
HETATM    8  N   UNL     1     -10.942  10.050  68.412  1.00  0.00    -0.236 NA 
HETATM    9  C   UNL     1     -10.656  10.580  67.234  1.00  0.00    -0.264 A  
BRANCH   6  10
HETATM   10  N   UNL     1     -11.770  13.915  67.603  1.00  0.00    -0.347 NA 
HETATM   11  C   UNL     1     -11.966  14.842  68.703  1.00  0.00    -0.241 C  
HETATM   12  C   UNL     1     -12.337  14.286  66.321  1.00  0.00    -0.373 C  
ENDBRANCH   6  10
BRANCH   9  13
HETATM   13  N   UNL     1     -10.072   9.787  66.265  1.00  0.00    -0.251 NA 
HETATM   14  C   UNL     1      -9.903  10.288  64.914  1.00  0.00    -0.336 C  
HETATM   15  C   UNL     1      -9.294   8.626  66.650  1.00  0.00    -0.192 C  
ENDBRANCH   9  13
ENDBRANCH   2   4
TORSDOF 3
ENDMDL
MODEL       63
REMARK 921   NORMALIZED FREE ENERGY PREDICTED BY IDOCK:   -3.90 KCAL/MOL
REMARK 922        TOTAL FREE ENERGY PREDICTED BY IDOCK:   -4.85 KCAL/MOL
REMARK 923 INTER-LIGAND FREE ENERGY PREDICTED BY IDOCK:   -4.58 KCAL/MOL
REMARK 924 INTRA-LIGAND FREE ENERGY PREDICTED BY IDOCK:   -0.26 KCAL/MOL
REMARK 927      BINDING AFFINITY PREDICTED BY RF-SCORE:    0.00 PKD
ROOT
HETATM    1  C   UNL     1     -11.531  12.318  64.538  1.00  0.00    -0.341 C  
HETATM    2  N   UNL     1     -11.969  12.579  65.895  1.00  0.00    -0.544 NA 
HETATM    3  C   UNL     1     -12.365  13.914  66.288  1.00  0.00    -0.449 C  
ENDROOT
BRANCH   2   4
HETATM    4  C   UNL     1     -11.516  11.727  66.892  1.00  0.00    -0.293 A  
HETATM    5  N   UNL     1     -10.632  10.781  66.588  1.00  0.00    -0.246 NA 
HETATM    6  C   UNL     1     -10.252   9.969  67.565  1.00  0.00    -0.212 A  
HETATM    7  N   UNL     1     -10.727  10.071  68.801  1.00  0.00    -0.215 NA 
HETATM    8  N   UNL     1     -12.004  11.883  68.115  1.00  0.00    -0.528 NA 
HETATM    9  C   UNL     1     -11.598  11.042  69.053  1.00  0.00    -0.323 A  
BRANCH   6  10
HETATM   10  N   UNL     1      -9.274   9.021  67.317  1.00  0.00    -0.133 NA 
HETATM   11  C   UNL     1      -7.878   9.420  67.301  1.00  0.00    -0.099 C  
HETATM   12  C   UNL     1      -9.626   7.831  66.566  1.00  0.00    -0.201 C  
ENDBRANCH   6  10
BRANCH   9  13
HETATM   13  N   UNL     1     -12.130  11.147  70.323  1.00  0.00    -0.347 NA 
HETATM   14  C   UNL     1     -12.094  10.012  71.226  1.00  0.00    -0.394 C  
HETATM   15  C   UNL     1     -12.381  12.453  70.900  1.00  0.00    -0.262 C  
ENDBRANCH   9  13
ENDBRANCH   2   4
TORSDOF 3
ENDMDL
MODEL       64
REMARK 921   NORMALIZED FREE ENERGY PREDICTED BY IDOCK:   -3.90 KCAL/MOL
REMARK 922        TOTAL FREE ENERGY PREDICTED BY IDOCK:   -4.85 KCAL/MOL
REMARK 923 INTER-LIGAND FREE ENERGY PREDICTED BY IDOCK:   -4.59 KCAL/MOL
REMARK 924 INTRA-LIGAND FREE ENERGY PREDICTED BY IDOCK:   -0.26 KCAL/MOL
REMARK 927      BINDING AFFINITY PREDICTED BY RF-SCORE:    0.00 PKD
ROOT
HETATM    1  C   UNL     1      -8.487  15.486  66.680  1.00  0.00    -0.279 C  
HETATM    2  N   UNL     1      -8.498  14.160  67.265  1.00  0.00    -0.208 NA 
HETATM    3  C   UNL     1      -7.252  13.489  67.568  1.00  0.00    -0.154 C  
ENDROOT
BRANCH   2   4
HETATM    4  C   UNL     1      -9.613  13.366  67.039  1.00  0.00    -0.244 A  
HETATM    5  N   UNL     1     -10.412  13.643  66.014  1.00  0.00    -0.294 NA 
HETATM    6  C   UNL     1     -11.484  12.879  65.856  1.00  0.00    -0.346 A  
HETATM    7  N   UNL     1     -11.773  11.878  66.680  1.00  0.00    -0.579 NA 
HETATM    8  N   UNL     1      -9.846  12.365  67.877  1.00  0.00    -0.196 NA 
HETATM    9  C   UNL     1     -10.933  11.637  67.680  1.00  0.00    -0.239 A  
BRANCH   6  10
HETATM   10  N   UNL     1     -12.302  13.077  64.756  1.00  0.00    -0.465 NA 
HETATM   11  C   UNL     1     -12.527  11.986  63.825  1.00  0.00    -0.485 C  
HETATM   12  C   UNL     1     -12.475  14.424  64.245  1.00  0.00    -0.272 C  
ENDBRANCH   6  10
BRANCH   9  13
HETATM   13  N   UNL     1     -11.230  10.622  68.569  1.00  0.00    -0.267 NA 
HETATM   14  C   UNL     1     -10.485   9.377  68.534  1.00  0.00    -0.208 C  
HETATM   15  C   UNL     1     -12.003  10.905  69.762  1.00  0.00    -0.351 C  
ENDBRANCH   9  13
ENDBRANCH   2   4
TORSDOF 3
ENDMDL
MODEL       65
REMARK 921   NORMALIZED FREE ENERGY PREDICTED BY IDOCK:   -3.90 KCAL/MOL
REMARK 922        TOTAL FREE ENERGY PREDICTED BY IDOCK:   -4.84 KCAL/MOL
REMARK 923 INTER-LIGAND FREE ENERGY PREDICTED BY IDOCK:   -4.55 KCAL/MOL
REMARK 924 INTRA-LIGAND FREE ENERGY PREDICTED BY IDOCK:   -0.29 KCAL/MOL
REMARK 927      BINDING AFFINITY PREDICTED BY RF-SCORE:    0.00 PKD
ROOT
HETATM    1  C   UNL     1     -13.240  12.427  71.978  1.00  0.00    -0.409 C  
HETATM    2  N   UNL     1     -12.730  11.431  71.056  1.00  0.00    -0.372 NA 
HETATM    3  C   UNL     1     -12.356  10.119  71.536  1.00  0.00    -0.408 C  
ENDROOT
BRANCH   2   4
HETATM    4  C   UNL     1     -12.122  11.884  69.894  1.00  0.00    -0.272 A  
HETATM    5  N   UNL     1     -11.550  11.007  69.074  1.00  0.00    -0.296 NA 
HETATM    6  C   UNL     1     -10.953  11.487  67.993  1.00  0.00    -0.231 A  
HETATM    7  N   UNL     1     -10.906  12.788  67.722  1.00  0.00    -0.220 NA 
HETATM    8  N   UNL     1     -12.121  13.189  69.658  1.00  0.00    -0.287 NA 
HETATM    9  C   UNL     1     -11.505  13.618  68.568  1.00  0.00    -0.312 A  
BRANCH   6  10
HETATM   10  N   UNL     1     -10.414  10.609  67.068  1.00  0.00    -0.231 NA 
HETATM   11  C   UNL     1     -10.341  10.995  65.670  1.00  0.00    -0.251 C  
HETATM   12  C   UNL     1     -10.438   9.187  67.356  1.00  0.00    -0.271 C  
ENDBRANCH   6  10
BRANCH   9  13
HETATM   13  N   UNL     1     -11.442  14.976  68.325  1.00  0.00    -0.320 NA 
HETATM   14  C   UNL     1     -11.574  15.922  69.417  1.00  0.00    -0.349 C  
HETATM   15  C   UNL     1     -10.879  15.465  67.081  1.00  0.00    -0.321 C  
ENDBRANCH   9  13
ENDBRANCH   2   4
TORSDOF 3
ENDMDL
MODEL       66
REMARK 921   NORMALIZED FREE ENERGY PREDICTED BY IDOCK:   -3.90 KCAL/MOL
REMARK 922        TOTAL FREE ENERGY PREDICTED BY IDOCK:   -4.84 KCAL/MOL
REMARK 923 INTER-LIGAND FREE ENERGY PREDICTED BY IDOCK:   -4.57 KCAL/MOL
REMARK 924 INTRA-LIGAND FREE ENERGY PREDICTED BY IDOCK:   -0.27 KCAL/MOL
REMARK 927      BINDING AFFINITY PREDICTED BY RF-SCORE:    0.00 PKD
ROOT
HETATM    1  C   UNL     1     -12.090   7.600  71.156  1.00  0.00    -0.298 C  
HETATM    2  N   UNL     1     -11.041   8.578  70.951  1.00  0.00    -0.249 NA 
HETATM    3  C   UNL     1      -9.917   8.639  71.859  1.00  0.00    -0.322 C  
ENDROOT
BRANCH   2   4
HETATM    4  C   UNL     1     -11.368   9.735  70.259  1.00  0.00    -0.272 A  
HETATM    5  N   UNL     1     -11.084   9.821  68.963  1.00  0.00    -0.158 NA 
HETATM    6  C   UNL     1     -11.383  10.958  68.350  1.00  0.00    -0.304 A  
HETATM    7  N   UNL     1     -11.937  11.985  68.985  1.00  0.00    -0.295 NA 
HETATM    8  N   UNL     1     -11.939  10.725  70.932  1.00  0.00    -0.339 NA 
HETATM    9  C   UNL     1     -12.212  11.841  70.276  1.00  0.00    -0.299 A  
BRANCH   6  10
HETATM   10  N   UNL     1     -11.181  11.066  66.984  1.00  0.00    -0.356 NA 
HETATM   11  C   UNL     1     -10.229  10.187  66.329  1.00  0.00    -0.219 C  
HETATM   12  C   UNL     1     -11.466  12.330  66.332  1.00  0.00    -0.378 C  
ENDBRANCH   6  10
BRANCH   9  13
HETATM   13  N   UNL     1     -12.757  12.907  70.964  1.00  0.00    -0.305 NA 
HETATM   14  C   UNL     1     -13.365  12.704  72.265  1.00  0.00    -0.422 C  
HETATM   15  C   UNL     1     -12.408  14.265  70.593  1.00  0.00    -0.361 C  
ENDBRANCH   9  13
ENDBRANCH   2   4
TORSDOF 3
ENDMDL
MODEL       67
REMARK 921   NORMALIZED FREE ENERGY PREDICTED BY IDOCK:   -3.89 KCAL/MOL
REMARK 922        TOTAL FREE ENERGY PREDICTED BY IDOCK:   -4.84 KCAL/MOL
REMARK 923 INTER-LIGAND FREE ENERGY PREDICTED BY IDOCK:   -4.57 KCAL/MOL
REMARK 924 INTRA-LIGAND FREE ENERGY PREDICTED BY IDOCK:   -0.27 KCAL/MOL
REMARK 927      BINDING AFFINITY PREDICTED BY RF-SCORE:    0.00 PKD
ROOT
HETATM    1  C   UNL     1     -12.568  13.019  70.459  1.00  0.00    -0.147 C  
HETATM    2  N   UNL     1     -12.221  12.274  69.265  1.00  0.00    -0.136 NA 
HETATM    3  C   UNL     1     -11.754  10.909  69.371  1.00  0.00    -0.325 C  
ENDROOT
BRANCH   2   4
HETATM    4  C   UNL     1     -11.835  12.997  68.146  1.00  0.00    -0.340 A  
HETATM    5  N   UNL     1     -11.826  12.402  66.957  1.00  0.00    -0.546 NA 
HETATM    6  C   UNL     1     -11.419  13.121  65.921  1.00  0.00    -0.333 A  
HETATM    7  N   UNL     1     -11.022  14.384  66.042  1.00  0.00    -0.310 NA 
HETATM    8  N   UNL     1     -11.469  14.260  68.315  1.00  0.00    -0.287 NA 
HETATM    9  C   UNL     1     -11.064  14.933  67.251  1.00  0.00    -0.336 A  
BRANCH   6  10
HETATM   10  N   UNL     1     -11.469  12.571  64.651  1.00  0.00    -0.314 NA 
HETATM   11  C   UNL     1     -12.684  11.916  64.202  1.00  0.00    -0.170 C  
HETATM   12  C   UNL     1     -10.230  12.168  64.013  1.00  0.00    -0.370 C  
ENDBRANCH   6  10
BRANCH   9  13
HETATM   13  N   UNL     1     -10.626  16.234  67.406  1.00  0.00    -0.312 NA 
HETATM   14  C   UNL     1     -10.286  16.740  68.723  1.00  0.00    -0.318 C  
HETATM   15  C   UNL     1     -10.145  16.979  66.259  1.00  0.00    -0.320 C  
ENDBRANCH   9  13
ENDBRANCH   2   4
TORSDOF 3
ENDMDL
MODEL       68
REMARK 921   NORMALIZED FREE ENERGY PREDICTED BY IDOCK:   -3.89 KCAL/MOL
REMARK 922        TOTAL FREE ENERGY PREDICTED BY IDOCK:   -4.83 KCAL/MOL
REMARK 923 INTER-LIGAND FREE ENERGY PREDICTED BY IDOCK:   -4.55 KCAL/MOL
REMARK 924 INTRA-LIGAND FREE ENERGY PREDICTED BY IDOCK:   -0.28 KCAL/MOL
REMARK 927      BINDING AFFINITY PREDICTED BY RF-SCORE:    0.00 PKD
ROOT
HETATM    1  C   UNL     1      -9.386  15.228  66.616  1.00  0.00    -0.260 C  
HETATM    2  N   UNL     1      -9.960  15.630  67.884  1.00  0.00    -0.222 NA 
HETATM    3  C   UNL     1      -9.383  16.727  68.629  1.00  0.00    -0.252 C  
ENDROOT
BRANCH   2   4
HETATM    4  C   UNL     1     -10.671  14.677  68.599  1.00  0.00    -0.250 A  
HETATM    5  N   UNL     1     -11.428  15.060  69.623  1.00  0.00    -0.276 NA 
HETATM    6  C   UNL     1     -12.063  14.112  70.297  1.00  0.00    -0.342 A  
HETATM    7  N   UNL     1     -11.957  12.824  69.987  1.00  0.00    -0.335 NA 
HETATM    8  N   UNL     1     -10.550  13.407  68.236  1.00  0.00    -0.247 NA 
HETATM    9  C   UNL     1     -11.198  12.498  68.946  1.00  0.00    -0.281 A  
BRANCH   6  10
HETATM   10  N   UNL     1     -12.926  14.468  71.320  1.00  0.00    -0.316 NA 
HETATM   11  C   UNL     1     -12.806  15.779  71.933  1.00  0.00    -0.446 C  
HETATM   12  C   UNL     1     -13.537  13.422  72.117  1.00  0.00    -0.567 C  
ENDBRANCH   6  10
BRANCH   9  13
HETATM   13  N   UNL     1     -11.047  11.163  68.625  1.00  0.00    -0.217 NA 
HETATM   14  C   UNL     1     -10.726  10.769  67.267  1.00  0.00    -0.274 C  
HETATM   15  C   UNL     1     -10.833  10.184  69.674  1.00  0.00    -0.263 C  
ENDBRANCH   9  13
ENDBRANCH   2   4
TORSDOF 3
ENDMDL
MODEL       69
REMARK 921   NORMALIZED FREE ENERGY PREDICTED BY IDOCK:   -3.85 KCAL/MOL
REMARK 922        TOTAL FREE ENERGY PREDICTED BY IDOCK:   -4.79 KCAL/MOL
REMARK 923 INTER-LIGAND FREE ENERGY PREDICTED BY IDOCK:   -4.51 KCAL/MOL
REMARK 924 INTRA-LIGAND FREE ENERGY PREDICTED BY IDOCK:   -0.28 KCAL/MOL
REMARK 927      BINDING AFFINITY PREDICTED BY RF-SCORE:    0.00 PKD
ROOT
HETATM    1  C   UNL     1     -10.409  11.835  63.336  1.00  0.00    -0.439 C  
HETATM    2  N   UNL     1     -10.847  12.452  64.573  1.00  0.00    -0.302 NA 
HETATM    3  C   UNL     1     -10.711  13.880  64.760  1.00  0.00    -0.423 C  
ENDROOT
BRANCH   2   4
HETATM    4  C   UNL     1     -10.883  11.658  65.709  1.00  0.00    -0.281 A  
HETATM    5  N   UNL     1     -11.371  12.160  66.840  1.00  0.00    -0.323 NA 
HETATM    6  C   UNL     1     -11.355  11.377  67.909  1.00  0.00    -0.303 A  
HETATM    7  N   UNL     1     -10.869  10.141  67.879  1.00  0.00    -0.271 NA 
HETATM    8  N   UNL     1     -10.406  10.424  65.624  1.00  0.00    -0.230 NA 
HETATM    9  C   UNL     1     -10.406   9.685  66.721  1.00  0.00    -0.222 A  
BRANCH   6  10
HETATM   10  N   UNL     1     -11.926  11.827  69.088  1.00  0.00    -0.313 NA 
HETATM   11  C   UNL     1     -11.785  13.221  69.466  1.00  0.00    -0.322 C  
HETATM   12  C   UNL     1     -12.164  10.876  70.158  1.00  0.00    -0.343 C  
ENDBRANCH   6  10
BRANCH   9  13
HETATM   13  N   UNL     1      -9.866   8.414  66.674  1.00  0.00    -0.252 NA 
HETATM   14  C   UNL     1     -10.670   7.264  67.042  1.00  0.00    -0.336 C  
HETATM   15  C   UNL     1      -8.653   8.169  65.919  1.00  0.00    -0.151 C  
ENDBRANCH   9  13
ENDBRANCH   2   4
TORSDOF 3
ENDMDL
MODEL       70
REMARK 921   NORMALIZED FREE ENERGY PREDICTED BY IDOCK:   -3.85 KCAL/MOL
REMARK 922        TOTAL FREE ENERGY PREDICTED BY IDOCK:   -4.79 KCAL/MOL
REMARK 923 INTER-LIGAND FREE ENERGY PREDICTED BY IDOCK:   -4.50 KCAL/MOL
REMARK 924 INTRA-LIGAND FREE ENERGY PREDICTED BY IDOCK:   -0.28 KCAL/MOL
REMARK 927      BINDING AFFINITY PREDICTED BY RF-SCORE:    0.00 PKD
ROOT
HETATM    1  C   UNL     1     -12.034  14.925  69.672  1.00  0.00    -0.320 C  
HETATM    2  N   UNL     1     -12.256  13.495  69.582  1.00  0.00    -0.285 NA 
HETATM    3  C   UNL     1     -12.398  12.704  70.785  1.00  0.00    -0.283 C  
ENDROOT
BRANCH   2   4
HETATM    4  C   UNL     1     -11.811  12.846  68.439  1.00  0.00    -0.318 A  
HETATM    5  N   UNL     1     -12.084  13.367  67.247  1.00  0.00    -0.342 NA 
HETATM    6  C   UNL     1     -11.669  12.696  66.182  1.00  0.00    -0.406 A  
HETATM    7  N   UNL     1     -11.013  11.545  66.276  1.00  0.00    -0.289 NA 
HETATM    8  N   UNL     1     -11.141  11.712  68.587  1.00  0.00    -0.216 NA 
HETATM    9  C   UNL     1     -10.755  11.076  67.493  1.00  0.00    -0.244 A  
BRANCH   6  10
HETATM   10  N   UNL     1     -11.859  13.238  64.922  1.00  0.00    -0.345 NA 
HETATM   11  C   UNL     1     -11.343  12.541  63.757  1.00  0.00    -0.466 C  
HETATM   12  C   UNL     1     -12.054  14.671  64.797  1.00  0.00    -0.421 C  
ENDBRANCH   6  10
BRANCH   9  13
HETATM   13  N   UNL     1     -10.102   9.865  67.614  1.00  0.00    -0.185 NA 
HETATM   14  C   UNL     1      -9.454   9.506  68.862  1.00  0.00    -0.155 C  
HETATM   15  C   UNL     1     -10.367   8.800  66.667  1.00  0.00    -0.228 C  
ENDBRANCH   9  13
ENDBRANCH   2   4
TORSDOF 3
ENDMDL
MODEL       71
REMARK 921   NORMALIZED FREE ENERGY PREDICTED BY IDOCK:   -3.84 KCAL/MOL
REMARK 922        TOTAL FREE ENERGY PREDICTED BY IDOCK:   -4.78 KCAL/MOL
REMARK 923 INTER-LIGAND FREE ENERGY PREDICTED BY IDOCK:   -4.51 KCAL/MOL
REMARK 924 INTRA-LIGAND FREE ENERGY PREDICTED BY IDOCK:   -0.27 KCAL/MOL
REMARK 927      BINDING AFFINITY PREDICTED BY RF-SCORE:    0.00 PKD
ROOT
HETATM    1  C   UNL     1      -8.431  19.750  65.969  1.00  0.00    -0.281 C  
HETATM    2  N   UNL     1      -9.602  18.919  66.168  1.00  0.00    -0.468 NA 
HETATM    3  C   UNL     1     -10.785  19.467  66.794  1.00  0.00    -0.460 C  
ENDROOT
BRANCH   2   4
HETATM    4  C   UNL     1      -9.409  17.548  66.257  1.00  0.00    -0.209 A  
HETATM    5  N   UNL     1     -10.403  16.728  65.927  1.00  0.00    -0.428 NA 
HETATM    6  C   UNL     1     -10.185  15.427  66.059  1.00  0.00    -0.324 A  
HETATM    7  N   UNL     1      -9.033  14.939  66.507  1.00  0.00    -0.271 NA 
HETATM    8  N   UNL     1      -8.235  17.109  66.688  1.00  0.00    -0.233 NA 
HETATM    9  C   UNL     1      -8.070  15.802  66.809  1.00  0.00    -0.262 A  
BRANCH   6  10
HETATM   10  N   UNL     1     -11.160  14.531  65.652  1.00  0.00    -0.317 NA 
HETATM   11  C   UNL     1     -11.962  13.845  66.649  1.00  0.00    -0.442 C  
HETATM   12  C   UNL     1     -11.023  13.886  64.360  1.00  0.00    -0.308 C  
ENDBRANCH   6  10
BRANCH   9  13
HETATM   13  N   UNL     1      -6.876  15.319  67.307  1.00  0.00    -0.262 NA 
HETATM   14  C   UNL     1      -5.707  16.176  67.363  1.00  0.00    -0.117 C  
HETATM   15  C   UNL     1      -6.860  14.113  68.112  1.00  0.00    -0.129 C  
ENDBRANCH   9  13
ENDBRANCH   2   4
TORSDOF 3
ENDMDL
MODEL       72
REMARK 921   NORMALIZED FREE ENERGY PREDICTED BY IDOCK:   -3.82 KCAL/MOL
REMARK 922        TOTAL FREE ENERGY PREDICTED BY IDOCK:   -4.75 KCAL/MOL
REMARK 923 INTER-LIGAND FREE ENERGY PREDICTED BY IDOCK:   -4.50 KCAL/MOL
REMARK 924 INTRA-LIGAND FREE ENERGY PREDICTED BY IDOCK:   -0.25 KCAL/MOL
REMARK 927      BINDING AFFINITY PREDICTED BY RF-SCORE:    0.00 PKD
ROOT
HETATM    1  C   UNL     1      -7.430  14.648  69.327  1.00  0.00    -0.132 C  
HETATM    2  N   UNL     1      -7.112  15.090  67.984  1.00  0.00    -0.118 NA 
HETATM    3  C   UNL     1      -5.767  15.509  67.655  1.00  0.00    -0.092 C  
ENDROOT
BRANCH   2   4
HETATM    4  C   UNL     1      -8.147  15.601  67.214  1.00  0.00    -0.195 A  
HETATM    5  N   UNL     1      -8.995  14.763  66.624  1.00  0.00    -0.265 NA 
HETATM    6  C   UNL     1      -9.948  15.294  65.871  1.00  0.00    -0.340 A  
HETATM    7  N   UNL     1     -10.067  16.605  65.691  1.00  0.00    -0.561 NA 
HETATM    8  N   UNL     1      -8.237  16.917  67.083  1.00  0.00    -0.182 NA 
HETATM    9  C   UNL     1      -9.201  17.397  66.315  1.00  0.00    -0.208 A  
BRANCH   6  10
HETATM   10  N   UNL     1     -10.902  14.467  65.302  1.00  0.00    -0.342 NA 
HETATM   11  C   UNL     1     -12.145  14.216  66.009  1.00  0.00    -0.432 C  
HETATM   12  C   UNL     1     -10.479  13.467  64.340  1.00  0.00    -0.346 C  
ENDBRANCH   6  10
BRANCH   9  13
HETATM   13  N   UNL     1      -9.286  18.761  66.117  1.00  0.00    -0.472 NA 
HETATM   14  C   UNL     1     -10.579  19.417  66.088  1.00  0.00    -0.477 C  
HETATM   15  C   UNL     1      -8.116  19.596  66.310  1.00  0.00    -0.334 C  
ENDBRANCH   9  13
ENDBRANCH   2   4
TORSDOF 3
ENDMDL
MODEL       73
REMARK 921   NORMALIZED FREE ENERGY PREDICTED BY IDOCK:   -3.81 KCAL/MOL
REMARK 922        TOTAL FREE ENERGY PREDICTED BY IDOCK:   -4.74 KCAL/MOL
REMARK 923 INTER-LIGAND FREE ENERGY PREDICTED BY IDOCK:   -4.50 KCAL/MOL
REMARK 924 INTRA-LIGAND FREE ENERGY PREDICTED BY IDOCK:   -0.25 KCAL/MOL
REMARK 927      BINDING AFFINITY PREDICTED BY RF-SCORE:    0.00 PKD
ROOT
HETATM    1  C   UNL     1     -12.645  12.384  64.111  1.00  0.00    -0.403 C  
HETATM    2  N   UNL     1     -12.201  13.453  64.984  1.00  0.00    -0.399 NA 
HETATM    3  C   UNL     1     -12.086  14.804  64.481  1.00  0.00    -0.446 C  
ENDROOT
BRANCH   2   4
HETATM    4  C   UNL     1     -11.414  13.107  66.073  1.00  0.00    -0.335 A  
HETATM    5  N   UNL     1     -11.817  12.135  66.886  1.00  0.00    -0.601 NA 
HETATM    6  C   UNL     1     -11.051  11.861  67.932  1.00  0.00    -0.242 A  
HETATM    7  N   UNL     1      -9.926  12.523  68.184  1.00  0.00    -0.219 NA 
HETATM    8  N   UNL     1     -10.290  13.782  66.270  1.00  0.00    -0.287 NA 
HETATM    9  C   UNL     1      -9.564  13.476  67.332  1.00  0.00    -0.227 A  
BRANCH   6  10
HETATM   10  N   UNL     1     -11.386  10.804  68.761  1.00  0.00    -0.269 NA 
HETATM   11  C   UNL     1     -12.159  11.054  69.964  1.00  0.00    -0.364 C  
HETATM   12  C   UNL     1     -10.557   9.613  68.748  1.00  0.00    -0.216 C  
ENDBRANCH   6  10
BRANCH   9  13
HETATM   13  N   UNL     1      -8.416  14.198  67.592  1.00  0.00    -0.172 NA 
HETATM   14  C   UNL     1      -8.502  15.515  68.197  1.00  0.00    -0.147 C  
HETATM   15  C   UNL     1      -7.129  13.531  67.622  1.00  0.00    -0.168 C  
ENDBRANCH   9  13
ENDBRANCH   2   4
TORSDOF 3
ENDMDL
MODEL       74
REMARK 921   NORMALIZED FREE ENERGY PREDICTED BY IDOCK:   -3.81 KCAL/MOL
REMARK 922        TOTAL FREE ENERGY PREDICTED BY IDOCK:   -4.74 KCAL/MOL
REMARK 923 INTER-LIGAND FREE ENERGY PREDICTED BY IDOCK:   -4.45 KCAL/MOL
REMARK 924 INTRA-LIGAND FREE ENERGY PREDICTED BY IDOCK:   -0.28 KCAL/MOL
REMARK 927      BINDING AFFINITY PREDICTED BY RF-SCORE:    0.00 PKD
ROOT
HETATM    1  C   UNL     1     -10.700  14.076  67.959  1.00  0.00    -0.246 C  
HETATM    2  N   UNL     1     -11.641  13.406  68.833  1.00  0.00    -0.291 NA 
HETATM    3  C   UNL     1     -12.358  14.155  69.842  1.00  0.00    -0.327 C  
ENDROOT
BRANCH   2   4
HETATM    4  C   UNL     1     -11.458  12.048  69.054  1.00  0.00    -0.300 A  
HETATM    5  N   UNL     1     -11.772  11.533  70.239  1.00  0.00    -0.320 NA 
HETATM    6  C   UNL     1     -11.549  10.238  70.416  1.00  0.00    -0.328 A  
HETATM    7  N   UNL     1     -11.027   9.469  69.467  1.00  0.00    -0.225 NA 
HETATM    8  N   UNL     1     -10.955  11.318  68.068  1.00  0.00    -0.228 NA 
HETATM    9  C   UNL     1     -10.745  10.032  68.297  1.00  0.00    -0.240 A  
BRANCH   6  10
HETATM   10  N   UNL     1     -11.934   9.640  71.604  1.00  0.00    -0.392 NA 
HETATM   11  C   UNL     1     -11.232   8.457  72.070  1.00  0.00    -0.334 C  
HETATM   12  C   UNL     1     -13.294   9.825  72.073  1.00  0.00    -0.451 C  
ENDBRANCH   6  10
BRANCH   9  13
HETATM   13  N   UNL     1     -10.171   9.259  67.307  1.00  0.00    -0.233 NA 
HETATM   14  C   UNL     1     -10.418   7.830  67.261  1.00  0.00    -0.322 C  
HETATM   15  C   UNL     1      -9.643   9.886  66.111  1.00  0.00    -0.218 C  
ENDBRANCH   9  13
ENDBRANCH   2   4
TORSDOF 3
ENDMDL
MODEL       75
REMARK 921   NORMALIZED FREE ENERGY PREDICTED BY IDOCK:   -3.80 KCAL/MOL
REMARK 922        TOTAL FREE ENERGY PREDICTED BY IDOCK:   -4.72 KCAL/MOL
REMARK 923 INTER-LIGAND FREE ENERGY PREDICTED BY IDOCK:   -4.45 KCAL/MOL
REMARK 924 INTRA-LIGAND FREE ENERGY PREDICTED BY IDOCK:   -0.27 KCAL/MOL
REMARK 927      BINDING AFFINITY PREDICTED BY RF-SCORE:    0.00 PKD
ROOT
HETATM    1  C   UNL     1     -10.319   9.016  68.164  1.00  0.00    -0.214 C  
HETATM    2  N   UNL     1     -10.780  10.281  68.701  1.00  0.00    -0.211 NA 
HETATM    3  C   UNL     1     -11.571  10.312  69.911  1.00  0.00    -0.256 C  
ENDROOT
BRANCH   2   4
HETATM    4  C   UNL     1     -10.921  11.341  67.817  1.00  0.00    -0.252 A  
HETATM    5  N   UNL     1     -10.967  11.098  66.510  1.00  0.00    -0.249 NA 
HETATM    6  C   UNL     1     -11.069  12.143  65.701  1.00  0.00    -0.316 A  
HETATM    7  N   UNL     1     -11.117  13.391  66.153  1.00  0.00    -0.287 NA 
HETATM    8  N   UNL     1     -10.987  12.567  68.318  1.00  0.00    -0.227 NA 
HETATM    9  C   UNL     1     -11.081  13.576  67.468  1.00  0.00    -0.274 A  
BRANCH   6  10
HETATM   10  N   UNL     1     -11.202  11.936  64.339  1.00  0.00    -0.330 NA 
HETATM   11  C   UNL     1     -10.052  11.505  63.564  1.00  0.00    -0.409 C  
HETATM   12  C   UNL     1     -12.252  12.636  63.623  1.00  0.00    -0.536 C  
ENDBRANCH   6  10
BRANCH   9  13
HETATM   13  N   UNL     1     -11.096  14.867  67.959  1.00  0.00    -0.283 NA 
HETATM   14  C   UNL     1     -11.312  15.110  69.373  1.00  0.00    -0.294 C  
HETATM   15  C   UNL     1     -10.536  15.949  67.173  1.00  0.00    -0.316 C  
ENDBRANCH   9  13
ENDBRANCH   2   4
TORSDOF 3
ENDMDL
MODEL       76
REMARK 921   NORMALIZED FREE ENERGY PREDICTED BY IDOCK:   -3.79 KCAL/MOL
REMARK 922        TOTAL FREE ENERGY PREDICTED BY IDOCK:   -4.71 KCAL/MOL
REMARK 923 INTER-LIGAND FREE ENERGY PREDICTED BY IDOCK:   -4.44 KCAL/MOL
REMARK 924 INTRA-LIGAND FREE ENERGY PREDICTED BY IDOCK:   -0.27 KCAL/MOL
REMARK 927      BINDING AFFINITY PREDICTED BY RF-SCORE:    0.00 PKD
ROOT
HETATM    1  C   UNL     1      -9.679  14.018  66.633  1.00  0.00    -0.289 C  
HETATM    2  N   UNL     1     -11.000  13.433  66.754  1.00  0.00    -0.285 NA 
HETATM    3  C   UNL     1     -12.171  14.200  66.391  1.00  0.00    -0.446 C  
ENDROOT
BRANCH   2   4
HETATM    4  C   UNL     1     -11.167  12.408  67.673  1.00  0.00    -0.288 A  
HETATM    5  N   UNL     1     -11.682  12.681  68.868  1.00  0.00    -0.311 NA 
HETATM    6  C   UNL     1     -11.792  11.677  69.726  1.00  0.00    -0.357 A  
HETATM    7  N   UNL     1     -11.404  10.441  69.430  1.00  0.00    -0.250 NA 
HETATM    8  N   UNL     1     -10.785  11.187  67.322  1.00  0.00    -0.243 NA 
HETATM    9  C   UNL     1     -10.909  10.221  68.217  1.00  0.00    -0.255 A  
BRANCH   6  10
HETATM   10  N   UNL     1     -12.397  11.896  70.952  1.00  0.00    -0.356 NA 
HETATM   11  C   UNL     1     -12.994  10.781  71.666  1.00  0.00    -0.476 C  
HETATM   12  C   UNL     1     -12.907  13.220  71.256  1.00  0.00    -0.312 C  
ENDBRANCH   6  10
BRANCH   9  13
HETATM   13  N   UNL     1     -10.469   8.951  67.899  1.00  0.00    -0.234 NA 
HETATM   14  C   UNL     1     -10.434   7.914  68.913  1.00  0.00    -0.190 C  
HETATM   15  C   UNL     1     -10.398   8.533  66.513  1.00  0.00    -0.145 C  
ENDBRANCH   9  13
ENDBRANCH   2   4
TORSDOF 3
ENDMDL
MODEL       77
REMARK 921   NORMALIZED FREE ENERGY PREDICTED BY IDOCK:   -3.78 KCAL/MOL
REMARK 922        TOTAL FREE ENERGY PREDICTED BY IDOCK:   -4.70 KCAL/MOL
REMARK 923 INTER-LIGAND FREE ENERGY PREDICTED BY IDOCK:   -4.45 KCAL/MOL
REMARK 924 INTRA-LIGAND FREE ENERGY PREDICTED BY IDOCK:   -0.26 KCAL/MOL
REMARK 927      BINDING AFFINITY PREDICTED BY RF-SCORE:    0.00 PKD
ROOT
HETATM    1  C   UNL     1      -8.086  18.670  66.348  1.00  0.00    -0.281 C  
HETATM    2  N   UNL     1      -9.300  17.941  66.039  1.00  0.00    -0.527 NA 
HETATM    3  C   UNL     1     -10.568  18.635  65.971  1.00  0.00    -0.365 C  
ENDROOT
BRANCH   2   4
HETATM    4  C   UNL     1      -9.329  16.586  66.334  1.00  0.00    -0.287 A  
HETATM    5  N   UNL     1      -8.419  16.080  67.162  1.00  0.00    -0.182 NA 
HETATM    6  C   UNL     1      -8.464  14.775  67.389  1.00  0.00    -0.201 A  
HETATM    7  N   UNL     1      -9.365  13.983  66.818  1.00  0.00    -0.269 NA 
HETATM    8  N   UNL     1     -10.261  15.841  65.756  1.00  0.00    -0.344 NA 
HETATM    9  C   UNL     1     -10.259  14.543  66.010  1.00  0.00    -0.315 A  
BRANCH   6  10
HETATM   10  N   UNL     1      -7.589  14.215  68.305  1.00  0.00    -0.118 NA 
HETATM   11  C   UNL     1      -7.191  14.979  69.474  1.00  0.00    -0.199 C  
HETATM   12  C   UNL     1      -6.685  13.171  67.863  1.00  0.00    -0.138 C  
ENDBRANCH   6  10
BRANCH   9  13
HETATM   13  N   UNL     1     -11.184  13.734  65.380  1.00  0.00    -0.298 NA 
HETATM   14  C   UNL     1     -12.598  13.872  65.676  1.00  0.00    -0.517 C  
HETATM   15  C   UNL     1     -10.821  13.020  64.171  1.00  0.00    -0.405 C  
ENDBRANCH   9  13
ENDBRANCH   2   4
TORSDOF 3
ENDMDL
MODEL       78
REMARK 921   NORMALIZED FREE ENERGY PREDICTED BY IDOCK:   -3.78 KCAL/MOL
REMARK 922        TOTAL FREE ENERGY PREDICTED BY IDOCK:   -4.70 KCAL/MOL
REMARK 923 INTER-LIGAND FREE ENERGY PREDICTED BY IDOCK:   -4.41 KCAL/MOL
REMARK 924 INTRA-LIGAND FREE ENERGY PREDICTED BY IDOCK:   -0.29 KCAL/MOL
REMARK 927      BINDING AFFINITY PREDICTED BY RF-SCORE:    0.00 PKD
ROOT
HETATM    1  C   UNL     1     -10.451   9.032  67.091  1.00  0.00    -0.263 C  
HETATM    2  N   UNL     1     -10.644  10.419  66.718  1.00  0.00    -0.230 NA 
HETATM    3  C   UNL     1      -9.923  10.978  65.595  1.00  0.00    -0.248 C  
ENDROOT
BRANCH   2   4
HETATM    4  C   UNL     1     -11.070  11.297  67.705  1.00  0.00    -0.277 A  
HETATM    5  N   UNL     1     -11.731  10.823  68.757  1.00  0.00    -0.351 NA 
HETATM    6  C   UNL     1     -12.148  11.701  69.658  1.00  0.00    -0.280 A  
HETATM    7  N   UNL     1     -11.933  13.007  69.533  1.00  0.00    -0.308 NA 
HETATM    8  N   UNL     1     -10.812  12.588  67.545  1.00  0.00    -0.227 NA 
HETATM    9  C   UNL     1     -11.255  13.424  68.469  1.00  0.00    -0.283 A  
BRANCH   6  10
HETATM   10  N   UNL     1     -12.769  11.249  70.809  1.00  0.00    -0.300 NA 
HETATM   11  C   UNL     1     -13.215  12.207  71.805  1.00  0.00    -0.320 C  
HETATM   12  C   UNL     1     -12.496   9.900  71.269  1.00  0.00    -0.381 C  
ENDBRANCH   6  10
BRANCH   9  13
HETATM   13  N   UNL     1     -11.048  14.780  68.302  1.00  0.00    -0.263 NA 
HETATM   14  C   UNL     1     -10.702  15.311  66.997  1.00  0.00    -0.313 C  
HETATM   15  C   UNL     1     -11.529  15.715  69.300  1.00  0.00    -0.362 C  
ENDBRANCH   9  13
ENDBRANCH   2   4
TORSDOF 3
ENDMDL
MODEL       79
REMARK 921   NORMALIZED FREE ENERGY PREDICTED BY IDOCK:   -3.77 KCAL/MOL
REMARK 922        TOTAL FREE ENERGY PREDICTED BY IDOCK:   -4.69 KCAL/MOL
REMARK 923 INTER-LIGAND FREE ENERGY PREDICTED BY IDOCK:   -4.42 KCAL/MOL
REMARK 924 INTRA-LIGAND FREE ENERGY PREDICTED BY IDOCK:   -0.28 KCAL/MOL
REMARK 927      BINDING AFFINITY PREDICTED BY RF-SCORE:    0.00 PKD
ROOT
HETATM    1  C   UNL     1     -12.640  15.817  71.252  1.00  0.00    -0.446 C  
HETATM    2  N   UNL     1     -12.625  14.463  70.733  1.00  0.00    -0.338 NA 
HETATM    3  C   UNL     1     -12.882  13.345  71.613  1.00  0.00    -0.321 C  
ENDROOT
BRANCH   2   4
HETATM    4  C   UNL     1     -11.874  14.220  69.593  1.00  0.00    -0.318 A  
HETATM    5  N   UNL     1     -11.406  12.996  69.369  1.00  0.00    -0.237 NA 
HETATM    6  C   UNL     1     -10.665  12.818  68.285  1.00  0.00    -0.239 A  
HETATM    7  N   UNL     1     -10.381  13.808  67.445  1.00  0.00    -0.251 NA 
HETATM    8  N   UNL     1     -11.637  15.236  68.774  1.00  0.00    -0.345 NA 
HETATM    9  C   UNL     1     -10.886  15.008  67.709  1.00  0.00    -0.284 A  
BRANCH   6  10
HETATM   10  N   UNL     1     -10.223  11.545  67.967  1.00  0.00    -0.186 NA 
HETATM   11  C   UNL     1      -8.879  11.362  67.447  1.00  0.00    -0.150 C  
HETATM   12  C   UNL     1     -11.201  10.526  67.633  1.00  0.00    -0.265 C  
ENDBRANCH   6  10
BRANCH   9  13
HETATM   13  N   UNL     1     -10.577  16.059  66.867  1.00  0.00    -0.314 NA 
HETATM   14  C   UNL     1     -10.607  15.877  65.428  1.00  0.00    -0.419 C  
HETATM   15  C   UNL     1     -10.591  17.419  67.370  1.00  0.00    -0.308 C  
ENDBRANCH   9  13
ENDBRANCH   2   4
TORSDOF 3
ENDMDL
MODEL       80
REMARK 921   NORMALIZED FREE ENERGY PREDICTED BY IDOCK:   -3.76 KCAL/MOL
REMARK 922        TOTAL FREE ENERGY PREDICTED BY IDOCK:   -4.68 KCAL/MOL
REMARK 923 INTER-LIGAND FREE ENERGY PREDICTED BY IDOCK:   -4.40 KCAL/MOL
REMARK 924 INTRA-LIGAND FREE ENERGY PREDICTED BY IDOCK:   -0.27 KCAL/MOL
REMARK 927      BINDING AFFINITY PREDICTED BY RF-SCORE:    0.00 PKD
ROOT
HETATM    1  C   UNL     1      -7.578  17.436  66.246  1.00  0.00    -0.313 C  
HETATM    2  N   UNL     1      -8.951  17.016  66.051  1.00  0.00    -0.515 NA 
HETATM    3  C   UNL     1     -10.037  17.932  66.324  1.00  0.00    -0.351 C  
ENDROOT
BRANCH   2   4
HETATM    4  C   UNL     1      -9.225  15.659  66.127  1.00  0.00    -0.343 A  
HETATM    5  N   UNL     1     -10.127  15.129  65.306  1.00  0.00    -0.347 NA 
HETATM    6  C   UNL     1     -10.381  13.835  65.436  1.00  0.00    -0.333 A  
HETATM    7  N   UNL     1      -9.778  13.079  66.348  1.00  0.00    -0.265 NA 
HETATM    8  N   UNL     1      -8.581  14.942  67.038  1.00  0.00    -0.226 NA 
HETATM    9  C   UNL     1      -8.875  13.656  67.133  1.00  0.00    -0.230 A  
BRANCH   6  10
HETATM   10  N   UNL     1     -11.252  13.221  64.552  1.00  0.00    -0.346 NA 
HETATM   11  C   UNL     1     -10.819  12.044  63.821  1.00  0.00    -0.420 C  
HETATM   12  C   UNL     1     -12.318  14.007  63.961  1.00  0.00    -0.298 C  
ENDBRANCH   6  10
BRANCH   9  13
HETATM   13  N   UNL     1      -8.260  12.897  68.109  1.00  0.00    -0.156 NA 
HETATM   14  C   UNL     1      -8.623  11.504  68.290  1.00  0.00    -0.161 C  
HETATM   15  C   UNL     1      -7.013  13.345  68.698  1.00  0.00    -0.101 C  
ENDBRANCH   9  13
ENDBRANCH   2   4
TORSDOF 3
ENDMDL
MODEL       81
REMARK 921   NORMALIZED FREE ENERGY PREDICTED BY IDOCK:   -3.74 KCAL/MOL
REMARK 922        TOTAL FREE ENERGY PREDICTED BY IDOCK:   -4.66 KCAL/MOL
REMARK 923 INTER-LIGAND FREE ENERGY PREDICTED BY IDOCK:   -4.41 KCAL/MOL
REMARK 924 INTRA-LIGAND FREE ENERGY PREDICTED BY IDOCK:   -0.25 KCAL/MOL
REMARK 927      BINDING AFFINITY PREDICTED BY RF-SCORE:    0.00 PKD
ROOT
HETATM    1  C   UNL     1     -12.297  12.137  63.340  1.00  0.00    -0.538 C  
HETATM    2  N   UNL     1     -10.952  12.333  63.844  1.00  0.00    -0.367 NA 
HETATM    3  C   UNL     1      -9.849  11.584  63.283  1.00  0.00    -0.409 C  
ENDROOT
BRANCH   2   4
HETATM    4  C   UNL     1     -10.815  12.797  65.144  1.00  0.00    -0.291 A  
HETATM    5  N   UNL     1     -10.778  14.107  65.368  1.00  0.00    -0.322 NA 
HETATM    6  C   UNL     1     -10.612  14.505  66.621  1.00  0.00    -0.283 A  
HETATM    7  N   UNL     1     -10.477  13.649  67.628  1.00  0.00    -0.237 NA 
HETATM    8  N   UNL     1     -10.705  11.903  66.117  1.00  0.00    -0.268 NA 
HETATM    9  C   UNL     1     -10.534  12.351  67.350  1.00  0.00    -0.215 A  
BRANCH   6  10
HETATM   10  N   UNL     1     -10.649  15.858  66.914  1.00  0.00    -0.314 NA 
HETATM   11  C   UNL     1     -10.623  16.826  65.833  1.00  0.00    -0.248 C  
HETATM   12  C   UNL     1     -10.177  16.307  68.211  1.00  0.00    -0.253 C  
ENDBRANCH   6  10
BRANCH   9  13
HETATM   13  N   UNL     1     -10.363  11.443  68.377  1.00  0.00    -0.188 NA 
HETATM   14  C   UNL     1      -9.037  10.961  68.714  1.00  0.00    -0.171 C  
HETATM   15  C   UNL     1     -11.414  11.248  69.356  1.00  0.00    -0.301 C  
ENDBRANCH   9  13
ENDBRANCH   2   4
TORSDOF 3
ENDMDL
MODEL       82
REMARK 921   NORMALIZED FREE ENERGY PREDICTED BY IDOCK:   -3.69 KCAL/MOL
REMARK 922        TOTAL FREE ENERGY PREDICTED BY IDOCK:   -4.60 KCAL/MOL
REMARK 923 INTER-LIGAND FREE ENERGY PREDICTED BY IDOCK:   -4.32 KCAL/MOL
REMARK 924 INTRA-LIGAND FREE ENERGY PREDICTED BY IDOCK:   -0.28 KCAL/MOL
REMARK 927      BINDING AFFINITY PREDICTED BY RF-SCORE:    0.00 PKD
ROOT
HETATM    1  C   UNL     1     -10.568  16.159  67.171  1.00  0.00    -0.294 C  
HETATM    2  N   UNL     1     -10.887  14.982  67.954  1.00  0.00    -0.272 NA 
HETATM    3  C   UNL     1     -10.726  14.999  69.391  1.00  0.00    -0.261 C  
ENDROOT
BRANCH   2   4
HETATM    4  C   UNL     1     -10.823  13.751  67.318  1.00  0.00    -0.285 A  
HETATM    5  N   UNL     1     -10.612  12.654  68.040  1.00  0.00    -0.215 NA 
HETATM    6  C   UNL     1     -10.525  11.505  67.387  1.00  0.00    -0.209 A  
HETATM    7  N   UNL     1     -10.633  11.426  66.065  1.00  0.00    -0.261 NA 
HETATM    8  N   UNL     1     -10.958  13.723  65.999  1.00  0.00    -0.283 NA 
HETATM    9  C   UNL     1     -10.856  12.551  65.393  1.00  0.00    -0.282 A  
BRANCH   6  10
HETATM   10  N   UNL     1     -10.388  10.327  68.102  1.00  0.00    -0.167 NA 
HETATM   11  C   UNL     1      -9.667  10.334  69.362  1.00  0.00    -0.222 C  
HETATM   12  C   UNL     1     -10.456   9.064  67.391  1.00  0.00    -0.269 C  
ENDBRANCH   6  10
BRANCH   9  13
HETATM   13  N   UNL     1     -10.938  12.498  64.015  1.00  0.00    -0.365 NA 
HETATM   14  C   UNL     1     -10.062  11.619  63.264  1.00  0.00    -0.423 C  
HETATM   15  C   UNL     1     -12.114  13.009  63.339  1.00  0.00    -0.515 C  
ENDBRANCH   9  13
ENDBRANCH   2   4
TORSDOF 3
ENDMDL
MODEL       83
REMARK 921   NORMALIZED FREE ENERGY PREDICTED BY IDOCK:   -3.67 KCAL/MOL
REMARK 922        TOTAL FREE ENERGY PREDICTED BY IDOCK:   -4.58 KCAL/MOL
REMARK 923 INTER-LIGAND FREE ENERGY PREDICTED BY IDOCK:   -4.33 KCAL/MOL
REMARK 924 INTRA-LIGAND FREE ENERGY PREDICTED BY IDOCK:   -0.25 KCAL/MOL
REMARK 927      BINDING AFFINITY PREDICTED BY RF-SCORE:    0.00 PKD
ROOT
HETATM    1  C   UNL     1     -10.451  16.554  68.239  1.00  0.00    -0.313 C  
HETATM    2  N   UNL     1      -9.734  15.885  67.171  1.00  0.00    -0.222 NA 
HETATM    3  C   UNL     1      -9.163  16.653  66.086  1.00  0.00    -0.277 C  
ENDROOT
BRANCH   2   4
HETATM    4  C   UNL     1     -10.049  14.558  66.918  1.00  0.00    -0.257 A  
HETATM    5  N   UNL     1     -10.303  14.175  65.670  1.00  0.00    -0.317 NA 
HETATM    6  C   UNL     1     -10.632  12.905  65.480  1.00  0.00    -0.279 A  
HETATM    7  N   UNL     1     -10.721  12.034  66.480  1.00  0.00    -0.248 NA 
HETATM    8  N   UNL     1     -10.103  13.723  67.947  1.00  0.00    -0.240 NA 
HETATM    9  C   UNL     1     -10.444  12.468  67.705  1.00  0.00    -0.220 A  
BRANCH   6  10
HETATM   10  N   UNL     1     -10.826  12.440  64.190  1.00  0.00    -0.340 NA 
HETATM   11  C   UNL     1     -12.048  12.780  63.483  1.00  0.00    -0.559 C  
HETATM   12  C   UNL     1     -10.135  11.236  63.769  1.00  0.00    -0.361 C  
ENDBRANCH   6  10
BRANCH   9  13
HETATM   13  N   UNL     1     -10.561  11.588  68.764  1.00  0.00    -0.206 NA 
HETATM   14  C   UNL     1     -11.870  11.160  69.217  1.00  0.00    -0.352 C  
HETATM   15  C   UNL     1      -9.417  10.802  69.184  1.00  0.00    -0.134 C  
ENDBRANCH   9  13
ENDBRANCH   2   4
TORSDOF 3
ENDMDL
MODEL       84
REMARK 921   NORMALIZED FREE ENERGY PREDICTED BY IDOCK:   -3.67 KCAL/MOL
REMARK 922        TOTAL FREE ENERGY PREDICTED BY IDOCK:   -4.57 KCAL/MOL
REMARK 923 INTER-LIGAND FREE ENERGY PREDICTED BY IDOCK:   -4.31 KCAL/MOL
REMARK 924 INTRA-LIGAND FREE ENERGY PREDICTED BY IDOCK:   -0.25 KCAL/MOL
REMARK 927      BINDING AFFINITY PREDICTED BY RF-SCORE:    0.00 PKD
ROOT
HETATM    1  C   UNL     1     -12.129  13.850  69.656  1.00  0.00    -0.349 C  
HETATM    2  N   UNL     1     -11.573  15.020  70.307  1.00  0.00    -0.270 NA 
HETATM    3  C   UNL     1     -12.312  15.690  71.355  1.00  0.00    -0.426 C  
ENDROOT
BRANCH   2   4
HETATM    4  C   UNL     1     -10.647  15.771  69.598  1.00  0.00    -0.295 A  
HETATM    5  N   UNL     1     -11.058  16.834  68.913  1.00  0.00    -0.251 NA 
HETATM    6  C   UNL     1     -10.144  17.502  68.223  1.00  0.00    -0.346 A  
HETATM    7  N   UNL     1      -8.866  17.138  68.194  1.00  0.00    -0.230 NA 
HETATM    8  N   UNL     1      -9.380  15.380  69.618  1.00  0.00    -0.253 NA 
HETATM    9  C   UNL     1      -8.508  16.076  68.907  1.00  0.00    -0.232 A  
BRANCH   6  10
HETATM   10  N   UNL     1     -10.508  18.662  67.561  1.00  0.00    -0.410 NA 
HETATM   11  C   UNL     1     -10.496  18.692  66.109  1.00  0.00    -0.430 C  
HETATM   12  C   UNL     1     -10.367  19.934  68.245  1.00  0.00    -0.393 C  
ENDBRANCH   6  10
BRANCH   9  13
HETATM   13  N   UNL     1      -7.191  15.660  68.866  1.00  0.00    -0.135 NA 
HETATM   14  C   UNL     1      -6.234  16.347  68.019  1.00  0.00    -0.124 C  
HETATM   15  C   UNL     1      -6.666  14.808  69.914  1.00  0.00    -0.172 C  
ENDBRANCH   9  13
ENDBRANCH   2   4
TORSDOF 3
ENDMDL
MODEL       85
REMARK 921   NORMALIZED FREE ENERGY PREDICTED BY IDOCK:   -3.66 KCAL/MOL
REMARK 922        TOTAL FREE ENERGY PREDICTED BY IDOCK:   -4.56 KCAL/MOL
REMARK 923 INTER-LIGAND FREE ENERGY PREDICTED BY IDOCK:   -4.30 KCAL/MOL
REMARK 924 INTRA-LIGAND FREE ENERGY PREDICTED BY IDOCK:   -0.26 KCAL/MOL
REMARK 927      BINDING AFFINITY PREDICTED BY RF-SCORE:    0.00 PKD
ROOT
HETATM    1  C   UNL     1     -12.897  13.802  65.516  1.00  0.00    -0.419 C  
HETATM    2  N   UNL     1     -11.620  13.742  64.832  1.00  0.00    -0.337 NA 
HETATM    3  C   UNL     1     -11.410  12.787  63.767  1.00  0.00    -0.461 C  
ENDROOT
BRANCH   2   4
HETATM    4  C   UNL     1     -10.502  14.189  65.520  1.00  0.00    -0.339 A  
HETATM    5  N   UNL     1      -9.736  13.311  66.160  1.00  0.00    -0.275 NA 
HETATM    6  C   UNL     1      -8.696  13.787  66.831  1.00  0.00    -0.154 A  
HETATM    7  N   UNL     1      -8.416  15.085  66.883  1.00  0.00    -0.237 NA 
HETATM    8  N   UNL     1     -10.252  15.492  65.524  1.00  0.00    -0.367 NA 
HETATM    9  C   UNL     1      -9.206  15.917  66.214  1.00  0.00    -0.337 A  
BRANCH   6  10
HETATM   10  N   UNL     1      -7.824  12.905  67.446  1.00  0.00    -0.174 NA 
HETATM   11  C   UNL     1      -8.025  11.475  67.292  1.00  0.00    -0.153 C  
HETATM   12  C   UNL     1      -7.097  13.344  68.622  1.00  0.00    -0.106 C  
ENDBRANCH   6  10
BRANCH   9  13
HETATM   13  N   UNL     1      -8.953  17.273  66.282  1.00  0.00    -0.416 NA 
HETATM   14  C   UNL     1      -7.660  17.796  65.882  1.00  0.00    -0.135 C  
HETATM   15  C   UNL     1     -10.053  18.213  66.382  1.00  0.00    -0.389 C  
ENDBRANCH   9  13
ENDBRANCH   2   4
TORSDOF 3
ENDMDL
MODEL       86
REMARK 921   NORMALIZED FREE ENERGY PREDICTED BY IDOCK:   -3.66 KCAL/MOL
REMARK 922        TOTAL FREE ENERGY PREDICTED BY IDOCK:   -4.56 KCAL/MOL
REMARK 923 INTER-LIGAND FREE ENERGY PREDICTED BY IDOCK:   -4.30 KCAL/MOL
REMARK 924 INTRA-LIGAND FREE ENERGY PREDICTED BY IDOCK:   -0.27 KCAL/MOL
REMARK 927      BINDING AFFINITY PREDICTED BY RF-SCORE:    0.00 PKD
ROOT
HETATM    1  C   UNL     1     -12.967  15.496  70.803  1.00  0.00    -0.434 C  
HETATM    2  N   UNL     1     -12.547  14.189  70.337  1.00  0.00    -0.347 NA 
HETATM    3  C   UNL     1     -12.470  13.079  71.261  1.00  0.00    -0.218 C  
ENDROOT
BRANCH   2   4
HETATM    4  C   UNL     1     -11.747  14.137  69.205  1.00  0.00    -0.323 A  
HETATM    5  N   UNL     1     -10.986  15.182  68.896  1.00  0.00    -0.242 NA 
HETATM    6  C   UNL     1     -10.264  15.101  67.788  1.00  0.00    -0.236 A  
HETATM    7  N   UNL     1     -10.288  14.033  66.998  1.00  0.00    -0.266 NA 
HETATM    8  N   UNL     1     -11.790  13.040  68.461  1.00  0.00    -0.330 NA 
HETATM    9  C   UNL     1     -11.056  13.011  67.361  1.00  0.00    -0.272 A  
BRANCH   6  10
HETATM   10  N   UNL     1      -9.395  16.130  67.467  1.00  0.00    -0.216 NA 
HETATM   11  C   UNL     1      -9.366  17.326  68.291  1.00  0.00    -0.272 C  
HETATM   12  C   UNL     1      -8.947  16.267  66.094  1.00  0.00    -0.339 C  
ENDBRANCH   6  10
BRANCH   9  13
HETATM   13  N   UNL     1     -11.122  11.903  66.539  1.00  0.00    -0.293 NA 
HETATM   14  C   UNL     1     -11.621  12.029  65.182  1.00  0.00    -0.272 C  
HETATM   15  C   UNL     1     -10.366  10.710  66.865  1.00  0.00    -0.236 C  
ENDBRANCH   9  13
ENDBRANCH   2   4
TORSDOF 3
ENDMDL
MODEL       87
REMARK 921   NORMALIZED FREE ENERGY PREDICTED BY IDOCK:   -3.66 KCAL/MOL
REMARK 922        TOTAL FREE ENERGY PREDICTED BY IDOCK:   -4.56 KCAL/MOL
REMARK 923 INTER-LIGAND FREE ENERGY PREDICTED BY IDOCK:   -4.29 KCAL/MOL
REMARK 924 INTRA-LIGAND FREE ENERGY PREDICTED BY IDOCK:   -0.27 KCAL/MOL
REMARK 927      BINDING AFFINITY PREDICTED BY RF-SCORE:    0.00 PKD
ROOT
HETATM    1  C   UNL     1      -9.319   4.920  68.933  1.00  0.00    -0.129 C  
HETATM    2  N   UNL     1     -10.522   5.728  68.905  1.00  0.00    -0.237 NA 
HETATM    3  C   UNL     1     -10.969   6.324  67.665  1.00  0.00    -0.342 C  
ENDROOT
BRANCH   2   4
HETATM    4  C   UNL     1     -10.912   6.342  70.086  1.00  0.00    -0.347 A  
HETATM    5  N   UNL     1     -11.452   7.556  70.042  1.00  0.00    -0.105 NA 
HETATM    6  C   UNL     1     -11.779   8.117  71.197  1.00  0.00    -0.283 A  
HETATM    7  N   UNL     1     -11.576   7.516  72.364  1.00  0.00    -0.307 NA 
HETATM    8  N   UNL     1     -10.708   5.691  71.224  1.00  0.00    -0.255 NA 
HETATM    9  C   UNL     1     -11.045   6.298  72.350  1.00  0.00    -0.270 A  
BRANCH   6  10
HETATM   10  N   UNL     1     -12.419   9.345  71.198  1.00  0.00    -0.308 NA 
HETATM   11  C   UNL     1     -11.716  10.519  70.712  1.00  0.00    -0.356 C  
HETATM   12  C   UNL     1     -13.504   9.569  72.134  1.00  0.00    -0.456 C  
ENDBRANCH   6  10
BRANCH   9  13
HETATM   13  N   UNL     1     -10.795   5.667  73.553  1.00  0.00    -0.274 NA 
HETATM   14  C   UNL     1     -10.992   4.235  73.682  1.00  0.00    -0.282 C  
HETATM   15  C   UNL     1      -9.994   6.327  74.566  1.00  0.00    -0.341 C  
ENDBRANCH   9  13
ENDBRANCH   2   4
TORSDOF 3
ENDMDL
MODEL       88
REMARK 921   NORMALIZED FREE ENERGY PREDICTED BY IDOCK:   -3.64 KCAL/MOL
REMARK 922        TOTAL FREE ENERGY PREDICTED BY IDOCK:   -4.54 KCAL/MOL
REMARK 923 INTER-LIGAND FREE ENERGY PREDICTED BY IDOCK:   -4.27 KCAL/MOL
REMARK 924 INTRA-LIGAND FREE ENERGY PREDICTED BY IDOCK:   -0.27 KCAL/MOL
REMARK 927      BINDING AFFINITY PREDICTED BY RF-SCORE:    0.00 PKD
ROOT
HETATM    1  C   UNL     1     -10.865   7.991  72.487  1.00  0.00    -0.349 C  
HETATM    2  N   UNL     1     -11.857   8.886  71.927  1.00  0.00    -0.349 NA 
HETATM    3  C   UNL     1     -13.263   8.673  72.194  1.00  0.00    -0.383 C  
ENDROOT
BRANCH   2   4
HETATM    4  C   UNL     1     -11.524   9.570  70.767  1.00  0.00    -0.310 A  
HETATM    5  N   UNL     1     -11.833  10.859  70.658  1.00  0.00    -0.347 NA 
HETATM    6  C   UNL     1     -11.525  11.463  69.519  1.00  0.00    -0.312 A  
HETATM    7  N   UNL     1     -10.940  10.827  68.510  1.00  0.00    -0.223 NA 
HETATM    8  N   UNL     1     -10.921   8.896  69.797  1.00  0.00    -0.202 NA 
HETATM    9  C   UNL     1     -10.641   9.543  68.677  1.00  0.00    -0.210 A  
BRANCH   6  10
HETATM   10  N   UNL     1     -11.753  12.823  69.389  1.00  0.00    -0.308 NA 
HETATM   11  C   UNL     1     -12.242  13.579  70.528  1.00  0.00    -0.361 C  
HETATM   12  C   UNL     1     -12.032  13.363  68.072  1.00  0.00    -0.322 C  
ENDBRANCH   6  10
BRANCH   9  13
HETATM   13  N   UNL     1     -10.062   8.853  67.630  1.00  0.00    -0.203 NA 
HETATM   14  C   UNL     1     -10.064   9.417  66.293  1.00  0.00    -0.258 C  
HETATM   15  C   UNL     1      -9.136   7.770  67.898  1.00  0.00    -0.131 C  
ENDBRANCH   9  13
ENDBRANCH   2   4
TORSDOF 3
ENDMDL
MODEL       89
REMARK 921   NORMALIZED FREE ENERGY PREDICTED BY IDOCK:   -3.64 KCAL/MOL
REMARK 922        TOTAL FREE ENERGY PREDICTED BY IDOCK:   -4.54 KCAL/MOL
REMARK 923 INTER-LIGAND FREE ENERGY PREDICTED BY IDOCK:   -4.28 KCAL/MOL
REMARK 924 INTRA-LIGAND FREE ENERGY PREDICTED BY IDOCK:   -0.26 KCAL/MOL
REMARK 927      BINDING AFFINITY PREDICTED BY RF-SCORE:    0.00 PKD
ROOT
HETATM    1  C   UNL     1      -9.924  13.764  66.420  1.00  0.00    -0.297 C  
HETATM    2  N   UNL     1     -11.067  12.900  66.641  1.00  0.00    -0.276 NA 
HETATM    3  C   UNL     1     -12.270  13.073  65.858  1.00  0.00    -0.432 C  
ENDROOT
BRANCH   2   4
HETATM    4  C   UNL     1     -11.196  12.312  67.891  1.00  0.00    -0.274 A  
HETATM    5  N   UNL     1     -10.736  11.079  68.081  1.00  0.00    -0.190 NA 
HETATM    6  C   UNL     1     -10.911  10.545  69.281  1.00  0.00    -0.244 A  
HETATM    7  N   UNL     1     -11.525  11.191  70.267  1.00  0.00    -0.279 NA 
HETATM    8  N   UNL     1     -11.796  13.007  68.848  1.00  0.00    -0.317 NA 
HETATM    9  C   UNL     1     -11.952  12.426  70.026  1.00  0.00    -0.299 A  
BRANCH   6  10
HETATM   10  N   UNL     1     -10.379   9.296  69.552  1.00  0.00    -0.208 NA 
HETATM   11  C   UNL     1      -9.245   9.180  70.452  1.00  0.00    -0.233 C  
HETATM   12  C   UNL     1     -10.559   8.232  68.582  1.00  0.00    -0.108 C  
ENDBRANCH   6  10
BRANCH   9  13
HETATM   13  N   UNL     1     -12.622  13.105  71.026  1.00  0.00    -0.353 NA 
HETATM   14  C   UNL     1     -12.946  14.510  70.865  1.00  0.00    -0.361 C  
HETATM   15  C   UNL     1     -13.330  12.368  72.054  1.00  0.00    -0.407 C  
ENDBRANCH   9  13
ENDBRANCH   2   4
TORSDOF 3
ENDMDL
MODEL       90
REMARK 921   NORMALIZED FREE ENERGY PREDICTED BY IDOCK:   -3.63 KCAL/MOL
REMARK 922        TOTAL FREE ENERGY PREDICTED BY IDOCK:   -4.53 KCAL/MOL
REMARK 923 INTER-LIGAND FREE ENERGY PREDICTED BY IDOCK:   -4.26 KCAL/MOL
REMARK 924 INTRA-LIGAND FREE ENERGY PREDICTED BY IDOCK:   -0.27 KCAL/MOL
REMARK 927      BINDING AFFINITY PREDICTED BY RF-SCORE:    0.00 PKD
ROOT
HETATM    1  C   UNL     1      -8.849  12.633  68.073  1.00  0.00    -0.195 C  
HETATM    2  N   UNL     1      -8.503  14.015  67.803  1.00  0.00    -0.171 NA 
HETATM    3  C   UNL     1      -7.138  14.373  67.484  1.00  0.00    -0.175 C  
ENDROOT
BRANCH   2   4
HETATM    4  C   UNL     1      -9.311  14.999  68.353  1.00  0.00    -0.193 A  
HETATM    5  N   UNL     1     -10.266  14.654  69.211  1.00  0.00    -0.190 NA 
HETATM    6  C   UNL     1     -11.036  15.623  69.685  1.00  0.00    -0.288 A  
HETATM    7  N   UNL     1     -10.884  16.894  69.326  1.00  0.00    -0.280 NA 
HETATM    8  N   UNL     1      -9.106  16.255  67.980  1.00  0.00    -0.187 NA 
HETATM    9  C   UNL     1      -9.905  17.185  68.476  1.00  0.00    -0.297 A  
BRANCH   6  10
HETATM   10  N   UNL     1     -11.991  15.325  70.642  1.00  0.00    -0.312 NA 
HETATM   11  C   UNL     1     -12.032  16.090  71.875  1.00  0.00    -0.525 C  
HETATM   12  C   UNL     1     -12.551  13.987  70.679  1.00  0.00    -0.344 C  
ENDBRANCH   6  10
BRANCH   9  13
HETATM   13  N   UNL     1      -9.750  18.494  68.064  1.00  0.00    -0.313 NA 
HETATM   14  C   UNL     1      -8.454  19.141  68.157  1.00  0.00    -0.320 C  
HETATM   15  C   UNL     1     -10.743  19.107  67.204  1.00  0.00    -0.471 C  
ENDBRANCH   9  13
ENDBRANCH   2   4
TORSDOF 3
ENDMDL
MODEL       91
REMARK 921   NORMALIZED FREE ENERGY PREDICTED BY IDOCK:   -3.62 KCAL/MOL
REMARK 922        TOTAL FREE ENERGY PREDICTED BY IDOCK:   -4.52 KCAL/MOL
REMARK 923 INTER-LIGAND FREE ENERGY PREDICTED BY IDOCK:   -4.24 KCAL/MOL
REMARK 924 INTRA-LIGAND FREE ENERGY PREDICTED BY IDOCK:   -0.28 KCAL/MOL
REMARK 927      BINDING AFFINITY PREDICTED BY RF-SCORE:    0.00 PKD
ROOT
HETATM    1  C   UNL     1     -12.698  13.962  65.477  1.00  0.00    -0.499 C  
HETATM    2  N   UNL     1     -11.287  14.118  65.187  1.00  0.00    -0.323 NA 
HETATM    3  C   UNL     1     -10.597  13.135  64.380  1.00  0.00    -0.421 C  
ENDROOT
BRANCH   2   4
HETATM    4  C   UNL     1     -10.526  14.861  66.078  1.00  0.00    -0.316 A  
HETATM    5  N   UNL     1     -10.805  16.149  66.256  1.00  0.00    -0.203 NA 
HETATM    6  C   UNL     1     -10.032  16.828  67.091  1.00  0.00    -0.274 A  
HETATM    7  N   UNL     1      -9.009  16.269  67.730  1.00  0.00    -0.192 NA 
HETATM    8  N   UNL     1      -9.531  14.253  66.708  1.00  0.00    -0.264 NA 
HETATM    9  C   UNL     1      -8.784  14.976  67.526  1.00  0.00    -0.184 A  
BRANCH   6  10
HETATM   10  N   UNL     1     -10.332  18.151  67.371  1.00  0.00    -0.373 NA 
HETATM   11  C   UNL     1     -10.579  19.076  66.279  1.00  0.00    -0.412 C  
HETATM   12  C   UNL     1      -9.881  18.721  68.626  1.00  0.00    -0.392 C  
ENDBRANCH   6  10
BRANCH   9  13
HETATM   13  N   UNL     1      -7.707  14.382  68.154  1.00  0.00    -0.119 NA 
HETATM   14  C   UNL     1      -6.975  15.096  69.183  1.00  0.00    -0.147 C  
HETATM   15  C   UNL     1      -7.524  12.945  68.077  1.00  0.00    -0.125 C  
ENDBRANCH   9  13
ENDBRANCH   2   4
TORSDOF 3
ENDMDL
MODEL       92
REMARK 921   NORMALIZED FREE ENERGY PREDICTED BY IDOCK:   -3.61 KCAL/MOL
REMARK 922        TOTAL FREE ENERGY PREDICTED BY IDOCK:   -4.51 KCAL/MOL
REMARK 923 INTER-LIGAND FREE ENERGY PREDICTED BY IDOCK:   -4.24 KCAL/MOL
REMARK 924 INTRA-LIGAND FREE ENERGY PREDICTED BY IDOCK:   -0.27 KCAL/MOL
REMARK 927      BINDING AFFINITY PREDICTED BY RF-SCORE:    0.00 PKD
ROOT
HETATM    1  C   UNL     1      -8.769   7.222  69.684  1.00  0.00    -0.141 C  
HETATM    2  N   UNL     1     -10.217   7.279  69.677  1.00  0.00    -0.205 NA 
HETATM    3  C   UNL     1     -10.985   6.190  69.114  1.00  0.00    -0.381 C  
ENDROOT
BRANCH   2   4
HETATM    4  C   UNL     1     -10.811   8.532  69.706  1.00  0.00    -0.175 A  
HETATM    5  N   UNL     1     -11.562   8.873  70.749  1.00  0.00    -0.278 NA 
HETATM    6  C   UNL     1     -12.136  10.067  70.718  1.00  0.00    -0.327 A  
HETATM    7  N   UNL     1     -11.990  10.903  69.696  1.00  0.00    -0.327 NA 
HETATM    8  N   UNL     1     -10.616   9.339  68.671  1.00  0.00    -0.209 NA 
HETATM    9  C   UNL     1     -11.217  10.517  68.686  1.00  0.00    -0.270 A  
BRANCH   6  10
HETATM   10  N   UNL     1     -12.862  10.500  71.816  1.00  0.00    -0.457 NA 
HETATM   11  C   UNL     1     -13.762   9.579  72.487  1.00  0.00    -0.277 C  
HETATM   12  C   UNL     1     -13.145  11.916  71.955  1.00  0.00    -0.369 C  
ENDBRANCH   6  10
BRANCH   9  13
HETATM   13  N   UNL     1     -11.076  11.356  67.598  1.00  0.00    -0.248 NA 
HETATM   14  C   UNL     1     -10.411  10.889  66.396  1.00  0.00    -0.251 C  
HETATM   15  C   UNL     1     -11.896  12.547  67.489  1.00  0.00    -0.323 C  
ENDBRANCH   9  13
ENDBRANCH   2   4
TORSDOF 3
ENDMDL
MODEL       93
REMARK 921   NORMALIZED FREE ENERGY PREDICTED BY IDOCK:   -3.57 KCAL/MOL
REMARK 922        TOTAL FREE ENERGY PREDICTED BY IDOCK:   -4.45 KCAL/MOL
REMARK 923 INTER-LIGAND FREE ENERGY PREDICTED BY IDOCK:   -4.17 KCAL/MOL
REMARK 924 INTRA-LIGAND FREE ENERGY PREDICTED BY IDOCK:   -0.29 KCAL/MOL
REMARK 927      BINDING AFFINITY PREDICTED BY RF-SCORE:    0.00 PKD
ROOT
HETATM    1  C   UNL     1     -11.821  10.522  70.490  1.00  0.00    -0.347 C  
HETATM    2  N   UNL     1     -10.790   9.956  69.642  1.00  0.00    -0.240 NA 
HETATM    3  C   UNL     1      -9.562   9.460  70.223  1.00  0.00    -0.249 C  
ENDROOT
BRANCH   2   4
HETATM    4  C   UNL     1     -10.751  10.366  68.318  1.00  0.00    -0.235 A  
HETATM    5  N   UNL     1      -9.975   9.714  67.457  1.00  0.00    -0.173 NA 
HETATM    6  C   UNL     1      -9.943  10.161  66.209  1.00  0.00    -0.242 A  
HETATM    7  N   UNL     1     -10.642  11.219  65.813  1.00  0.00    -0.260 NA 
HETATM    8  N   UNL     1     -11.484  11.414  67.967  1.00  0.00    -0.381 NA 
HETATM    9  C   UNL     1     -11.412  11.825  66.711  1.00  0.00    -0.281 A  
BRANCH   6  10
HETATM   10  N   UNL     1      -9.214   9.467  65.258  1.00  0.00    -0.234 NA 
HETATM   11  C   UNL     1      -9.376   9.794  63.853  1.00  0.00    -0.137 C  
HETATM   12  C   UNL     1      -8.745   8.131  65.573  1.00  0.00    -0.120 C  
ENDBRANCH   6  10
BRANCH   9  13
HETATM   13  N   UNL     1     -12.122  12.947  66.330  1.00  0.00    -0.464 NA 
HETATM   14  C   UNL     1     -12.132  14.127  67.174  1.00  0.00    -0.397 C  
HETATM   15  C   UNL     1     -12.542  13.106  64.952  1.00  0.00    -0.407 C  
ENDBRANCH   9  13
ENDBRANCH   2   4
TORSDOF 3
ENDMDL
MODEL       94
REMARK 921   NORMALIZED FREE ENERGY PREDICTED BY IDOCK:   -3.56 KCAL/MOL
REMARK 922        TOTAL FREE ENERGY PREDICTED BY IDOCK:   -4.44 KCAL/MOL
REMARK 923 INTER-LIGAND FREE ENERGY PREDICTED BY IDOCK:   -4.18 KCAL/MOL
REMARK 924 INTRA-LIGAND FREE ENERGY PREDICTED BY IDOCK:   -0.26 KCAL/MOL
REMARK 927      BINDING AFFINITY PREDICTED BY RF-SCORE:    0.00 PKD
ROOT
HETATM    1  C   UNL     1      -8.315  10.354  67.893  1.00  0.00    -0.114 C  
HETATM    2  N   UNL     1      -9.740  10.602  67.805  1.00  0.00    -0.160 NA 
HETATM    3  C   UNL     1     -10.651   9.516  67.515  1.00  0.00    -0.275 C  
ENDROOT
BRANCH   2   4
HETATM    4  C   UNL     1     -10.150  11.885  67.474  1.00  0.00    -0.193 A  
HETATM    5  N   UNL     1     -10.189  12.821  68.418  1.00  0.00    -0.239 NA 
HETATM    6  C   UNL     1     -10.618  14.024  68.064  1.00  0.00    -0.247 A  
HETATM    7  N   UNL     1     -11.006  14.305  66.825  1.00  0.00    -0.299 NA 
HETATM    8  N   UNL     1     -10.506  12.122  66.219  1.00  0.00    -0.233 NA 
HETATM    9  C   UNL     1     -10.934  13.337  65.918  1.00  0.00    -0.274 A  
BRANCH   6  10
HETATM   10  N   UNL     1     -10.599  15.051  68.992  1.00  0.00    -0.237 NA 
HETATM   11  C   UNL     1     -11.851  15.641  69.432  1.00  0.00    -0.375 C  
HETATM   12  C   UNL     1      -9.410  15.874  69.103  1.00  0.00    -0.252 C  
ENDBRANCH   6  10
BRANCH   9  13
HETATM   13  N   UNL     1     -11.363  13.598  64.631  1.00  0.00    -0.352 NA 
HETATM   14  C   UNL     1     -11.243  12.585  63.600  1.00  0.00    -0.483 C  
HETATM   15  C   UNL     1     -12.262  14.707  64.377  1.00  0.00    -0.452 C  
ENDBRANCH   9  13
ENDBRANCH   2   4
TORSDOF 3
ENDMDL
MODEL       95
REMARK 921   NORMALIZED FREE ENERGY PREDICTED BY IDOCK:   -3.54 KCAL/MOL
REMARK 922        TOTAL FREE ENERGY PREDICTED BY IDOCK:   -4.42 KCAL/MOL
REMARK 923 INTER-LIGAND FREE ENERGY PREDICTED BY IDOCK:   -4.14 KCAL/MOL
REMARK 924 INTRA-LIGAND FREE ENERGY PREDICTED BY IDOCK:   -0.28 KCAL/MOL
REMARK 927      BINDING AFFINITY PREDICTED BY RF-SCORE:    0.00 PKD
ROOT
HETATM    1  C   UNL     1      -8.189  13.029  68.032  1.00  0.00    -0.161 C  
HETATM    2  N   UNL     1      -8.000  14.451  67.822  1.00  0.00    -0.143 NA 
HETATM    3  C   UNL     1      -6.673  14.984  67.607  1.00  0.00    -0.177 C  
ENDROOT
BRANCH   2   4
HETATM    4  C   UNL     1      -8.958  15.309  68.340  1.00  0.00    -0.184 A  
HETATM    5  N   UNL     1      -8.803  16.622  68.197  1.00  0.00    -0.201 NA 
HETATM    6  C   UNL     1      -9.726  17.405  68.737  1.00  0.00    -0.282 A  
HETATM    7  N   UNL     1     -10.768  16.923  69.406  1.00  0.00    -0.319 NA 
HETATM    8  N   UNL     1      -9.991  14.778  68.980  1.00  0.00    -0.230 NA 
HETATM    9  C   UNL     1     -10.881  15.603  69.507  1.00  0.00    -0.271 A  
BRANCH   6  10
HETATM   10  N   UNL     1      -9.651  18.775  68.544  1.00  0.00    -0.350 NA 
HETATM   11  C   UNL     1     -10.585  19.423  67.642  1.00  0.00    -0.458 C  
HETATM   12  C   UNL     1      -8.386  19.446  68.775  1.00  0.00    -0.344 C  
ENDBRANCH   6  10
BRANCH   9  13
HETATM   13  N   UNL     1     -11.938  15.080  70.226  1.00  0.00    -0.293 NA 
HETATM   14  C   UNL     1     -12.219  13.657  70.183  1.00  0.00    -0.342 C  
HETATM   15  C   UNL     1     -12.535  15.847  71.302  1.00  0.00    -0.387 C  
ENDBRANCH   9  13
ENDBRANCH   2   4
TORSDOF 3
ENDMDL
MODEL       96
REMARK 921   NORMALIZED FREE ENERGY PREDICTED BY IDOCK:   -3.53 KCAL/MOL
REMARK 922        TOTAL FREE ENERGY PREDICTED BY IDOCK:   -4.41 KCAL/MOL
REMARK 923 INTER-LIGAND FREE ENERGY PREDICTED BY IDOCK:   -4.14 KCAL/MOL
REMARK 924 INTRA-LIGAND FREE ENERGY PREDICTED BY IDOCK:   -0.27 KCAL/MOL
REMARK 927      BINDING AFFINITY PREDICTED BY RF-SCORE:    0.00 PKD
ROOT
HETATM    1  C   UNL     1      -7.695   9.956  64.647  1.00  0.00    -0.142 C  
HETATM    2  N   UNL     1      -9.091  10.194  64.341  1.00  0.00    -0.223 NA 
HETATM    3  C   UNL     1      -9.506  10.437  62.977  1.00  0.00    -0.330 C  
ENDROOT
BRANCH   2   4
HETATM    4  C   UNL     1      -9.893  10.701  65.353  1.00  0.00    -0.267 A  
HETATM    5  N   UNL     1     -10.427  11.912  65.218  1.00  0.00    -0.264 NA 
HETATM    6  C   UNL     1     -11.158  12.369  66.224  1.00  0.00    -0.303 A  
HETATM    7  N   UNL     1     -11.358  11.669  67.336  1.00  0.00    -0.353 NA 
HETATM    8  N   UNL     1     -10.080   9.955  66.434  1.00  0.00    -0.240 NA 
HETATM    9  C   UNL     1     -10.813  10.460  67.413  1.00  0.00    -0.286 A  
BRANCH   6  10
HETATM   10  N   UNL     1     -11.800  13.589  66.096  1.00  0.00    -0.369 NA 
HETATM   11  C   UNL     1     -11.803  14.517  67.212  1.00  0.00    -0.392 C  
HETATM   12  C   UNL     1     -12.877  13.716  65.132  1.00  0.00    -0.329 C  
ENDBRANCH   6  10
BRANCH   9  13
HETATM   13  N   UNL     1     -10.980   9.728  68.572  1.00  0.00    -0.189 NA 
HETATM   14  C   UNL     1     -10.443   8.384  68.673  1.00  0.00    -0.166 C  
HETATM   15  C   UNL     1     -11.345  10.397  69.806  1.00  0.00    -0.289 C  
ENDBRANCH   9  13
ENDBRANCH   2   4
TORSDOF 3
ENDMDL
MODEL       97
REMARK 921   NORMALIZED FREE ENERGY PREDICTED BY IDOCK:   -3.52 KCAL/MOL
REMARK 922        TOTAL FREE ENERGY PREDICTED BY IDOCK:   -4.40 KCAL/MOL
REMARK 923 INTER-LIGAND FREE ENERGY PREDICTED BY IDOCK:   -4.12 KCAL/MOL
REMARK 924 INTRA-LIGAND FREE ENERGY PREDICTED BY IDOCK:   -0.28 KCAL/MOL
REMARK 927      BINDING AFFINITY PREDICTED BY RF-SCORE:    0.00 PKD
ROOT
HETATM    1  C   UNL     1     -11.645  13.626  67.613  1.00  0.00    -0.346 C  
HETATM    2  N   UNL     1     -11.854  12.692  68.701  1.00  0.00    -0.315 NA 
HETATM    3  C   UNL     1     -12.034  13.177  70.052  1.00  0.00    -0.321 C  
ENDROOT
BRANCH   2   4
HETATM    4  C   UNL     1     -11.364  11.404  68.545  1.00  0.00    -0.271 A  
HETATM    5  N   UNL     1     -10.960  11.002  67.343  1.00  0.00    -0.274 NA 
HETATM    6  C   UNL     1     -10.531   9.753  67.233  1.00  0.00    -0.261 A  
HETATM    7  N   UNL     1     -10.503   8.915  68.265  1.00  0.00    -0.213 NA 
HETATM    8  N   UNL     1     -11.335  10.613  69.609  1.00  0.00    -0.271 NA 
HETATM    9  C   UNL     1     -10.905   9.373  69.445  1.00  0.00    -0.189 A  
BRANCH   6  10
HETATM   10  N   UNL     1     -10.025   9.313  66.021  1.00  0.00    -0.292 NA 
HETATM   11  C   UNL     1      -9.059   8.229  66.000  1.00  0.00    -0.176 C  
HETATM   12  C   UNL     1     -10.014  10.226  64.894  1.00  0.00    -0.323 C  
ENDBRANCH   6  10
BRANCH   9  13
HETATM   13  N   UNL     1     -10.916   8.511  70.525  1.00  0.00    -0.239 NA 
HETATM   14  C   UNL     1     -11.146   7.093  70.325  1.00  0.00    -0.274 C  
HETATM   15  C   UNL     1     -10.338   8.924  71.789  1.00  0.00    -0.356 C  
ENDBRANCH   9  13
ENDBRANCH   2   4
TORSDOF 3
ENDMDL
MODEL       98
REMARK 921   NORMALIZED FREE ENERGY PREDICTED BY IDOCK:   -3.50 KCAL/MOL
REMARK 922        TOTAL FREE ENERGY PREDICTED BY IDOCK:   -4.37 KCAL/MOL
REMARK 923 INTER-LIGAND FREE ENERGY PREDICTED BY IDOCK:   -4.11 KCAL/MOL
REMARK 924 INTRA-LIGAND FREE ENERGY PREDICTED BY IDOCK:   -0.26 KCAL/MOL
REMARK 927      BINDING AFFINITY PREDICTED BY RF-SCORE:    0.00 PKD
ROOT
HETATM    1  C   UNL     1     -10.023   8.810  66.898  1.00  0.00    -0.257 C  
HETATM    2  N   UNL     1     -10.360   7.788  67.869  1.00  0.00    -0.211 NA 
HETATM    3  C   UNL     1     -10.959   6.544  67.438  1.00  0.00    -0.378 C  
ENDROOT
BRANCH   2   4
HETATM    4  C   UNL     1     -10.602   8.195  69.173  1.00  0.00    -0.166 A  
HETATM    5  N   UNL     1     -10.298   7.380  70.178  1.00  0.00    -0.210 NA 
HETATM    6  C   UNL     1     -10.577   7.797  71.405  1.00  0.00    -0.213 A  
HETATM    7  N   UNL     1     -11.145   8.973  71.645  1.00  0.00    -0.339 NA 
HETATM    8  N   UNL     1     -11.150   9.388  69.362  1.00  0.00    -0.140 NA 
HETATM    9  C   UNL     1     -11.416   9.755  70.605  1.00  0.00    -0.324 A  
BRANCH   6  10
HETATM   10  N   UNL     1     -10.205   7.018  72.487  1.00  0.00    -0.180 NA 
HETATM   11  C   UNL     1     -11.006   5.861  72.847  1.00  0.00    -0.268 C  
HETATM   12  C   UNL     1      -9.406   7.617  73.540  1.00  0.00    -0.282 C  
ENDBRANCH   6  10
BRANCH   9  13
HETATM   13  N   UNL     1     -12.036  10.969  70.829  1.00  0.00    -0.359 NA 
HETATM   14  C   UNL     1     -11.843  12.070  69.905  1.00  0.00    -0.331 C  
HETATM   15  C   UNL     1     -13.157  11.053  71.745  1.00  0.00    -0.449 C  
ENDBRANCH   9  13
ENDBRANCH   2   4
TORSDOF 3
ENDMDL
MODEL       99
REMARK 921   NORMALIZED FREE ENERGY PREDICTED BY IDOCK:   -3.49 KCAL/MOL
REMARK 922        TOTAL FREE ENERGY PREDICTED BY IDOCK:   -4.36 KCAL/MOL
REMARK 923 INTER-LIGAND FREE ENERGY PREDICTED BY IDOCK:   -4.11 KCAL/MOL
REMARK 924 INTRA-LIGAND FREE ENERGY PREDICTED BY IDOCK:   -0.25 KCAL/MOL
REMARK 927      BINDING AFFINITY PREDICTED BY RF-SCORE:    0.00 PKD
ROOT
HETATM    1  C   UNL     1     -11.552  12.221  63.713  1.00  0.00    -0.471 C  
HETATM    2  N   UNL     1     -12.081  12.645  64.994  1.00  0.00    -0.420 NA 
HETATM    3  C   UNL     1     -12.996  13.763  65.069  1.00  0.00    -0.162 C  
ENDROOT
BRANCH   2   4
HETATM    4  C   UNL     1     -11.335  12.353  66.126  1.00  0.00    -0.352 A  
HETATM    5  N   UNL     1     -10.016  12.222  66.021  1.00  0.00    -0.248 NA 
HETATM    6  C   UNL     1      -9.348  11.910  67.122  1.00  0.00    -0.180 A  
HETATM    7  N   UNL     1      -9.949  11.722  68.292  1.00  0.00    -0.195 NA 
HETATM    8  N   UNL     1     -11.979  12.197  67.275  1.00  0.00    -0.578 NA 
HETATM    9  C   UNL     1     -11.267  11.879  68.343  1.00  0.00    -0.258 A  
BRANCH   6  10
HETATM   10  N   UNL     1      -7.965  11.842  67.081  1.00  0.00    -0.160 NA 
HETATM   11  C   UNL     1      -7.322  10.835  66.255  1.00  0.00    -0.138 C  
HETATM   12  C   UNL     1      -7.204  12.354  68.205  1.00  0.00    -0.100 C  
ENDBRANCH   6  10
BRANCH   9  13
HETATM   13  N   UNL     1     -11.918  11.657  69.542  1.00  0.00    -0.320 NA 
HETATM   14  C   UNL     1     -11.973  10.322  70.107  1.00  0.00    -0.234 C  
HETATM   15  C   UNL     1     -12.217  12.769  70.422  1.00  0.00    -0.293 C  
ENDBRANCH   9  13
ENDBRANCH   2   4
TORSDOF 3
ENDMDL
MODEL      100
REMARK 921   NORMALIZED FREE ENERGY PREDICTED BY IDOCK:   -3.47 KCAL/MOL
REMARK 922        TOTAL FREE ENERGY PREDICTED BY IDOCK:   -4.34 KCAL/MOL
REMARK 923 INTER-LIGAND FREE ENERGY PREDICTED BY IDOCK:   -4.07 KCAL/MOL
REMARK 924 INTRA-LIGAND FREE ENERGY PREDICTED BY IDOCK:   -0.27 KCAL/MOL
REMARK 927      BINDING AFFINITY PREDICTED BY RF-SCORE:    0.00 PKD
ROOT
HETATM    1  C   UNL     1      -8.355  11.270  68.499  1.00  0.00    -0.155 C  
HETATM    2  N   UNL     1      -9.804  11.276  68.504  1.00  0.00    -0.192 NA 
HETATM    3  C   UNL     1     -10.527  12.503  68.253  1.00  0.00    -0.234 C  
ENDROOT
BRANCH   2   4
HETATM    4  C   UNL     1     -10.448  10.294  69.242  1.00  0.00    -0.228 A  
HETATM    5  N   UNL     1     -10.196   9.014  68.984  1.00  0.00    -0.200 NA 
HETATM    6  C   UNL     1     -10.859   8.110  69.691  1.00  0.00    -0.158 A  
HETATM    7  N   UNL     1     -11.750   8.444  70.618  1.00  0.00    -0.209 NA 
HETATM    8  N   UNL     1     -11.312  10.678  70.172  1.00  0.00    -0.308 NA 
HETATM    9  C   UNL     1     -11.954   9.737  70.845  1.00  0.00    -0.328 A  
BRANCH   6  10
HETATM   10  N   UNL     1     -10.572   6.767  69.515  1.00  0.00    -0.218 NA 
HETATM   11  C   UNL     1     -10.822   6.143  68.228  1.00  0.00    -0.306 C  
HETATM   12  C   UNL     1     -10.556   5.896  70.675  1.00  0.00    -0.268 C  
ENDBRANCH   6  10
BRANCH   9  13
HETATM   13  N   UNL     1     -12.899  10.107  71.782  1.00  0.00    -0.430 NA 
HETATM   14  C   UNL     1     -13.270  11.502  71.934  1.00  0.00    -0.374 C  
HETATM   15  C   UNL     1     -13.790   9.112  72.346  1.00  0.00    -0.457 C  
ENDBRANCH   9  13
ENDBRANCH   2   4
TORSDOF 3
ENDMDL
MODEL      101
REMARK 921   NORMALIZED FREE ENERGY PREDICTED BY IDOCK:   -3.47 KCAL/MOL
REMARK 922        TOTAL FREE ENERGY PREDICTED BY IDOCK:   -4.34 KCAL/MOL
REMARK 923 INTER-LIGAND FREE ENERGY PREDICTED BY IDOCK:   -4.08 KCAL/MOL
REMARK 924 INTRA-LIGAND FREE ENERGY PREDICTED BY IDOCK:   -0.26 KCAL/MOL
REMARK 927      BINDING AFFINITY PREDICTED BY RF-SCORE:    0.00 PKD
ROOT
HETATM    1  C   UNL     1      -8.175  10.870  68.956  1.00  0.00    -0.124 C  
HETATM    2  N   UNL     1      -8.028  11.381  67.607  1.00  0.00    -0.119 NA 
HETATM    3  C   UNL     1      -6.714  11.668  67.078  1.00  0.00    -0.145 C  
ENDROOT
BRANCH   2   4
HETATM    4  C   UNL     1      -9.102  12.069  67.061  1.00  0.00    -0.191 A  
HETATM    5  N   UNL     1      -9.778  12.929  67.817  1.00  0.00    -0.208 NA 
HETATM    6  C   UNL     1     -10.817  13.538  67.263  1.00  0.00    -0.276 A  
HETATM    7  N   UNL     1     -11.192  13.309  66.009  1.00  0.00    -0.294 NA 
HETATM    8  N   UNL     1      -9.424  11.821  65.798  1.00  0.00    -0.233 NA 
HETATM    9  C   UNL     1     -10.473  12.450  65.294  1.00  0.00    -0.286 A  
BRANCH   6  10
HETATM   10  N   UNL     1     -11.502  14.502  67.984  1.00  0.00    -0.305 NA 
HETATM   11  C   UNL     1     -11.133  15.899  67.842  1.00  0.00    -0.317 C  
HETATM   12  C   UNL     1     -12.160  14.117  69.218  1.00  0.00    -0.324 C  
ENDBRANCH   6  10
BRANCH   9  13
HETATM   13  N   UNL     1     -10.864  12.172  63.999  1.00  0.00    -0.345 NA 
HETATM   14  C   UNL     1     -12.004  12.854  63.417  1.00  0.00    -0.537 C  
HETATM   15  C   UNL     1      -9.950  11.503  63.093  1.00  0.00    -0.377 C  
ENDBRANCH   9  13
ENDBRANCH   2   4
TORSDOF 3
ENDMDL
MODEL      102
REMARK 921   NORMALIZED FREE ENERGY PREDICTED BY IDOCK:   -3.45 KCAL/MOL
REMARK 922        TOTAL FREE ENERGY PREDICTED BY IDOCK:   -4.32 KCAL/MOL
REMARK 923 INTER-LIGAND FREE ENERGY PREDICTED BY IDOCK:   -4.07 KCAL/MOL
REMARK 924 INTRA-LIGAND FREE ENERGY PREDICTED BY IDOCK:   -0.25 KCAL/MOL
REMARK 927      BINDING AFFINITY PREDICTED BY RF-SCORE:    0.00 PKD
ROOT
HETATM    1  C   UNL     1     -12.088  15.439  69.617  1.00  0.00    -0.327 C  
HETATM    2  N   UNL     1     -10.934  15.751  68.797  1.00  0.00    -0.272 NA 
HETATM    3  C   UNL     1     -10.559  17.128  68.563  1.00  0.00    -0.361 C  
ENDROOT
BRANCH   2   4
HETATM    4  C   UNL     1     -10.545  14.813  67.852  1.00  0.00    -0.248 A  
HETATM    5  N   UNL     1     -11.265  14.666  66.744  1.00  0.00    -0.336 NA 
HETATM    6  C   UNL     1     -10.876  13.736  65.885  1.00  0.00    -0.283 A  
HETATM    7  N   UNL     1      -9.817  12.962  66.104  1.00  0.00    -0.272 NA 
HETATM    8  N   UNL     1      -9.469  14.080  68.106  1.00  0.00    -0.209 NA 
HETATM    9  C   UNL     1      -9.126  13.160  67.221  1.00  0.00    -0.217 A  
BRANCH   6  10
HETATM   10  N   UNL     1     -11.545  13.601  64.680  1.00  0.00    -0.356 NA 
HETATM   11  C   UNL     1     -12.404  14.675  64.215  1.00  0.00    -0.349 C  
HETATM   12  C   UNL     1     -11.830  12.268  64.182  1.00  0.00    -0.419 C  
ENDBRANCH   6  10
BRANCH   9  13
HETATM   13  N   UNL     1      -8.041  12.346  67.484  1.00  0.00    -0.162 NA 
HETATM   14  C   UNL     1      -6.739  12.927  67.751  1.00  0.00    -0.141 C  
HETATM   15  C   UNL     1      -8.248  10.963  67.866  1.00  0.00    -0.114 C  
ENDBRANCH   9  13
ENDBRANCH   2   4
TORSDOF 3
ENDMDL
MODEL      103
REMARK 921   NORMALIZED FREE ENERGY PREDICTED BY IDOCK:   -3.45 KCAL/MOL
REMARK 922        TOTAL FREE ENERGY PREDICTED BY IDOCK:   -4.31 KCAL/MOL
REMARK 923 INTER-LIGAND FREE ENERGY PREDICTED BY IDOCK:   -4.05 KCAL/MOL
REMARK 924 INTRA-LIGAND FREE ENERGY PREDICTED BY IDOCK:   -0.26 KCAL/MOL
REMARK 927      BINDING AFFINITY PREDICTED BY RF-SCORE:    0.00 PKD
ROOT
HETATM    1  C   UNL     1      -7.786   9.746  70.084  1.00  0.00    -0.183 C  
HETATM    2  N   UNL     1      -8.972   9.383  69.334  1.00  0.00    -0.148 NA 
HETATM    3  C   UNL     1      -8.873   9.064  67.927  1.00  0.00    -0.129 C  
ENDROOT
BRANCH   2   4
HETATM    4  C   UNL     1     -10.194   9.845  69.800  1.00  0.00    -0.246 A  
HETATM    5  N   UNL     1     -10.499  11.132  69.665  1.00  0.00    -0.048 NA 
HETATM    6  C   UNL     1     -11.662  11.536  70.155  1.00  0.00    -0.309 A  
HETATM    7  N   UNL     1     -12.502  10.709  70.768  1.00  0.00    -0.354 NA 
HETATM    8  N   UNL     1     -11.008   8.976  70.385  1.00  0.00    -0.241 NA 
HETATM    9  C   UNL     1     -12.154   9.431  70.864  1.00  0.00    -0.255 A  
BRANCH   6  10
HETATM   10  N   UNL     1     -12.059  12.849  69.967  1.00  0.00    -0.317 NA 
HETATM   11  C   UNL     1     -11.539  13.599  68.837  1.00  0.00    -0.322 C  
HETATM   12  C   UNL     1     -12.512  13.615  71.113  1.00  0.00    -0.359 C  
ENDBRANCH   6  10
BRANCH   9  13
HETATM   13  N   UNL     1     -12.997   8.560  71.526  1.00  0.00    -0.320 NA 
HETATM   14  C   UNL     1     -12.652   7.155  71.644  1.00  0.00    -0.375 C  
HETATM   15  C   UNL     1     -14.018   9.075  72.418  1.00  0.00    -0.448 C  
ENDBRANCH   9  13
ENDBRANCH   2   4
TORSDOF 3
ENDMDL
MODEL      104
REMARK 921   NORMALIZED FREE ENERGY PREDICTED BY IDOCK:   -3.44 KCAL/MOL
REMARK 922        TOTAL FREE ENERGY PREDICTED BY IDOCK:   -4.31 KCAL/MOL
REMARK 923 INTER-LIGAND FREE ENERGY PREDICTED BY IDOCK:   -4.04 KCAL/MOL
REMARK 924 INTRA-LIGAND FREE ENERGY PREDICTED BY IDOCK:   -0.27 KCAL/MOL
REMARK 927      BINDING AFFINITY PREDICTED BY RF-SCORE:    0.00 PKD
ROOT
HETATM    1  C   UNL     1      -8.357  15.691  66.716  1.00  0.00    -0.278 C  
HETATM    2  N   UNL     1      -8.564  14.437  67.413  1.00  0.00    -0.190 NA 
HETATM    3  C   UNL     1      -7.646  14.022  68.450  1.00  0.00    -0.129 C  
ENDROOT
BRANCH   2   4
HETATM    4  C   UNL     1      -9.275  13.445  66.753  1.00  0.00    -0.236 A  
HETATM    5  N   UNL     1      -8.993  12.169  66.999  1.00  0.00    -0.195 NA 
HETATM    6  C   UNL     1      -9.674  11.255  66.321  1.00  0.00    -0.216 A  
HETATM    7  N   UNL     1     -10.599  11.577  65.423  1.00  0.00    -0.275 NA 
HETATM    8  N   UNL     1     -10.203  13.817  65.883  1.00  0.00    -0.305 NA 
HETATM    9  C   UNL     1     -10.850  12.867  65.227  1.00  0.00    -0.292 A  
BRANCH   6  10
HETATM   10  N   UNL     1      -9.473   9.914  66.600  1.00  0.00    -0.166 NA 
HETATM   11  C   UNL     1      -8.827   9.066  65.614  1.00  0.00    -0.185 C  
HETATM   12  C   UNL     1     -10.342   9.261  67.561  1.00  0.00    -0.262 C  
ENDBRANCH   6  10
BRANCH   9  13
HETATM   13  N   UNL     1     -11.784  13.225  64.275  1.00  0.00    -0.386 NA 
HETATM   14  C   UNL     1     -12.450  12.207  63.484  1.00  0.00    -0.555 C  
HETATM   15  C   UNL     1     -12.382  14.546  64.306  1.00  0.00    -0.369 C  
ENDBRANCH   9  13
ENDBRANCH   2   4
TORSDOF 3
ENDMDL
MODEL      105
REMARK 921   NORMALIZED FREE ENERGY PREDICTED BY IDOCK:   -3.44 KCAL/MOL
REMARK 922        TOTAL FREE ENERGY PREDICTED BY IDOCK:   -4.30 KCAL/MOL
REMARK 923 INTER-LIGAND FREE ENERGY PREDICTED BY IDOCK:   -4.03 KCAL/MOL
REMARK 924 INTRA-LIGAND FREE ENERGY PREDICTED BY IDOCK:   -0.27 KCAL/MOL
REMARK 927      BINDING AFFINITY PREDICTED BY RF-SCORE:    0.00 PKD
ROOT
HETATM    1  C   UNL     1      -9.139  10.254  67.039  1.00  0.00    -0.139 C  
HETATM    2  N   UNL     1      -8.752  11.648  67.129  1.00  0.00    -0.158 NA 
HETATM    3  C   UNL     1      -7.357  12.009  67.252  1.00  0.00    -0.151 C  
ENDROOT
BRANCH   2   4
HETATM    4  C   UNL     1      -9.690  12.545  67.618  1.00  0.00    -0.196 A  
HETATM    5  N   UNL     1     -10.506  12.165  68.597  1.00  0.00    -0.230 NA 
HETATM    6  C   UNL     1     -11.409  13.044  69.010  1.00  0.00    -0.289 A  
HETATM    7  N   UNL     1     -11.519  14.256  68.477  1.00  0.00    -0.280 NA 
HETATM    8  N   UNL     1      -9.747  13.751  67.068  1.00  0.00    -0.243 NA 
HETATM    9  C   UNL     1     -10.670  14.588  67.511  1.00  0.00    -0.276 A  
BRANCH   6  10
HETATM   10  N   UNL     1     -12.226  12.724  70.081  1.00  0.00    -0.289 NA 
HETATM   11  C   UNL     1     -12.580  13.752  71.043  1.00  0.00    -0.371 C  
HETATM   12  C   UNL     1     -12.272  11.349  70.541  1.00  0.00    -0.386 C  
ENDBRANCH   6  10
BRANCH   9  13
HETATM   13  N   UNL     1     -10.787  15.831  66.920  1.00  0.00    -0.301 NA 
HETATM   14  C   UNL     1     -10.611  17.035  67.710  1.00  0.00    -0.350 C  
HETATM   15  C   UNL     1     -10.711  15.960  65.478  1.00  0.00    -0.372 C  
ENDBRANCH   9  13
ENDBRANCH   2   4
TORSDOF 3
ENDMDL
MODEL      106
REMARK 921   NORMALIZED FREE ENERGY PREDICTED BY IDOCK:   -3.44 KCAL/MOL
REMARK 922        TOTAL FREE ENERGY PREDICTED BY IDOCK:   -4.30 KCAL/MOL
REMARK 923 INTER-LIGAND FREE ENERGY PREDICTED BY IDOCK:   -4.04 KCAL/MOL
REMARK 924 INTRA-LIGAND FREE ENERGY PREDICTED BY IDOCK:   -0.26 KCAL/MOL
REMARK 927      BINDING AFFINITY PREDICTED BY RF-SCORE:    0.00 PKD
ROOT
HETATM    1  C   UNL     1     -11.923  14.978  68.450  1.00  0.00    -0.200 C  
HETATM    2  N   UNL     1     -11.121  15.653  69.451  1.00  0.00    -0.279 NA 
HETATM    3  C   UNL     1     -11.716  16.061  70.705  1.00  0.00    -0.350 C  
ENDROOT
BRANCH   2   4
HETATM    4  C   UNL     1     -10.005  16.352  69.015  1.00  0.00    -0.267 A  
HETATM    5  N   UNL     1      -8.793  15.909  69.336  1.00  0.00    -0.245 NA 
HETATM    6  C   UNL     1      -7.756  16.626  68.927  1.00  0.00    -0.239 A  
HETATM    7  N   UNL     1      -7.897  17.749  68.231  1.00  0.00    -0.269 NA 
HETATM    8  N   UNL     1     -10.197  17.455  68.305  1.00  0.00    -0.340 NA 
HETATM    9  C   UNL     1      -9.130  18.139  67.926  1.00  0.00    -0.265 A  
BRANCH   6  10
HETATM   10  N   UNL     1      -6.473  16.163  69.166  1.00  0.00    -0.154 NA 
HETATM   11  C   UNL     1      -5.557  16.967  69.955  1.00  0.00    -0.213 C  
HETATM   12  C   UNL     1      -5.885  15.217  68.236  1.00  0.00    -0.121 C  
ENDBRANCH   6  10
BRANCH   9  13
HETATM   13  N   UNL     1      -9.302  19.321  67.232  1.00  0.00    -0.301 NA 
HETATM   14  C   UNL     1     -10.636  19.809  66.937  1.00  0.00    -0.466 C  
HETATM   15  C   UNL     1      -8.205  20.263  67.121  1.00  0.00    -0.334 C  
ENDBRANCH   9  13
ENDBRANCH   2   4
TORSDOF 3
ENDMDL
MODEL      107
REMARK 921   NORMALIZED FREE ENERGY PREDICTED BY IDOCK:   -3.43 KCAL/MOL
REMARK 922        TOTAL FREE ENERGY PREDICTED BY IDOCK:   -4.29 KCAL/MOL
REMARK 923 INTER-LIGAND FREE ENERGY PREDICTED BY IDOCK:   -4.04 KCAL/MOL
REMARK 924 INTRA-LIGAND FREE ENERGY PREDICTED BY IDOCK:   -0.25 KCAL/MOL
REMARK 927      BINDING AFFINITY PREDICTED BY RF-SCORE:    0.00 PKD
ROOT
HETATM    1  C   UNL     1      -8.352  19.634  66.836  1.00  0.00    -0.301 C  
HETATM    2  N   UNL     1      -9.476  18.770  67.136  1.00  0.00    -0.299 NA 
HETATM    3  C   UNL     1     -10.826  19.289  67.090  1.00  0.00    -0.440 C  
ENDROOT
BRANCH   2   4
HETATM    4  C   UNL     1      -9.242  17.669  67.947  1.00  0.00    -0.267 A  
HETATM    5  N   UNL     1      -7.992  17.349  68.266  1.00  0.00    -0.243 NA 
HETATM    6  C   UNL     1      -7.813  16.271  69.015  1.00  0.00    -0.235 A  
HETATM    7  N   UNL     1      -8.825  15.519  69.436  1.00  0.00    -0.255 NA 
HETATM    8  N   UNL     1     -10.287  16.964  68.359  1.00  0.00    -0.317 NA 
HETATM    9  C   UNL     1     -10.055  15.892  69.099  1.00  0.00    -0.240 A  
BRANCH   6  10
HETATM   10  N   UNL     1      -6.536  15.943  69.441  1.00  0.00    -0.163 NA 
HETATM   11  C   UNL     1      -5.736  16.937  70.134  1.00  0.00    -0.208 C  
HETATM   12  C   UNL     1      -5.821  14.883  68.757  1.00  0.00    -0.085 C  
ENDBRANCH   6  10
BRANCH   9  13
HETATM   13  N   UNL     1     -11.120  15.108  69.497  1.00  0.00    -0.261 NA 
HETATM   14  C   UNL     1     -11.920  15.489  70.646  1.00  0.00    -0.378 C  
HETATM   15  C   UNL     1     -11.683  14.131  68.585  1.00  0.00    -0.350 C  
ENDBRANCH   9  13
ENDBRANCH   2   4
TORSDOF 3
ENDMDL
MODEL      108
REMARK 921   NORMALIZED FREE ENERGY PREDICTED BY IDOCK:   -3.43 KCAL/MOL
REMARK 922        TOTAL FREE ENERGY PREDICTED BY IDOCK:   -4.29 KCAL/MOL
REMARK 923 INTER-LIGAND FREE ENERGY PREDICTED BY IDOCK:   -4.03 KCAL/MOL
REMARK 924 INTRA-LIGAND FREE ENERGY PREDICTED BY IDOCK:   -0.26 KCAL/MOL
REMARK 927      BINDING AFFINITY PREDICTED BY RF-SCORE:    0.00 PKD
ROOT
HETATM    1  C   UNL     1      -9.295  12.654  67.966  1.00  0.00    -0.209 C  
HETATM    2  N   UNL     1     -10.668  12.210  68.103  1.00  0.00    -0.203 NA 
HETATM    3  C   UNL     1     -11.758  13.126  67.846  1.00  0.00    -0.357 C  
ENDROOT
BRANCH   2   4
HETATM    4  C   UNL     1     -10.917  11.142  68.953  1.00  0.00    -0.225 A  
HETATM    5  N   UNL     1     -10.332   9.971  68.718  1.00  0.00    -0.188 NA 
HETATM    6  C   UNL     1     -10.625   8.971  69.536  1.00  0.00    -0.225 A  
HETATM    7  N   UNL     1     -11.470   9.106  70.553  1.00  0.00    -0.255 NA 
HETATM    8  N   UNL     1     -11.751  11.333  69.966  1.00  0.00    -0.323 NA 
HETATM    9  C   UNL     1     -12.016  10.301  70.751  1.00  0.00    -0.360 A  
BRANCH   6  10
HETATM   10  N   UNL     1      -9.980   7.756  69.380  1.00  0.00    -0.184 NA 
HETATM   11  C   UNL     1      -8.536   7.688  69.516  1.00  0.00    -0.132 C  
HETATM   12  C   UNL     1     -10.614   6.724  68.582  1.00  0.00    -0.227 C  
ENDBRANCH   6  10
BRANCH   9  13
HETATM   13  N   UNL     1     -12.922  10.457  71.781  1.00  0.00    -0.454 NA 
HETATM   14  C   UNL     1     -13.395  11.779  72.146  1.00  0.00    -0.228 C  
HETATM   15  C   UNL     1     -13.688   9.319  72.251  1.00  0.00    -0.462 C  
ENDBRANCH   9  13
ENDBRANCH   2   4
TORSDOF 3
ENDMDL
MODEL      109
REMARK 921   NORMALIZED FREE ENERGY PREDICTED BY IDOCK:   -3.42 KCAL/MOL
REMARK 922        TOTAL FREE ENERGY PREDICTED BY IDOCK:   -4.29 KCAL/MOL
REMARK 923 INTER-LIGAND FREE ENERGY PREDICTED BY IDOCK:   -4.01 KCAL/MOL
REMARK 924 INTRA-LIGAND FREE ENERGY PREDICTED BY IDOCK:   -0.27 KCAL/MOL
REMARK 927      BINDING AFFINITY PREDICTED BY RF-SCORE:    0.00 PKD
ROOT
HETATM    1  C   UNL     1      -7.970   9.910  70.052  1.00  0.00    -0.180 C  
HETATM    2  N   UNL     1      -8.146   9.164  71.282  1.00  0.00    -0.327 NA 
HETATM    3  C   UNL     1      -6.998   8.622  71.975  1.00  0.00    -0.061 C  
ENDROOT
BRANCH   2   4
HETATM    4  C   UNL     1      -9.369   8.541  71.486  1.00  0.00    -0.222 A  
HETATM    5  N   UNL     1     -10.480   9.271  71.487  1.00  0.00    -0.345 NA 
HETATM    6  C   UNL     1     -11.622   8.639  71.719  1.00  0.00    -0.332 A  
HETATM    7  N   UNL     1     -11.678   7.332  71.952  1.00  0.00    -0.278 NA 
HETATM    8  N   UNL     1      -9.374   7.231  71.692  1.00  0.00    -0.151 NA 
HETATM    9  C   UNL     1     -10.539   6.648  71.926  1.00  0.00    -0.211 A  
BRANCH   6  10
HETATM   10  N   UNL     1     -12.813   9.341  71.649  1.00  0.00    -0.348 NA 
HETATM   11  C   UNL     1     -12.789  10.793  71.655  1.00  0.00    -0.457 C  
HETATM   12  C   UNL     1     -14.031   8.702  72.109  1.00  0.00    -0.435 C  
ENDBRANCH   6  10
BRANCH   9  13
HETATM   13  N   UNL     1     -10.569   5.294  72.197  1.00  0.00    -0.220 NA 
HETATM   14  C   UNL     1     -11.462   4.772  73.215  1.00  0.00    -0.273 C  
HETATM   15  C   UNL     1     -10.015   4.351  71.247  1.00  0.00    -0.175 C  
ENDBRANCH   9  13
ENDBRANCH   2   4
TORSDOF 3
ENDMDL
MODEL      110
REMARK 921   NORMALIZED FREE ENERGY PREDICTED BY IDOCK:   -3.42 KCAL/MOL
REMARK 922        TOTAL FREE ENERGY PREDICTED BY IDOCK:   -4.28 KCAL/MOL
REMARK 923 INTER-LIGAND FREE ENERGY PREDICTED BY IDOCK:   -4.03 KCAL/MOL
REMARK 924 INTRA-LIGAND FREE ENERGY PREDICTED BY IDOCK:   -0.25 KCAL/MOL
REMARK 927      BINDING AFFINITY PREDICTED BY RF-SCORE:    0.00 PKD
ROOT
HETATM    1  C   UNL     1      -8.329  14.942  68.247  1.00  0.00    -0.148 C  
HETATM    2  N   UNL     1      -8.295  13.501  68.095  1.00  0.00    -0.160 NA 
HETATM    3  C   UNL     1      -7.127  12.856  67.535  1.00  0.00    -0.152 C  
ENDROOT
BRANCH   2   4
HETATM    4  C   UNL     1      -9.508  12.838  67.980  1.00  0.00    -0.213 A  
HETATM    5  N   UNL     1      -9.846  11.934  68.895  1.00  0.00    -0.054 NA 
HETATM    6  C   UNL     1     -10.999  11.302  68.727  1.00  0.00    -0.220 A  
HETATM    7  N   UNL     1     -11.797  11.538  67.691  1.00  0.00    -0.629 NA 
HETATM    8  N   UNL     1     -10.280  13.125  66.940  1.00  0.00    -0.243 NA 
HETATM    9  C   UNL     1     -11.417  12.461  66.814  1.00  0.00    -0.362 A  
BRANCH   6  10
HETATM   10  N   UNL     1     -11.431  10.411  69.695  1.00  0.00    -0.259 NA 
HETATM   11  C   UNL     1     -12.699  10.641  70.365  1.00  0.00    -0.265 C  
HETATM   12  C   UNL     1     -10.447   9.616  70.405  1.00  0.00    -0.293 C  
ENDBRANCH   6  10
BRANCH   9  13
HETATM   13  N   UNL     1     -12.215  12.699  65.712  1.00  0.00    -0.598 NA 
HETATM   14  C   UNL     1     -12.784  14.015  65.493  1.00  0.00    -0.486 C  
HETATM   15  C   UNL     1     -12.191  11.785  64.587  1.00  0.00     0.049 C  
ENDBRANCH   9  13
ENDBRANCH   2   4
TORSDOF 3
ENDMDL
MODEL      111
REMARK 921   NORMALIZED FREE ENERGY PREDICTED BY IDOCK:   -3.42 KCAL/MOL
REMARK 922        TOTAL FREE ENERGY PREDICTED BY IDOCK:   -4.28 KCAL/MOL
REMARK 923 INTER-LIGAND FREE ENERGY PREDICTED BY IDOCK:   -4.03 KCAL/MOL
REMARK 924 INTRA-LIGAND FREE ENERGY PREDICTED BY IDOCK:   -0.25 KCAL/MOL
REMARK 927      BINDING AFFINITY PREDICTED BY RF-SCORE:    0.00 PKD
ROOT
HETATM    1  C   UNL     1      -6.950  10.583  67.224  1.00  0.00    -0.087 C  
HETATM    2  N   UNL     1      -7.559  11.897  67.280  1.00  0.00    -0.146 NA 
HETATM    3  C   UNL     1      -6.881  12.985  67.950  1.00  0.00    -0.130 C  
ENDROOT
BRANCH   2   4
HETATM    4  C   UNL     1      -8.941  11.969  67.180  1.00  0.00    -0.185 A  
HETATM    5  N   UNL     1      -9.679  11.888  68.283  1.00  0.00    -0.197 NA 
HETATM    6  C   UNL     1     -10.996  11.928  68.136  1.00  0.00    -0.227 A  
HETATM    7  N   UNL     1     -11.578  12.036  66.946  1.00  0.00    -0.511 NA 
HETATM    8  N   UNL     1      -9.473  12.098  65.972  1.00  0.00    -0.233 NA 
HETATM    9  C   UNL     1     -10.792  12.126  65.878  1.00  0.00    -0.278 A  
BRANCH   6  10
HETATM   10  N   UNL     1     -11.804  11.929  69.260  1.00  0.00    -0.315 NA 
HETATM   11  C   UNL     1     -12.064  13.178  69.954  1.00  0.00    -0.287 C  
HETATM   12  C   UNL     1     -11.929  10.708  70.034  1.00  0.00    -0.329 C  
ENDBRANCH   6  10
BRANCH   9  13
HETATM   13  N   UNL     1     -11.375  12.206  64.629  1.00  0.00    -0.318 NA 
HETATM   14  C   UNL     1     -10.720  11.613  63.477  1.00  0.00    -0.428 C  
HETATM   15  C   UNL     1     -12.782  12.532  64.504  1.00  0.00    -0.354 C  
ENDBRANCH   9  13
ENDBRANCH   2   4
TORSDOF 3
ENDMDL
MODEL      112
REMARK 921   NORMALIZED FREE ENERGY PREDICTED BY IDOCK:   -3.42 KCAL/MOL
REMARK 922        TOTAL FREE ENERGY PREDICTED BY IDOCK:   -4.27 KCAL/MOL
REMARK 923 INTER-LIGAND FREE ENERGY PREDICTED BY IDOCK:   -4.02 KCAL/MOL
REMARK 924 INTRA-LIGAND FREE ENERGY PREDICTED BY IDOCK:   -0.26 KCAL/MOL
REMARK 927      BINDING AFFINITY PREDICTED BY RF-SCORE:    0.00 PKD
ROOT
HETATM    1  C   UNL     1     -11.901  14.306  69.897  1.00  0.00    -0.322 C  
HETATM    2  N   UNL     1     -11.077  14.856  68.839  1.00  0.00    -0.244 NA 
HETATM    3  C   UNL     1     -11.158  16.262  68.509  1.00  0.00    -0.368 C  
ENDROOT
BRANCH   2   4
HETATM    4  C   UNL     1     -10.647  13.990  67.844  1.00  0.00    -0.244 A  
HETATM    5  N   UNL     1      -9.653  13.145  68.101  1.00  0.00    -0.223 NA 
HETATM    6  C   UNL     1      -9.253  12.359  67.111  1.00  0.00    -0.199 A  
HETATM    7  N   UNL     1      -9.801  12.402  65.902  1.00  0.00    -0.256 NA 
HETATM    8  N   UNL     1     -11.241  14.055  66.660  1.00  0.00    -0.316 NA 
HETATM    9  C   UNL     1     -10.800  13.255  65.704  1.00  0.00    -0.279 A  
BRANCH   6  10
HETATM   10  N   UNL     1      -8.276  11.407  67.353  1.00  0.00    -0.139 NA 
HETATM   11  C   UNL     1      -6.884  11.728  67.092  1.00  0.00    -0.148 C  
HETATM   12  C   UNL     1      -8.644  10.004  67.327  1.00  0.00    -0.125 C  
ENDBRANCH   6  10
BRANCH   9  13
HETATM   13  N   UNL     1     -11.363  13.339  64.445  1.00  0.00    -0.367 NA 
HETATM   14  C   UNL     1     -11.246  12.231  63.516  1.00  0.00    -0.460 C  
HETATM   15  C   UNL     1     -12.375  14.340  64.169  1.00  0.00    -0.327 C  
ENDBRANCH   9  13
ENDBRANCH   2   4
TORSDOF 3
ENDMDL
MODEL      113
REMARK 921   NORMALIZED FREE ENERGY PREDICTED BY IDOCK:   -3.41 KCAL/MOL
REMARK 922        TOTAL FREE ENERGY PREDICTED BY IDOCK:   -4.27 KCAL/MOL
REMARK 923 INTER-LIGAND FREE ENERGY PREDICTED BY IDOCK:   -4.00 KCAL/MOL
REMARK 924 INTRA-LIGAND FREE ENERGY PREDICTED BY IDOCK:   -0.27 KCAL/MOL
REMARK 927      BINDING AFFINITY PREDICTED BY RF-SCORE:    0.00 PKD
ROOT
HETATM    1  C   UNL     1     -10.096  17.304  68.210  1.00  0.00    -0.321 C  
HETATM    2  N   UNL     1      -9.376  16.076  68.487  1.00  0.00    -0.206 NA 
HETATM    3  C   UNL     1      -7.956  16.111  68.759  1.00  0.00    -0.216 C  
ENDROOT
BRANCH   2   4
HETATM    4  C   UNL     1      -9.901  14.896  67.982  1.00  0.00    -0.216 A  
HETATM    5  N   UNL     1      -9.714  13.761  68.649  1.00  0.00    -0.186 NA 
HETATM    6  C   UNL     1     -10.204  12.653  68.113  1.00  0.00    -0.240 A  
HETATM    7  N   UNL     1     -10.853  12.649  66.954  1.00  0.00    -0.249 NA 
HETATM    8  N   UNL     1     -10.560  14.947  66.832  1.00  0.00    -0.294 NA 
HETATM    9  C   UNL     1     -11.024  13.813  66.335  1.00  0.00    -0.298 A  
BRANCH   6  10
HETATM   10  N   UNL     1     -10.105  11.460  68.810  1.00  0.00    -0.206 NA 
HETATM   11  C   UNL     1      -8.809  10.821  68.953  1.00  0.00    -0.150 C  
HETATM   12  C   UNL     1     -11.274  10.607  68.908  1.00  0.00    -0.275 C  
ENDBRANCH   6  10
BRANCH   9  13
HETATM   13  N   UNL     1     -11.667  13.828  65.113  1.00  0.00    -0.330 NA 
HETATM   14  C   UNL     1     -12.520  12.722  64.721  1.00  0.00    -0.472 C  
HETATM   15  C   UNL     1     -11.809  15.073  64.384  1.00  0.00    -0.339 C  
ENDBRANCH   9  13
ENDBRANCH   2   4
TORSDOF 3
ENDMDL
MODEL      114
REMARK 921   NORMALIZED FREE ENERGY PREDICTED BY IDOCK:   -3.40 KCAL/MOL
REMARK 922        TOTAL FREE ENERGY PREDICTED BY IDOCK:   -4.25 KCAL/MOL
REMARK 923 INTER-LIGAND FREE ENERGY PREDICTED BY IDOCK:   -3.99 KCAL/MOL
REMARK 924 INTRA-LIGAND FREE ENERGY PREDICTED BY IDOCK:   -0.26 KCAL/MOL
REMARK 927      BINDING AFFINITY PREDICTED BY RF-SCORE:    0.00 PKD
ROOT
HETATM    1  C   UNL     1     -10.457  11.935  67.609  1.00  0.00    -0.208 C  
HETATM    2  N   UNL     1      -9.669  11.065  68.458  1.00  0.00    -0.183 NA 
HETATM    3  C   UNL     1      -8.307  10.737  68.098  1.00  0.00    -0.120 C  
ENDROOT
BRANCH   2   4
HETATM    4  C   UNL     1     -10.350  10.168  69.268  1.00  0.00    -0.223 A  
HETATM    5  N   UNL     1     -11.223  10.627  70.159  1.00  0.00    -0.304 NA 
HETATM    6  C   UNL     1     -11.825   9.737  70.934  1.00  0.00    -0.336 A  
HETATM    7  N   UNL     1     -11.578   8.434  70.848  1.00  0.00    -0.276 NA 
HETATM    8  N   UNL     1     -10.084   8.876  69.128  1.00  0.00    -0.191 NA 
HETATM    9  C   UNL     1     -10.707   8.028  69.931  1.00  0.00    -0.242 A  
BRANCH   6  10
HETATM   10  N   UNL     1     -12.801  10.159  71.821  1.00  0.00    -0.430 NA 
HETATM   11  C   UNL     1     -13.770   9.203  72.328  1.00  0.00    -0.487 C  
HETATM   12  C   UNL     1     -13.195  11.555  71.817  1.00  0.00    -0.351 C  
ENDBRANCH   6  10
BRANCH   9  13
HETATM   13  N   UNL     1     -10.410   6.682  69.845  1.00  0.00    -0.193 NA 
HETATM   14  C   UNL     1     -10.901   5.894  68.730  1.00  0.00    -0.283 C  
HETATM   15  C   UNL     1      -9.324   6.127  70.629  1.00  0.00    -0.165 C  
ENDBRANCH   9  13
ENDBRANCH   2   4
TORSDOF 3
ENDMDL
MODEL      115
REMARK 921   NORMALIZED FREE ENERGY PREDICTED BY IDOCK:   -3.40 KCAL/MOL
REMARK 922        TOTAL FREE ENERGY PREDICTED BY IDOCK:   -4.25 KCAL/MOL
REMARK 923 INTER-LIGAND FREE ENERGY PREDICTED BY IDOCK:   -3.98 KCAL/MOL
REMARK 924 INTRA-LIGAND FREE ENERGY PREDICTED BY IDOCK:   -0.28 KCAL/MOL
REMARK 927      BINDING AFFINITY PREDICTED BY RF-SCORE:    0.00 PKD
ROOT
HETATM    1  C   UNL     1     -10.434  11.872  63.493  1.00  0.00    -0.459 C  
HETATM    2  N   UNL     1     -11.211  12.629  64.454  1.00  0.00    -0.326 NA 
HETATM    3  C   UNL     1     -11.917  13.822  64.040  1.00  0.00    -0.408 C  
ENDROOT
BRANCH   2   4
HETATM    4  C   UNL     1     -10.854  12.528  65.791  1.00  0.00    -0.276 A  
HETATM    5  N   UNL     1     -10.218  11.440  66.215  1.00  0.00    -0.225 NA 
HETATM    6  C   UNL     1      -9.926  11.372  67.506  1.00  0.00    -0.182 A  
HETATM    7  N   UNL     1     -10.254  12.334  68.362  1.00  0.00    -0.216 NA 
HETATM    8  N   UNL     1     -11.184  13.524  66.601  1.00  0.00    -0.306 NA 
HETATM    9  C   UNL     1     -10.877  13.405  67.882  1.00  0.00    -0.247 A  
BRANCH   6  10
HETATM   10  N   UNL     1      -9.193  10.298  67.980  1.00  0.00    -0.134 NA 
HETATM   11  C   UNL     1      -9.391   8.983  67.397  1.00  0.00    -0.139 C  
HETATM   12  C   UNL     1      -8.677  10.345  69.335  1.00  0.00    -0.124 C  
ENDBRANCH   6  10
BRANCH   9  13
HETATM   13  N   UNL     1     -11.257  14.402  68.759  1.00  0.00    -0.247 NA 
HETATM   14  C   UNL     1     -11.101  15.797  68.392  1.00  0.00    -0.341 C  
HETATM   15  C   UNL     1     -12.140  14.097  69.868  1.00  0.00    -0.347 C  
ENDBRANCH   9  13
ENDBRANCH   2   4
TORSDOF 3
ENDMDL
MODEL      116
REMARK 921   NORMALIZED FREE ENERGY PREDICTED BY IDOCK:   -3.37 KCAL/MOL
REMARK 922        TOTAL FREE ENERGY PREDICTED BY IDOCK:   -4.23 KCAL/MOL
REMARK 923 INTER-LIGAND FREE ENERGY PREDICTED BY IDOCK:   -3.96 KCAL/MOL
REMARK 924 INTRA-LIGAND FREE ENERGY PREDICTED BY IDOCK:   -0.26 KCAL/MOL
REMARK 927      BINDING AFFINITY PREDICTED BY RF-SCORE:    0.00 PKD
ROOT
HETATM    1  C   UNL     1     -11.027   6.350  67.418  1.00  0.00    -0.376 C  
HETATM    2  N   UNL     1     -10.290   5.693  68.479  1.00  0.00    -0.195 NA 
HETATM    3  C   UNL     1      -9.583   4.458  68.217  1.00  0.00    -0.138 C  
ENDROOT
BRANCH   2   4
HETATM    4  C   UNL     1     -10.690   5.936  69.785  1.00  0.00    -0.340 A  
HETATM    5  N   UNL     1     -10.324   5.094  70.746  1.00  0.00    -0.241 NA 
HETATM    6  C   UNL     1     -10.757   5.347  71.973  1.00  0.00    -0.220 A  
HETATM    7  N   UNL     1     -11.533   6.389  72.254  1.00  0.00    -0.286 NA 
HETATM    8  N   UNL     1     -11.445   7.001  70.018  1.00  0.00    -0.248 NA 
HETATM    9  C   UNL     1     -11.858   7.206  71.258  1.00  0.00    -0.318 A  
BRANCH   6  10
HETATM   10  N   UNL     1     -10.337   4.545  73.020  1.00  0.00    -0.169 NA 
HETATM   11  C   UNL     1     -10.703   3.140  73.038  1.00  0.00    -0.122 C  
HETATM   12  C   UNL     1     -10.035   5.163  74.298  1.00  0.00    -0.213 C  
ENDBRANCH   6  10
BRANCH   9  13
HETATM   13  N   UNL     1     -12.689   8.277  71.520  1.00  0.00    -0.313 NA 
HETATM   14  C   UNL     1     -12.274   9.626  71.183  1.00  0.00    -0.350 C  
HETATM   15  C   UNL     1     -14.099   8.055  71.775  1.00  0.00    -0.434 C  
ENDBRANCH   9  13
ENDBRANCH   2   4
TORSDOF 3
ENDMDL
MODEL      117
REMARK 921   NORMALIZED FREE ENERGY PREDICTED BY IDOCK:   -3.37 KCAL/MOL
REMARK 922        TOTAL FREE ENERGY PREDICTED BY IDOCK:   -4.22 KCAL/MOL
REMARK 923 INTER-LIGAND FREE ENERGY PREDICTED BY IDOCK:   -3.95 KCAL/MOL
REMARK 924 INTRA-LIGAND FREE ENERGY PREDICTED BY IDOCK:   -0.27 KCAL/MOL
REMARK 927      BINDING AFFINITY PREDICTED BY RF-SCORE:    0.00 PKD
ROOT
HETATM    1  C   UNL     1     -10.044   9.332  66.740  1.00  0.00    -0.261 C  
HETATM    2  N   UNL     1     -10.030  10.481  67.624  1.00  0.00    -0.169 NA 
HETATM    3  C   UNL     1     -10.636  10.398  68.935  1.00  0.00    -0.216 C  
ENDROOT
BRANCH   2   4
HETATM    4  C   UNL     1      -9.932  11.737  67.043  1.00  0.00    -0.204 A  
HETATM    5  N   UNL     1     -10.699  12.034  65.999  1.00  0.00    -0.269 NA 
HETATM    6  C   UNL     1     -10.548  13.233  65.455  1.00  0.00    -0.287 A  
HETATM    7  N   UNL     1      -9.667  14.117  65.912  1.00  0.00    -0.275 NA 
HETATM    8  N   UNL     1      -9.053  12.592  67.549  1.00  0.00    -0.179 NA 
HETATM    9  C   UNL     1      -8.935  13.774  66.967  1.00  0.00    -0.238 A  
BRANCH   6  10
HETATM   10  N   UNL     1     -11.381  13.618  64.418  1.00  0.00    -0.378 NA 
HETATM   11  C   UNL     1     -11.920  14.966  64.394  1.00  0.00    -0.394 C  
HETATM   12  C   UNL     1     -12.126  12.599  63.703  1.00  0.00    -0.547 C  
ENDBRANCH   6  10
BRANCH   9  13
HETATM   13  N   UNL     1      -7.990  14.664  67.438  1.00  0.00    -0.190 NA 
HETATM   14  C   UNL     1      -7.720  15.894  66.718  1.00  0.00    -0.210 C  
HETATM   15  C   UNL     1      -7.537  14.580  68.813  1.00  0.00    -0.131 C  
ENDBRANCH   9  13
ENDBRANCH   2   4
TORSDOF 3
ENDMDL
MODEL      118
REMARK 921   NORMALIZED FREE ENERGY PREDICTED BY IDOCK:   -3.36 KCAL/MOL
REMARK 922        TOTAL FREE ENERGY PREDICTED BY IDOCK:   -4.21 KCAL/MOL
REMARK 923 INTER-LIGAND FREE ENERGY PREDICTED BY IDOCK:   -3.95 KCAL/MOL
REMARK 924 INTRA-LIGAND FREE ENERGY PREDICTED BY IDOCK:   -0.27 KCAL/MOL
REMARK 927      BINDING AFFINITY PREDICTED BY RF-SCORE:    0.00 PKD
ROOT
HETATM    1  C   UNL     1      -8.074   8.504  67.354  1.00  0.00    -0.106 C  
HETATM    2  N   UNL     1      -8.315   9.876  66.952  1.00  0.00    -0.124 NA 
HETATM    3  C   UNL     1      -7.207  10.733  66.592  1.00  0.00    -0.134 C  
ENDROOT
BRANCH   2   4
HETATM    4  C   UNL     1      -9.473  10.486  67.412  1.00  0.00    -0.153 A  
HETATM    5  N   UNL     1     -10.076  10.007  68.496  1.00  0.00    -0.163 NA 
HETATM    6  C   UNL     1     -11.197  10.601  68.879  1.00  0.00    -0.275 A  
HETATM    7  N   UNL     1     -11.721  11.628  68.220  1.00  0.00    -0.442 NA 
HETATM    8  N   UNL     1      -9.944  11.522  66.731  1.00  0.00    -0.205 NA 
HETATM    9  C   UNL     1     -11.070  12.075  67.151  1.00  0.00    -0.290 A  
BRANCH   6  10
HETATM   10  N   UNL     1     -11.817  10.190  70.047  1.00  0.00    -0.215 NA 
HETATM   11  C   UNL     1     -12.744  11.083  70.718  1.00  0.00    -0.323 C  
HETATM   12  C   UNL     1     -11.175   9.176  70.862  1.00  0.00    -0.295 C  
ENDBRANCH   6  10
BRANCH   9  13
HETATM   13  N   UNL     1     -11.613  13.121  66.431  1.00  0.00    -0.332 NA 
HETATM   14  C   UNL     1     -12.351  12.862  65.209  1.00  0.00    -0.490 C  
HETATM   15  C   UNL     1     -11.786  14.419  67.054  1.00  0.00    -0.399 C  
ENDBRANCH   9  13
ENDBRANCH   2   4
TORSDOF 3
ENDMDL
MODEL      119
REMARK 921   NORMALIZED FREE ENERGY PREDICTED BY IDOCK:   -3.36 KCAL/MOL
REMARK 922        TOTAL FREE ENERGY PREDICTED BY IDOCK:   -4.21 KCAL/MOL
REMARK 923 INTER-LIGAND FREE ENERGY PREDICTED BY IDOCK:   -3.95 KCAL/MOL
REMARK 924 INTRA-LIGAND FREE ENERGY PREDICTED BY IDOCK:   -0.27 KCAL/MOL
REMARK 927      BINDING AFFINITY PREDICTED BY RF-SCORE:    0.00 PKD
ROOT
HETATM    1  C   UNL     1     -10.787   9.345  69.599  1.00  0.00    -0.228 C  
HETATM    2  N   UNL     1     -11.059  10.667  69.069  1.00  0.00    -0.235 NA 
HETATM    3  C   UNL     1     -12.125  11.469  69.629  1.00  0.00    -0.296 C  
ENDROOT
BRANCH   2   4
HETATM    4  C   UNL     1     -10.688  10.922  67.758  1.00  0.00    -0.235 A  
HETATM    5  N   UNL     1     -11.387  11.797  67.041  1.00  0.00    -0.376 NA 
HETATM    6  C   UNL     1     -11.016  11.985  65.782  1.00  0.00    -0.307 A  
HETATM    7  N   UNL     1      -9.997  11.332  65.234  1.00  0.00    -0.239 NA 
HETATM    8  N   UNL     1      -9.649  10.262  67.263  1.00  0.00    -0.157 NA 
HETATM    9  C   UNL     1      -9.324  10.479  66.000  1.00  0.00    -0.178 A  
BRANCH   6  10
HETATM   10  N   UNL     1     -11.663  12.944  65.020  1.00  0.00    -0.327 NA 
HETATM   11  C   UNL     1     -12.499  13.934  65.675  1.00  0.00    -0.505 C  
HETATM   12  C   UNL     1     -11.952  12.654  63.629  1.00  0.00    -0.535 C  
ENDBRANCH   6  10
BRANCH   9  13
HETATM   13  N   UNL     1      -8.281   9.766  65.443  1.00  0.00    -0.126 NA 
HETATM   14  C   UNL     1      -8.517   8.455  64.867  1.00  0.00    -0.122 C  
HETATM   15  C   UNL     1      -7.049  10.441  65.085  1.00  0.00    -0.080 C  
ENDBRANCH   9  13
ENDBRANCH   2   4
TORSDOF 3
ENDMDL
MODEL      120
REMARK 921   NORMALIZED FREE ENERGY PREDICTED BY IDOCK:   -3.34 KCAL/MOL
REMARK 922        TOTAL FREE ENERGY PREDICTED BY IDOCK:   -4.18 KCAL/MOL
REMARK 923 INTER-LIGAND FREE ENERGY PREDICTED BY IDOCK:   -3.93 KCAL/MOL
REMARK 924 INTRA-LIGAND FREE ENERGY PREDICTED BY IDOCK:   -0.25 KCAL/MOL
REMARK 927      BINDING AFFINITY PREDICTED BY RF-SCORE:    0.00 PKD
ROOT
HETATM    1  C   UNL     1      -9.921  10.080  65.373  1.00  0.00    -0.294 C  
HETATM    2  N   UNL     1      -9.157  11.132  66.014  1.00  0.00    -0.198 NA 
HETATM    3  C   UNL     1      -7.840  10.855  66.544  1.00  0.00    -0.152 C  
ENDROOT
BRANCH   2   4
HETATM    4  C   UNL     1      -9.861  12.189  66.573  1.00  0.00    -0.218 A  
HETATM    5  N   UNL     1     -10.381  12.055  67.789  1.00  0.00    -0.194 NA 
HETATM    6  C   UNL     1     -11.074  13.078  68.269  1.00  0.00    -0.263 A  
HETATM    7  N   UNL     1     -11.263  14.197  67.579  1.00  0.00    -0.294 NA 
HETATM    8  N   UNL     1     -10.003  13.294  65.853  1.00  0.00    -0.286 NA 
HETATM    9  C   UNL     1     -10.710  14.283  66.374  1.00  0.00    -0.297 A  
BRANCH   6  10
HETATM   10  N   UNL     1     -11.565  13.017  69.563  1.00  0.00    -0.288 NA 
HETATM   11  C   UNL     1     -12.145  11.779  70.051  1.00  0.00    -0.310 C  
HETATM   12  C   UNL     1     -11.996  14.244  70.206  1.00  0.00    -0.329 C  
ENDBRANCH   6  10
BRANCH   9  13
HETATM   13  N   UNL     1     -10.920  15.425  65.625  1.00  0.00    -0.337 NA 
HETATM   14  C   UNL     1     -11.774  15.383  64.453  1.00  0.00    -0.258 C  
HETATM   15  C   UNL     1     -10.618  16.727  66.186  1.00  0.00    -0.210 C  
ENDBRANCH   9  13
ENDBRANCH   2   4
TORSDOF 3
ENDMDL
MODEL      121
REMARK 921   NORMALIZED FREE ENERGY PREDICTED BY IDOCK:   -3.32 KCAL/MOL
REMARK 922        TOTAL FREE ENERGY PREDICTED BY IDOCK:   -4.17 KCAL/MOL
REMARK 923 INTER-LIGAND FREE ENERGY PREDICTED BY IDOCK:   -3.90 KCAL/MOL
REMARK 924 INTRA-LIGAND FREE ENERGY PREDICTED BY IDOCK:   -0.27 KCAL/MOL
REMARK 927      BINDING AFFINITY PREDICTED BY RF-SCORE:    0.00 PKD
ROOT
HETATM    1  C   UNL     1      -9.502   2.699  71.781  1.00  0.00    -0.135 C  
HETATM    2  N   UNL     1     -10.025   3.886  72.427  1.00  0.00    -0.160 NA 
HETATM    3  C   UNL     1     -10.520   3.816  73.785  1.00  0.00    -0.191 C  
ENDROOT
BRANCH   2   4
HETATM    4  C   UNL     1     -10.527   4.892  71.614  1.00  0.00    -0.126 A  
HETATM    5  N   UNL     1     -11.425   5.740  72.106  1.00  0.00    -0.268 NA 
HETATM    6  C   UNL     1     -11.902   6.664  71.284  1.00  0.00    -0.350 A  
HETATM    7  N   UNL     1     -11.520   6.754  70.015  1.00  0.00    -0.344 NA 
HETATM    8  N   UNL     1     -10.097   4.953  70.361  1.00  0.00    -0.247 NA 
HETATM    9  C   UNL     1     -10.609   5.890  69.579  1.00  0.00    -0.308 A  
BRANCH   6  10
HETATM   10  N   UNL     1     -12.778   7.619  71.772  1.00  0.00    -0.327 NA 
HETATM   11  C   UNL     1     -14.202   7.474  71.528  1.00  0.00    -0.445 C  
HETATM   12  C   UNL     1     -12.286   8.961  72.017  1.00  0.00    -0.377 C  
ENDBRANCH   6  10
BRANCH   9  13
HETATM   13  N   UNL     1     -10.221   5.944  68.255  1.00  0.00    -0.167 NA 
HETATM   14  C   UNL     1     -11.072   6.584  67.269  1.00  0.00    -0.350 C  
HETATM   15  C   UNL     1      -8.835   5.714  67.895  1.00  0.00    -0.105 C  
ENDBRANCH   9  13
ENDBRANCH   2   4
TORSDOF 3
ENDMDL
MODEL      122
REMARK 921   NORMALIZED FREE ENERGY PREDICTED BY IDOCK:   -3.32 KCAL/MOL
REMARK 922        TOTAL FREE ENERGY PREDICTED BY IDOCK:   -4.17 KCAL/MOL
REMARK 923 INTER-LIGAND FREE ENERGY PREDICTED BY IDOCK:   -3.93 KCAL/MOL
REMARK 924 INTRA-LIGAND FREE ENERGY PREDICTED BY IDOCK:   -0.24 KCAL/MOL
REMARK 927      BINDING AFFINITY PREDICTED BY RF-SCORE:    0.00 PKD
ROOT
HETATM    1  C   UNL     1      -7.382  12.550  67.083  1.00  0.00    -0.063 C  
HETATM    2  N   UNL     1      -8.576  11.831  67.480  1.00  0.00    -0.150 NA 
HETATM    3  C   UNL     1      -8.674  10.405  67.260  1.00  0.00    -0.125 C  
ENDROOT
BRANCH   2   4
HETATM    4  C   UNL     1      -9.761  12.548  67.561  1.00  0.00    -0.196 A  
HETATM    5  N   UNL     1     -10.237  12.889  68.754  1.00  0.00    -0.152 NA 
HETATM    6  C   UNL     1     -11.389  13.545  68.784  1.00  0.00    -0.290 A  
HETATM    7  N   UNL     1     -12.063  13.852  67.681  1.00  0.00    -0.359 NA 
HETATM    8  N   UNL     1     -10.385  12.850  66.430  1.00  0.00    -0.263 NA 
HETATM    9  C   UNL     1     -11.535  13.499  66.514  1.00  0.00    -0.339 A  
BRANCH   6  10
HETATM   10  N   UNL     1     -11.884  13.992  69.998  1.00  0.00    -0.306 NA 
HETATM   11  C   UNL     1     -12.473  13.042  70.924  1.00  0.00    -0.310 C  
HETATM   12  C   UNL     1     -12.307  15.375  70.115  1.00  0.00    -0.361 C  
ENDBRANCH   6  10
BRANCH   9  13
HETATM   13  N   UNL     1     -12.234  13.779  65.356  1.00  0.00    -0.412 NA 
HETATM   14  C   UNL     1     -12.078  15.063  64.700  1.00  0.00    -0.323 C  
HETATM   15  C   UNL     1     -12.822  12.701  64.585  1.00  0.00    -0.275 C  
ENDBRANCH   9  13
ENDBRANCH   2   4
TORSDOF 3
ENDMDL
MODEL      123
REMARK 921   NORMALIZED FREE ENERGY PREDICTED BY IDOCK:   -3.27 KCAL/MOL
REMARK 922        TOTAL FREE ENERGY PREDICTED BY IDOCK:   -4.11 KCAL/MOL
REMARK 923 INTER-LIGAND FREE ENERGY PREDICTED BY IDOCK:   -3.85 KCAL/MOL
REMARK 924 INTRA-LIGAND FREE ENERGY PREDICTED BY IDOCK:   -0.26 KCAL/MOL
REMARK 927      BINDING AFFINITY PREDICTED BY RF-SCORE:    0.00 PKD
ROOT
HETATM    1  C   UNL     1     -12.107  12.148  63.788  1.00  0.00    -0.525 C  
HETATM    2  N   UNL     1     -10.672  12.208  63.983  1.00  0.00    -0.346 NA 
HETATM    3  C   UNL     1      -9.794  11.379  63.187  1.00  0.00    -0.388 C  
ENDROOT
BRANCH   2   4
HETATM    4  C   UNL     1     -10.208  12.624  65.223  1.00  0.00    -0.284 A  
HETATM    5  N   UNL     1      -9.482  11.789  65.960  1.00  0.00    -0.229 NA 
HETATM    6  C   UNL     1      -9.089  12.216  67.151  1.00  0.00    -0.189 A  
HETATM    7  N   UNL     1      -9.402  13.421  67.615  1.00  0.00    -0.208 NA 
HETATM    8  N   UNL     1     -10.529  13.844  65.632  1.00  0.00    -0.300 NA 
HETATM    9  C   UNL     1     -10.119  14.220  66.832  1.00  0.00    -0.264 A  
BRANCH   6  10
HETATM   10  N   UNL     1      -8.263  11.414  67.921  1.00  0.00    -0.126 NA 
HETATM   11  C   UNL     1      -8.825  10.666  69.032  1.00  0.00    -0.148 C  
HETATM   12  C   UNL     1      -6.847  11.724  67.986  1.00  0.00    -0.074 C  
ENDBRANCH   6  10
BRANCH   9  13
HETATM   13  N   UNL     1     -10.484  15.464  67.307  1.00  0.00    -0.276 NA 
HETATM   14  C   UNL     1     -10.467  15.737  68.732  1.00  0.00    -0.228 C  
HETATM   15  C   UNL     1     -10.520  16.602  66.408  1.00  0.00    -0.266 C  
ENDBRANCH   9  13
ENDBRANCH   2   4
TORSDOF 3
ENDMDL
MODEL      124
REMARK 921   NORMALIZED FREE ENERGY PREDICTED BY IDOCK:   -3.27 KCAL/MOL
REMARK 922        TOTAL FREE ENERGY PREDICTED BY IDOCK:   -4.11 KCAL/MOL
REMARK 923 INTER-LIGAND FREE ENERGY PREDICTED BY IDOCK:   -3.85 KCAL/MOL
REMARK 924 INTRA-LIGAND FREE ENERGY PREDICTED BY IDOCK:   -0.26 KCAL/MOL
REMARK 927      BINDING AFFINITY PREDICTED BY RF-SCORE:    0.00 PKD
ROOT
HETATM    1  C   UNL     1      -7.762  19.526  68.056  1.00  0.00    -0.299 C  
HETATM    2  N   UNL     1      -9.102  18.975  68.102  1.00  0.00    -0.309 NA 
HETATM    3  C   UNL     1     -10.249  19.854  68.145  1.00  0.00    -0.432 C  
ENDROOT
BRANCH   2   4
HETATM    4  C   UNL     1      -9.253  17.699  68.626  1.00  0.00    -0.266 A  
HETATM    5  N   UNL     1     -10.327  17.420  69.359  1.00  0.00    -0.232 NA 
HETATM    6  C   UNL     1     -10.414  16.199  69.868  1.00  0.00    -0.261 A  
HETATM    7  N   UNL     1      -9.476  15.278  69.674  1.00  0.00    -0.212 NA 
HETATM    8  N   UNL     1      -8.301  16.809  68.386  1.00  0.00    -0.213 NA 
HETATM    9  C   UNL     1      -8.431  15.606  68.922  1.00  0.00    -0.213 A  
BRANCH   6  10
HETATM   10  N   UNL     1     -11.551  15.835  70.570  1.00  0.00    -0.343 NA 
HETATM   11  C   UNL     1     -11.583  15.994  72.012  1.00  0.00    -0.414 C  
HETATM   12  C   UNL     1     -12.439  14.841  69.998  1.00  0.00    -0.281 C  
ENDBRANCH   6  10
BRANCH   9  13
HETATM   13  N   UNL     1      -7.428  14.675  68.734  1.00  0.00    -0.128 NA 
HETATM   14  C   UNL     1      -6.090  14.930  69.235  1.00  0.00    -0.107 C  
HETATM   15  C   UNL     1      -7.763  13.308  68.385  1.00  0.00    -0.138 C  
ENDBRANCH   9  13
ENDBRANCH   2   4
TORSDOF 3
ENDMDL
MODEL      125
REMARK 921   NORMALIZED FREE ENERGY PREDICTED BY IDOCK:   -3.27 KCAL/MOL
REMARK 922        TOTAL FREE ENERGY PREDICTED BY IDOCK:   -4.10 KCAL/MOL
REMARK 923 INTER-LIGAND FREE ENERGY PREDICTED BY IDOCK:   -3.84 KCAL/MOL
REMARK 924 INTRA-LIGAND FREE ENERGY PREDICTED BY IDOCK:   -0.27 KCAL/MOL
REMARK 927      BINDING AFFINITY PREDICTED BY RF-SCORE:    0.00 PKD
ROOT
HETATM    1  C   UNL     1      -9.630   3.848  71.774  1.00  0.00    -0.158 C  
HETATM    2  N   UNL     1     -10.529   4.829  72.347  1.00  0.00    -0.200 NA 
HETATM    3  C   UNL     1     -11.500   4.431  73.342  1.00  0.00    -0.203 C  
ENDROOT
BRANCH   2   4
HETATM    4  C   UNL     1     -10.811   5.960  71.595  1.00  0.00    -0.263 A  
HETATM    5  N   UNL     1     -10.068   6.234  70.527  1.00  0.00    -0.185 NA 
HETATM    6  C   UNL     1     -10.353   7.341  69.857  1.00  0.00    -0.219 A  
HETATM    7  N   UNL     1     -11.329   8.165  70.223  1.00  0.00    -0.192 NA 
HETATM    8  N   UNL     1     -11.811   6.738  71.988  1.00  0.00    -0.305 NA 
HETATM    9  C   UNL     1     -12.050   7.836  71.290  1.00  0.00    -0.306 A  
BRANCH   6  10
HETATM   10  N   UNL     1      -9.660   7.627  68.692  1.00  0.00    -0.151 NA 
HETATM   11  C   UNL     1      -8.316   8.172  68.774  1.00  0.00    -0.126 C  
HETATM   12  C   UNL     1     -10.409   7.904  67.481  1.00  0.00    -0.259 C  
ENDBRANCH   6  10
BRANCH   9  13
HETATM   13  N   UNL     1     -13.049   8.693  71.708  1.00  0.00    -0.345 NA 
HETATM   14  C   UNL     1     -12.869  10.129  71.610  1.00  0.00    -0.454 C  
HETATM   15  C   UNL     1     -14.400   8.199  71.889  1.00  0.00    -0.472 C  
ENDBRANCH   9  13
ENDBRANCH   2   4
TORSDOF 3
ENDMDL
MODEL      126
REMARK 921   NORMALIZED FREE ENERGY PREDICTED BY IDOCK:   -3.22 KCAL/MOL
REMARK 922        TOTAL FREE ENERGY PREDICTED BY IDOCK:   -4.04 KCAL/MOL
REMARK 923 INTER-LIGAND FREE ENERGY PREDICTED BY IDOCK:   -3.77 KCAL/MOL
REMARK 924 INTRA-LIGAND FREE ENERGY PREDICTED BY IDOCK:   -0.27 KCAL/MOL
REMARK 927      BINDING AFFINITY PREDICTED BY RF-SCORE:    0.00 PKD
ROOT
HETATM    1  C   UNL     1      -8.741   6.293  68.247  1.00  0.00    -0.115 C  
HETATM    2  N   UNL     1     -10.020   6.726  67.720  1.00  0.00    -0.132 NA 
HETATM    3  C   UNL     1     -10.785   5.851  66.859  1.00  0.00    -0.321 C  
ENDROOT
BRANCH   2   4
HETATM    4  C   UNL     1     -10.237   8.091  67.601  1.00  0.00    -0.228 A  
HETATM    5  N   UNL     1     -10.635   8.783  68.664  1.00  0.00    -0.181 NA 
HETATM    6  C   UNL     1     -10.863  10.077  68.495  1.00  0.00    -0.231 A  
HETATM    7  N   UNL     1     -10.714  10.680  67.320  1.00  0.00    -0.270 NA 
HETATM    8  N   UNL     1     -10.053   8.650  66.412  1.00  0.00    -0.274 NA 
HETATM    9  C   UNL     1     -10.300   9.944  66.294  1.00  0.00    -0.163 A  
BRANCH   6  10
HETATM   10  N   UNL     1     -11.201  10.855  69.590  1.00  0.00    -0.262 NA 
HETATM   11  C   UNL     1     -11.597  10.212  70.830  1.00  0.00    -0.372 C  
HETATM   12  C   UNL     1     -11.678  12.207  69.368  1.00  0.00    -0.329 C  
ENDBRANCH   6  10
BRANCH   9  13
HETATM   13  N   UNL     1     -10.170  10.542  65.056  1.00  0.00    -0.317 NA 
HETATM   14  C   UNL     1     -10.682  11.881  64.834  1.00  0.00    -0.301 C  
HETATM   15  C   UNL     1      -9.216  10.023  64.096  1.00  0.00    -0.271 C  
ENDBRANCH   9  13
ENDBRANCH   2   4
TORSDOF 3
ENDMDL
MODEL      127
REMARK 921   NORMALIZED FREE ENERGY PREDICTED BY IDOCK:   -3.20 KCAL/MOL
REMARK 922        TOTAL FREE ENERGY PREDICTED BY IDOCK:   -4.02 KCAL/MOL
REMARK 923 INTER-LIGAND FREE ENERGY PREDICTED BY IDOCK:   -3.76 KCAL/MOL
REMARK 924 INTRA-LIGAND FREE ENERGY PREDICTED BY IDOCK:   -0.26 KCAL/MOL
REMARK 927      BINDING AFFINITY PREDICTED BY RF-SCORE:    0.00 PKD
ROOT
HETATM    1  C   UNL     1     -13.206  15.340  70.587  1.00  0.00    -0.323 C  
HETATM    2  N   UNL     1     -12.376  14.354  69.923  1.00  0.00    -0.329 NA 
HETATM    3  C   UNL     1     -12.401  12.974  70.354  1.00  0.00    -0.277 C  
ENDROOT
BRANCH   2   4
HETATM    4  C   UNL     1     -11.229  14.805  69.286  1.00  0.00    -0.283 A  
HETATM    5  N   UNL     1     -10.196  13.980  69.144  1.00  0.00    -0.087 NA 
HETATM    6  C   UNL     1      -9.109  14.463  68.559  1.00  0.00    -0.193 A  
HETATM    7  N   UNL     1      -9.028  15.718  68.132  1.00  0.00    -0.178 NA 
HETATM    8  N   UNL     1     -11.205  16.059  68.858  1.00  0.00    -0.331 NA 
HETATM    9  C   UNL     1     -10.095  16.496  68.287  1.00  0.00    -0.259 A  
BRANCH   6  10
HETATM   10  N   UNL     1      -8.037  13.620  68.316  1.00  0.00    -0.149 NA 
HETATM   11  C   UNL     1      -6.690  14.069  68.620  1.00  0.00    -0.096 C  
HETATM   12  C   UNL     1      -8.175  12.585  67.309  1.00  0.00    -0.184 C  
ENDBRANCH   6  10
BRANCH   9  13
HETATM   13  N   UNL     1     -10.022  17.813  67.880  1.00  0.00    -0.306 NA 
HETATM   14  C   UNL     1     -10.319  18.171  66.505  1.00  0.00    -0.386 C  
HETATM   15  C   UNL     1     -10.024  18.878  68.864  1.00  0.00    -0.378 C  
ENDBRANCH   9  13
ENDBRANCH   2   4
TORSDOF 3
ENDMDL
MODEL      128
REMARK 921   NORMALIZED FREE ENERGY PREDICTED BY IDOCK:   -3.20 KCAL/MOL
REMARK 922        TOTAL FREE ENERGY PREDICTED BY IDOCK:   -4.02 KCAL/MOL
REMARK 923 INTER-LIGAND FREE ENERGY PREDICTED BY IDOCK:   -3.78 KCAL/MOL
REMARK 924 INTRA-LIGAND FREE ENERGY PREDICTED BY IDOCK:   -0.24 KCAL/MOL
REMARK 927      BINDING AFFINITY PREDICTED BY RF-SCORE:    0.00 PKD
ROOT
HETATM    1  C   UNL     1     -12.706  15.398  70.386  1.00  0.00    -0.362 C  
HETATM    2  N   UNL     1     -12.023  14.210  69.913  1.00  0.00    -0.317 NA 
HETATM    3  C   UNL     1     -12.085  12.983  70.677  1.00  0.00    -0.248 C  
ENDROOT
BRANCH   2   4
HETATM    4  C   UNL     1     -10.932  14.387  69.076  1.00  0.00    -0.256 A  
HETATM    5  N   UNL     1     -10.895  13.750  67.909  1.00  0.00    -0.240 NA 
HETATM    6  C   UNL     1      -9.819  13.922  67.156  1.00  0.00    -0.241 A  
HETATM    7  N   UNL     1      -8.801  14.689  67.533  1.00  0.00    -0.177 NA 
HETATM    8  N   UNL     1      -9.951  15.179  69.487  1.00  0.00    -0.224 NA 
HETATM    9  C   UNL     1      -8.895  15.313  68.702  1.00  0.00    -0.188 A  
BRANCH   6  10
HETATM   10  N   UNL     1      -9.770  13.345  65.898  1.00  0.00    -0.230 NA 
HETATM   11  C   UNL     1     -10.457  13.983  64.790  1.00  0.00    -0.421 C  
HETATM   12  C   UNL     1      -9.536  11.917  65.792  1.00  0.00    -0.196 C  
ENDBRANCH   6  10
BRANCH   9  13
HETATM   13  N   UNL     1      -7.835  16.089  69.129  1.00  0.00    -0.225 NA 
HETATM   14  C   UNL     1      -6.646  15.464  69.679  1.00  0.00    -0.178 C  
HETATM   15  C   UNL     1      -7.728  17.470  68.702  1.00  0.00    -0.275 C  
ENDBRANCH   9  13
ENDBRANCH   2   4
TORSDOF 3
ENDMDL
MODEL      129
REMARK 921   NORMALIZED FREE ENERGY PREDICTED BY IDOCK:   -3.19 KCAL/MOL
REMARK 922        TOTAL FREE ENERGY PREDICTED BY IDOCK:   -4.01 KCAL/MOL
REMARK 923 INTER-LIGAND FREE ENERGY PREDICTED BY IDOCK:   -3.73 KCAL/MOL
REMARK 924 INTRA-LIGAND FREE ENERGY PREDICTED BY IDOCK:   -0.27 KCAL/MOL
REMARK 927      BINDING AFFINITY PREDICTED BY RF-SCORE:    0.00 PKD
ROOT
HETATM    1  C   UNL     1      -6.415   9.929  70.063  1.00  0.00    -0.082 C  
HETATM    2  N   UNL     1      -7.452   9.388  70.918  1.00  0.00    -0.267 NA 
HETATM    3  C   UNL     1      -7.168   8.266  71.785  1.00  0.00    -0.087 C  
ENDROOT
BRANCH   2   4
HETATM    4  C   UNL     1      -8.770   9.576  70.528  1.00  0.00    -0.197 A  
HETATM    5  N   UNL     1      -9.030  10.266  69.421  1.00  0.00    -0.190 NA 
HETATM    6  C   UNL     1     -10.304  10.449  69.104  1.00  0.00    -0.222 A  
HETATM    7  N   UNL     1     -11.298   9.981  69.851  1.00  0.00    -0.254 NA 
HETATM    8  N   UNL     1      -9.726   9.071  71.295  1.00  0.00    -0.289 NA 
HETATM    9  C   UNL     1     -10.982   9.288  70.940  1.00  0.00    -0.299 A  
BRANCH   6  10
HETATM   10  N   UNL     1     -10.623  11.090  67.919  1.00  0.00    -0.193 NA 
HETATM   11  C   UNL     1     -11.669  12.097  67.909  1.00  0.00    -0.336 C  
HETATM   12  C   UNL     1     -10.343  10.421  66.663  1.00  0.00    -0.231 C  
ENDBRANCH   6  10
BRANCH   9  13
HETATM   13  N   UNL     1     -11.999   8.820  71.749  1.00  0.00    -0.324 NA 
HETATM   14  C   UNL     1     -11.753   7.734  72.679  1.00  0.00    -0.309 C  
HETATM   15  C   UNL     1     -13.188   9.623  71.958  1.00  0.00    -0.453 C  
ENDBRANCH   9  13
ENDBRANCH   2   4
TORSDOF 3
ENDMDL
MODEL      130
REMARK 921   NORMALIZED FREE ENERGY PREDICTED BY IDOCK:   -3.18 KCAL/MOL
REMARK 922        TOTAL FREE ENERGY PREDICTED BY IDOCK:   -4.00 KCAL/MOL
REMARK 923 INTER-LIGAND FREE ENERGY PREDICTED BY IDOCK:   -3.74 KCAL/MOL
REMARK 924 INTRA-LIGAND FREE ENERGY PREDICTED BY IDOCK:   -0.26 KCAL/MOL
REMARK 927      BINDING AFFINITY PREDICTED BY RF-SCORE:    0.00 PKD
ROOT
HETATM    1  C   UNL     1      -9.751  10.448  67.215  1.00  0.00    -0.165 C  
HETATM    2  N   UNL     1      -9.987   9.135  67.782  1.00  0.00    -0.178 NA 
HETATM    3  C   UNL     1     -10.466   8.057  66.945  1.00  0.00    -0.317 C  
ENDROOT
BRANCH   2   4
HETATM    4  C   UNL     1     -10.261   9.061  69.140  1.00  0.00    -0.205 A  
HETATM    5  N   UNL     1     -11.378   9.609  69.610  1.00  0.00    -0.137 NA 
HETATM    6  C   UNL     1     -11.582   9.543  70.918  1.00  0.00    -0.326 A  
HETATM    7  N   UNL     1     -10.718   8.967  71.746  1.00  0.00    -0.341 NA 
HETATM    8  N   UNL     1      -9.378   8.456  69.922  1.00  0.00    -0.154 NA 
HETATM    9  C   UNL     1      -9.625   8.424  71.222  1.00  0.00    -0.185 A  
BRANCH   6  10
HETATM   10  N   UNL     1     -12.768  10.027  71.444  1.00  0.00    -0.379 NA 
HETATM   11  C   UNL     1     -13.010  11.459  71.467  1.00  0.00    -0.399 C  
HETATM   12  C   UNL     1     -13.480   9.224  72.421  1.00  0.00    -0.459 C  
ENDBRANCH   6  10
BRANCH   9  13
HETATM   13  N   UNL     1      -8.696   7.848  72.067  1.00  0.00    -0.126 NA 
HETATM   14  C   UNL     1      -8.831   7.988  73.505  1.00  0.00    -0.268 C  
HETATM   15  C   UNL     1      -7.815   6.807  71.576  1.00  0.00    -0.101 C  
ENDBRANCH   9  13
ENDBRANCH   2   4
TORSDOF 3
ENDMDL
MODEL      131
REMARK 921   NORMALIZED FREE ENERGY PREDICTED BY IDOCK:   -3.17 KCAL/MOL
REMARK 922        TOTAL FREE ENERGY PREDICTED BY IDOCK:   -3.99 KCAL/MOL
REMARK 923 INTER-LIGAND FREE ENERGY PREDICTED BY IDOCK:   -3.71 KCAL/MOL
REMARK 924 INTRA-LIGAND FREE ENERGY PREDICTED BY IDOCK:   -0.28 KCAL/MOL
REMARK 927      BINDING AFFINITY PREDICTED BY RF-SCORE:    0.00 PKD
ROOT
HETATM    1  C   UNL     1     -10.091   4.573  71.434  1.00  0.00    -0.160 C  
HETATM    2  N   UNL     1     -10.359   5.261  70.187  1.00  0.00    -0.281 NA 
HETATM    3  C   UNL     1      -9.811   4.757  68.947  1.00  0.00    -0.160 C  
ENDROOT
BRANCH   2   4
HETATM    4  C   UNL     1     -10.659   6.614  70.251  1.00  0.00    -0.222 A  
HETATM    5  N   UNL     1     -11.711   7.015  70.957  1.00  0.00    -0.315 NA 
HETATM    6  C   UNL     1     -11.979   8.313  70.963  1.00  0.00    -0.241 A  
HETATM    7  N   UNL     1     -11.246   9.195  70.292  1.00  0.00    -0.240 NA 
HETATM    8  N   UNL     1      -9.883   7.457  69.582  1.00  0.00    -0.173 NA 
HETATM    9  C   UNL     1     -10.197   8.742  69.614  1.00  0.00    -0.210 A  
BRANCH   6  10
HETATM   10  N   UNL     1     -13.016   8.789  71.749  1.00  0.00    -0.342 NA 
HETATM   11  C   UNL     1     -14.261   8.044  71.819  1.00  0.00    -0.456 C  
HETATM   12  C   UNL     1     -13.082  10.209  72.037  1.00  0.00    -0.437 C  
ENDBRANCH   6  10
BRANCH   9  13
HETATM   13  N   UNL     1      -9.440   9.636  68.883  1.00  0.00    -0.153 NA 
HETATM   14  C   UNL     1      -8.364   9.160  68.034  1.00  0.00    -0.120 C  
HETATM   15  C   UNL     1      -9.928  10.982  68.655  1.00  0.00    -0.199 C  
ENDBRANCH   9  13
ENDBRANCH   2   4
TORSDOF 3
ENDMDL
MODEL      132
REMARK 921   NORMALIZED FREE ENERGY PREDICTED BY IDOCK:   -3.16 KCAL/MOL
REMARK 922        TOTAL FREE ENERGY PREDICTED BY IDOCK:   -3.97 KCAL/MOL
REMARK 923 INTER-LIGAND FREE ENERGY PREDICTED BY IDOCK:   -3.70 KCAL/MOL
REMARK 924 INTRA-LIGAND FREE ENERGY PREDICTED BY IDOCK:   -0.27 KCAL/MOL
REMARK 927      BINDING AFFINITY PREDICTED BY RF-SCORE:    0.00 PKD
ROOT
HETATM    1  C   UNL     1     -12.016  14.400  64.812  1.00  0.00    -0.447 C  
HETATM    2  N   UNL     1     -11.078  13.837  65.763  1.00  0.00    -0.288 NA 
HETATM    3  C   UNL     1     -11.414  12.631  66.489  1.00  0.00    -0.353 C  
ENDROOT
BRANCH   2   4
HETATM    4  C   UNL     1     -10.157  14.697  66.344  1.00  0.00    -0.278 A  
HETATM    5  N   UNL     1      -9.069  14.194  66.919  1.00  0.00    -0.241 NA 
HETATM    6  C   UNL     1      -8.234  15.050  67.490  1.00  0.00    -0.182 A  
HETATM    7  N   UNL     1      -8.457  16.360  67.507  1.00  0.00    -0.167 NA 
HETATM    8  N   UNL     1     -10.415  15.997  66.315  1.00  0.00    -0.315 NA 
HETATM    9  C   UNL     1      -9.553  16.810  66.905  1.00  0.00    -0.245 A  
BRANCH   6  10
HETATM   10  N   UNL     1      -7.048  14.583  68.031  1.00  0.00    -0.123 NA 
HETATM   11  C   UNL     1      -6.004  15.526  68.389  1.00  0.00    -0.107 C  
HETATM   12  C   UNL     1      -6.634  13.223  67.742  1.00  0.00    -0.155 C  
ENDBRANCH   6  10
BRANCH   9  13
HETATM   13  N   UNL     1      -9.822  18.164  66.939  1.00  0.00    -0.314 NA 
HETATM   14  C   UNL     1     -10.636  18.722  68.003  1.00  0.00    -0.296 C  
HETATM   15  C   UNL     1      -9.014  19.084  66.162  1.00  0.00    -0.190 C  
ENDBRANCH   9  13
ENDBRANCH   2   4
TORSDOF 3
ENDMDL
MODEL      133
REMARK 921   NORMALIZED FREE ENERGY PREDICTED BY IDOCK:   -3.16 KCAL/MOL
REMARK 922        TOTAL FREE ENERGY PREDICTED BY IDOCK:   -3.97 KCAL/MOL
REMARK 923 INTER-LIGAND FREE ENERGY PREDICTED BY IDOCK:   -3.69 KCAL/MOL
REMARK 924 INTRA-LIGAND FREE ENERGY PREDICTED BY IDOCK:   -0.28 KCAL/MOL
REMARK 927      BINDING AFFINITY PREDICTED BY RF-SCORE:    0.00 PKD
ROOT
HETATM    1  C   UNL     1      -9.798   3.990  71.697  1.00  0.00    -0.183 C  
HETATM    2  N   UNL     1     -10.536   5.037  72.375  1.00  0.00    -0.216 NA 
HETATM    3  C   UNL     1     -11.472   4.702  73.426  1.00  0.00    -0.245 C  
ENDROOT
BRANCH   2   4
HETATM    4  C   UNL     1     -10.741   6.225  71.691  1.00  0.00    -0.239 A  
HETATM    5  N   UNL     1     -11.826   6.949  71.952  1.00  0.00    -0.301 NA 
HETATM    6  C   UNL     1     -11.998   8.060  71.250  1.00  0.00    -0.296 A  
HETATM    7  N   UNL     1     -11.141   8.452  70.314  1.00  0.00    -0.240 NA 
HETATM    8  N   UNL     1      -9.846   6.584  70.781  1.00  0.00    -0.183 NA 
HETATM    9  C   UNL     1     -10.067   7.698  70.103  1.00  0.00    -0.199 A  
BRANCH   6  10
HETATM   10  N   UNL     1     -13.069   8.888  71.542  1.00  0.00    -0.337 NA 
HETATM   11  C   UNL     1     -12.841  10.307  71.751  1.00  0.00    -0.460 C  
HETATM   12  C   UNL     1     -14.251   8.314  72.158  1.00  0.00    -0.374 C  
ENDBRANCH   6  10
BRANCH   9  13
HETATM   13  N   UNL     1      -9.179   8.068  69.112  1.00  0.00    -0.151 NA 
HETATM   14  C   UNL     1      -8.882   9.470  68.882  1.00  0.00    -0.137 C  
HETATM   15  C   UNL     1      -8.264   7.091  68.555  1.00  0.00    -0.124 C  
ENDBRANCH   9  13
ENDBRANCH   2   4
TORSDOF 3
ENDMDL
MODEL      134
REMARK 921   NORMALIZED FREE ENERGY PREDICTED BY IDOCK:   -3.14 KCAL/MOL
REMARK 922        TOTAL FREE ENERGY PREDICTED BY IDOCK:   -3.95 KCAL/MOL
REMARK 923 INTER-LIGAND FREE ENERGY PREDICTED BY IDOCK:   -3.67 KCAL/MOL
REMARK 924 INTRA-LIGAND FREE ENERGY PREDICTED BY IDOCK:   -0.29 KCAL/MOL
REMARK 927      BINDING AFFINITY PREDICTED BY RF-SCORE:    0.00 PKD
ROOT
HETATM    1  C   UNL     1      -9.425   3.994  68.366  1.00  0.00    -0.149 C  
HETATM    2  N   UNL     1     -10.317   4.970  67.771  1.00  0.00    -0.101 NA 
HETATM    3  C   UNL     1     -10.485   5.021  66.336  1.00  0.00    -0.300 C  
ENDROOT
BRANCH   2   4
HETATM    4  C   UNL     1     -10.566   6.132  68.486  1.00  0.00    -0.271 A  
HETATM    5  N   UNL     1     -10.311   7.310  67.924  1.00  0.00    -0.190 NA 
HETATM    6  C   UNL     1     -10.533   8.393  68.656  1.00  0.00    -0.166 A  
HETATM    7  N   UNL     1     -10.982   8.329  69.904  1.00  0.00    -0.212 NA 
HETATM    8  N   UNL     1     -11.035   6.017  69.721  1.00  0.00    -0.372 NA 
HETATM    9  C   UNL     1     -11.233   7.127  70.413  1.00  0.00    -0.287 A  
BRANCH   6  10
HETATM   10  N   UNL     1     -10.360   9.644  68.087  1.00  0.00    -0.198 NA 
HETATM   11  C   UNL     1     -10.970  10.804  68.710  1.00  0.00    -0.247 C  
HETATM   12  C   UNL     1     -10.074   9.734  66.667  1.00  0.00    -0.237 C  
ENDBRANCH   6  10
BRANCH   9  13
HETATM   13  N   UNL     1     -11.669   7.036  71.720  1.00  0.00    -0.283 NA 
HETATM   14  C   UNL     1     -11.478   5.809  72.470  1.00  0.00    -0.296 C  
HETATM   15  C   UNL     1     -11.971   8.239  72.470  1.00  0.00    -0.356 C  
ENDBRANCH   9  13
ENDBRANCH   2   4
TORSDOF 3
ENDMDL
MODEL      135
REMARK 921   NORMALIZED FREE ENERGY PREDICTED BY IDOCK:   -3.11 KCAL/MOL
REMARK 922        TOTAL FREE ENERGY PREDICTED BY IDOCK:   -3.92 KCAL/MOL
REMARK 923 INTER-LIGAND FREE ENERGY PREDICTED BY IDOCK:   -3.65 KCAL/MOL
REMARK 924 INTRA-LIGAND FREE ENERGY PREDICTED BY IDOCK:   -0.27 KCAL/MOL
REMARK 927      BINDING AFFINITY PREDICTED BY RF-SCORE:    0.00 PKD
ROOT
HETATM    1  C   UNL     1     -12.152  14.558  64.504  1.00  0.00    -0.484 C  
HETATM    2  N   UNL     1     -11.537  13.248  64.577  1.00  0.00    -0.352 NA 
HETATM    3  C   UNL     1     -12.193  12.103  63.983  1.00  0.00    -0.446 C  
ENDROOT
BRANCH   2   4
HETATM    4  C   UNL     1     -10.655  13.009  65.620  1.00  0.00    -0.282 A  
HETATM    5  N   UNL     1      -9.937  14.016  66.110  1.00  0.00    -0.303 NA 
HETATM    6  C   UNL     1      -9.083  13.735  67.083  1.00  0.00    -0.239 A  
HETATM    7  N   UNL     1      -8.925  12.505  67.560  1.00  0.00    -0.176 NA 
HETATM    8  N   UNL     1     -10.549  11.768  66.076  1.00  0.00    -0.251 NA 
HETATM    9  C   UNL     1      -9.676  11.539  67.044  1.00  0.00    -0.184 A  
BRANCH   6  10
HETATM   10  N   UNL     1      -8.373  14.764  67.680  1.00  0.00    -0.158 NA 
HETATM   11  C   UNL     1      -7.491  14.471  68.796  1.00  0.00    -0.132 C  
HETATM   12  C   UNL     1      -8.888  16.117  67.586  1.00  0.00    -0.186 C  
ENDBRANCH   6  10
BRANCH   9  13
HETATM   13  N   UNL     1      -9.506  10.247  67.502  1.00  0.00    -0.151 NA 
HETATM   14  C   UNL     1      -8.424   9.427  66.991  1.00  0.00    -0.127 C  
HETATM   15  C   UNL     1     -10.141   9.825  68.735  1.00  0.00    -0.174 C  
ENDBRANCH   9  13
ENDBRANCH   2   4
TORSDOF 3
ENDMDL
MODEL      136
REMARK 921   NORMALIZED FREE ENERGY PREDICTED BY IDOCK:   -3.05 KCAL/MOL
REMARK 922        TOTAL FREE ENERGY PREDICTED BY IDOCK:   -3.85 KCAL/MOL
REMARK 923 INTER-LIGAND FREE ENERGY PREDICTED BY IDOCK:   -3.56 KCAL/MOL
REMARK 924 INTRA-LIGAND FREE ENERGY PREDICTED BY IDOCK:   -0.29 KCAL/MOL
REMARK 927      BINDING AFFINITY PREDICTED BY RF-SCORE:    0.00 PKD
ROOT
HETATM    1  C   UNL     1      -6.561  12.997  68.368  1.00  0.00    -0.090 C  
HETATM    2  N   UNL     1      -7.768  12.486  67.748  1.00  0.00    -0.129 NA 
HETATM    3  C   UNL     1      -7.802  11.140  67.221  1.00  0.00    -0.137 C  
ENDROOT
BRANCH   2   4
HETATM    4  C   UNL     1      -8.650  13.408  67.203  1.00  0.00    -0.195 A  
HETATM    5  N   UNL     1      -8.472  14.703  67.447  1.00  0.00    -0.190 NA 
HETATM    6  C   UNL     1      -9.357  15.545  66.934  1.00  0.00    -0.233 A  
HETATM    7  N   UNL     1     -10.393  15.136  66.210  1.00  0.00    -0.282 NA 
HETATM    8  N   UNL     1      -9.655  12.952  66.469  1.00  0.00    -0.256 NA 
HETATM    9  C   UNL     1     -10.516  13.832  65.985  1.00  0.00    -0.297 A  
BRANCH   6  10
HETATM   10  N   UNL     1      -9.169  16.908  67.093  1.00  0.00    -0.225 NA 
HETATM   11  C   UNL     1      -8.328  17.394  68.172  1.00  0.00    -0.240 C  
HETATM   12  C   UNL     1     -10.178  17.818  66.584  1.00  0.00    -0.361 C  
ENDBRANCH   6  10
BRANCH   9  13
HETATM   13  N   UNL     1     -11.603  13.381  65.262  1.00  0.00    -0.301 NA 
HETATM   14  C   UNL     1     -11.746  11.969  64.960  1.00  0.00    -0.255 C  
HETATM   15  C   UNL     1     -12.780  14.217  65.124  1.00  0.00    -0.364 C  
ENDBRANCH   9  13
ENDBRANCH   2   4
TORSDOF 3
ENDMDL
MODEL      137
REMARK 921   NORMALIZED FREE ENERGY PREDICTED BY IDOCK:   -3.04 KCAL/MOL
REMARK 922        TOTAL FREE ENERGY PREDICTED BY IDOCK:   -3.83 KCAL/MOL
REMARK 923 INTER-LIGAND FREE ENERGY PREDICTED BY IDOCK:   -3.55 KCAL/MOL
REMARK 924 INTRA-LIGAND FREE ENERGY PREDICTED BY IDOCK:   -0.28 KCAL/MOL
REMARK 927      BINDING AFFINITY PREDICTED BY RF-SCORE:    0.00 PKD
ROOT
HETATM    1  C   UNL     1      -9.093   9.160  68.298  1.00  0.00    -0.132 C  
HETATM    2  N   UNL     1      -9.006   7.885  68.981  1.00  0.00    -0.145 NA 
HETATM    3  C   UNL     1      -8.491   6.723  68.290  1.00  0.00    -0.125 C  
ENDROOT
BRANCH   2   4
HETATM    4  C   UNL     1      -9.869   7.666  70.045  1.00  0.00    -0.180 A  
HETATM    5  N   UNL     1     -10.887   8.498  70.240  1.00  0.00    -0.238 NA 
HETATM    6  C   UNL     1     -11.666   8.270  71.287  1.00  0.00    -0.283 A  
HETATM    7  N   UNL     1     -11.453   7.263  72.128  1.00  0.00    -0.264 NA 
HETATM    8  N   UNL     1      -9.627   6.635  70.843  1.00  0.00    -0.175 NA 
HETATM    9  C   UNL     1     -10.429   6.454  71.879  1.00  0.00    -0.209 A  
BRANCH   6  10
HETATM   10  N   UNL     1     -12.786   9.060  71.486  1.00  0.00    -0.329 NA 
HETATM   11  C   UNL     1     -14.074   8.431  71.718  1.00  0.00    -0.438 C  
HETATM   12  C   UNL     1     -12.800  10.405  70.942  1.00  0.00    -0.392 C  
ENDBRANCH   6  10
BRANCH   9  13
HETATM   13  N   UNL     1     -10.169   5.420  72.757  1.00  0.00    -0.180 NA 
HETATM   14  C   UNL     1      -8.844   5.259  73.325  1.00  0.00    -0.118 C  
HETATM   15  C   UNL     1     -11.264   4.728  73.407  1.00  0.00    -0.343 C  
ENDBRANCH   9  13
ENDBRANCH   2   4
TORSDOF 3
ENDMDL
MODEL      138
REMARK 921   NORMALIZED FREE ENERGY PREDICTED BY IDOCK:   -3.02 KCAL/MOL
REMARK 922        TOTAL FREE ENERGY PREDICTED BY IDOCK:   -3.81 KCAL/MOL
REMARK 923 INTER-LIGAND FREE ENERGY PREDICTED BY IDOCK:   -3.54 KCAL/MOL
REMARK 924 INTRA-LIGAND FREE ENERGY PREDICTED BY IDOCK:   -0.27 KCAL/MOL
REMARK 927      BINDING AFFINITY PREDICTED BY RF-SCORE:    0.00 PKD
ROOT
HETATM    1  C   UNL     1      -6.242  13.638  67.920  1.00  0.00    -0.155 C  
HETATM    2  N   UNL     1      -7.254  12.669  68.290  1.00  0.00    -0.103 NA 
HETATM    3  C   UNL     1      -6.920  11.564  69.160  1.00  0.00    -0.113 C  
ENDROOT
BRANCH   2   4
HETATM    4  C   UNL     1      -8.329  12.502  67.429  1.00  0.00    -0.182 A  
HETATM    5  N   UNL     1      -9.388  13.297  67.546  1.00  0.00    -0.209 NA 
HETATM    6  C   UNL     1     -10.405  13.080  66.724  1.00  0.00    -0.254 A  
HETATM    7  N   UNL     1     -10.393  12.109  65.818  1.00  0.00    -0.250 NA 
HETATM    8  N   UNL     1      -8.260  11.533  66.526  1.00  0.00    -0.157 NA 
HETATM    9  C   UNL     1      -9.304  11.352  65.734  1.00  0.00    -0.228 A  
BRANCH   6  10
HETATM   10  N   UNL     1     -11.496  13.933  66.754  1.00  0.00    -0.336 NA 
HETATM   11  C   UNL     1     -12.447  13.916  65.657  1.00  0.00    -0.505 C  
HETATM   12  C   UNL     1     -11.409  15.155  67.530  1.00  0.00    -0.320 C  
ENDBRANCH   6  10
BRANCH   9  13
HETATM   13  N   UNL     1      -9.283  10.315  64.822  1.00  0.00    -0.218 NA 
HETATM   14  C   UNL     1      -9.581  10.565  63.424  1.00  0.00    -0.331 C  
HETATM   15  C   UNL     1      -8.613   9.072  65.151  1.00  0.00    -0.179 C  
ENDBRANCH   9  13
ENDBRANCH   2   4
TORSDOF 3
ENDMDL
MODEL      139
REMARK 921   NORMALIZED FREE ENERGY PREDICTED BY IDOCK:   -3.00 KCAL/MOL
REMARK 922        TOTAL FREE ENERGY PREDICTED BY IDOCK:   -3.79 KCAL/MOL
REMARK 923 INTER-LIGAND FREE ENERGY PREDICTED BY IDOCK:   -3.50 KCAL/MOL
REMARK 924 INTRA-LIGAND FREE ENERGY PREDICTED BY IDOCK:   -0.29 KCAL/MOL
REMARK 927      BINDING AFFINITY PREDICTED BY RF-SCORE:    0.00 PKD
ROOT
HETATM    1  C   UNL     1     -12.423  15.683  70.335  1.00  0.00    -0.371 C  
HETATM    2  N   UNL     1     -11.186  15.797  69.588  1.00  0.00    -0.292 NA 
HETATM    3  C   UNL     1     -10.833  17.048  68.953  1.00  0.00    -0.228 C  
ENDROOT
BRANCH   2   4
HETATM    4  C   UNL     1     -10.649  14.635  69.054  1.00  0.00    -0.247 A  
HETATM    5  N   UNL     1     -11.369  13.517  69.069  1.00  0.00    -0.273 NA 
HETATM    6  C   UNL     1     -10.803  12.423  68.579  1.00  0.00    -0.242 A  
HETATM    7  N   UNL     1      -9.566  12.417  68.094  1.00  0.00    -0.214 NA 
HETATM    8  N   UNL     1      -9.419  14.685  68.562  1.00  0.00    -0.212 NA 
HETATM    9  C   UNL     1      -8.896  13.565  68.090  1.00  0.00    -0.179 A  
BRANCH   6  10
HETATM   10  N   UNL     1     -11.541  11.255  68.500  1.00  0.00    -0.328 NA 
HETATM   11  C   UNL     1     -12.380  10.860  69.617  1.00  0.00    -0.221 C  
HETATM   12  C   UNL     1     -11.090  10.200  67.612  1.00  0.00    -0.206 C  
ENDBRANCH   6  10
BRANCH   9  13
HETATM   13  N   UNL     1      -7.597  13.575  67.621  1.00  0.00    -0.162 NA 
HETATM   14  C   UNL     1      -6.810  14.793  67.674  1.00  0.00    -0.182 C  
HETATM   15  C   UNL     1      -6.886  12.327  67.428  1.00  0.00    -0.145 C  
ENDBRANCH   9  13
ENDBRANCH   2   4
TORSDOF 3
ENDMDL
MODEL      140
REMARK 921   NORMALIZED FREE ENERGY PREDICTED BY IDOCK:   -3.00 KCAL/MOL
REMARK 922        TOTAL FREE ENERGY PREDICTED BY IDOCK:   -3.79 KCAL/MOL
REMARK 923 INTER-LIGAND FREE ENERGY PREDICTED BY IDOCK:   -3.50 KCAL/MOL
REMARK 924 INTRA-LIGAND FREE ENERGY PREDICTED BY IDOCK:   -0.29 KCAL/MOL
REMARK 927      BINDING AFFINITY PREDICTED BY RF-SCORE:    0.00 PKD
ROOT
HETATM    1  C   UNL     1     -10.079  17.904  68.323  1.00  0.00    -0.375 C  
HETATM    2  N   UNL     1      -8.919  17.039  68.395  1.00  0.00    -0.239 NA 
HETATM    3  C   UNL     1      -7.588  17.606  68.408  1.00  0.00    -0.260 C  
ENDROOT
BRANCH   2   4
HETATM    4  C   UNL     1      -9.055  15.740  67.928  1.00  0.00    -0.186 A  
HETATM    5  N   UNL     1      -8.234  14.796  68.377  1.00  0.00    -0.147 NA 
HETATM    6  C   UNL     1      -8.380  13.576  67.878  1.00  0.00    -0.175 A  
HETATM    7  N   UNL     1      -9.295  13.287  66.959  1.00  0.00    -0.235 NA 
HETATM    8  N   UNL     1      -9.999  15.497  67.028  1.00  0.00    -0.236 NA 
HETATM    9  C   UNL     1     -10.099  14.265  66.556  1.00  0.00    -0.278 A  
BRANCH   6  10
HETATM   10  N   UNL     1      -7.602  12.543  68.373  1.00  0.00    -0.124 NA 
HETATM   11  C   UNL     1      -8.161  11.206  68.461  1.00  0.00    -0.146 C  
HETATM   12  C   UNL     1      -6.507  12.858  69.271  1.00  0.00    -0.104 C  
ENDBRANCH   6  10
BRANCH   9  13
HETATM   13  N   UNL     1     -11.036  13.995  65.578  1.00  0.00    -0.302 NA 
HETATM   14  C   UNL     1     -11.575  15.069  64.765  1.00  0.00    -0.395 C  
HETATM   15  C   UNL     1     -11.213  12.639  65.097  1.00  0.00    -0.301 C  
ENDBRANCH   9  13
ENDBRANCH   2   4
TORSDOF 3
ENDMDL
MODEL      141
REMARK 921   NORMALIZED FREE ENERGY PREDICTED BY IDOCK:   -2.97 KCAL/MOL
REMARK 922        TOTAL FREE ENERGY PREDICTED BY IDOCK:   -3.76 KCAL/MOL
REMARK 923 INTER-LIGAND FREE ENERGY PREDICTED BY IDOCK:   -3.49 KCAL/MOL
REMARK 924 INTRA-LIGAND FREE ENERGY PREDICTED BY IDOCK:   -0.26 KCAL/MOL
REMARK 927      BINDING AFFINITY PREDICTED BY RF-SCORE:    0.00 PKD
ROOT
HETATM    1  C   UNL     1      -7.693  11.509  66.738  1.00  0.00    -0.136 C  
HETATM    2  N   UNL     1      -7.403  12.854  67.193  1.00  0.00    -0.059 NA 
HETATM    3  C   UNL     1      -6.120  13.160  67.787  1.00  0.00    -0.154 C  
ENDROOT
BRANCH   2   4
HETATM    4  C   UNL     1      -8.477  13.661  67.538  1.00  0.00    -0.189 A  
HETATM    5  N   UNL     1      -9.568  13.107  68.058  1.00  0.00    -0.215 NA 
HETATM    6  C   UNL     1     -10.582  13.912  68.342  1.00  0.00    -0.255 A  
HETATM    7  N   UNL     1     -10.536  15.221  68.118  1.00  0.00    -0.249 NA 
HETATM    8  N   UNL     1      -8.374  14.965  67.316  1.00  0.00    -0.197 NA 
HETATM    9  C   UNL     1      -9.417  15.725  67.610  1.00  0.00    -0.218 A  
BRANCH   6  10
HETATM   10  N   UNL     1     -11.708  13.394  68.959  1.00  0.00    -0.302 NA 
HETATM   11  C   UNL     1     -12.384  14.170  69.984  1.00  0.00    -0.344 C  
HETATM   12  C   UNL     1     -11.884  11.955  69.000  1.00  0.00    -0.308 C  
ENDBRANCH   6  10
BRANCH   9  13
HETATM   13  N   UNL     1      -9.359  17.078  67.338  1.00  0.00    -0.237 NA 
HETATM   14  C   UNL     1     -10.286  17.675  66.396  1.00  0.00    -0.345 C  
HETATM   15  C   UNL     1      -8.653  17.969  68.238  1.00  0.00    -0.287 C  
ENDBRANCH   9  13
ENDBRANCH   2   4
TORSDOF 3
ENDMDL
MODEL      142
REMARK 921   NORMALIZED FREE ENERGY PREDICTED BY IDOCK:   -2.97 KCAL/MOL
REMARK 922        TOTAL FREE ENERGY PREDICTED BY IDOCK:   -3.75 KCAL/MOL
REMARK 923 INTER-LIGAND FREE ENERGY PREDICTED BY IDOCK:   -3.49 KCAL/MOL
REMARK 924 INTRA-LIGAND FREE ENERGY PREDICTED BY IDOCK:   -0.27 KCAL/MOL
REMARK 927      BINDING AFFINITY PREDICTED BY RF-SCORE:    0.00 PKD
ROOT
HETATM    1  C   UNL     1      -8.413   7.906  66.832  1.00  0.00    -0.128 C  
HETATM    2  N   UNL     1      -8.953   9.250  66.874  1.00  0.00    -0.129 NA 
HETATM    3  C   UNL     1      -8.265  10.332  66.204  1.00  0.00    -0.138 C  
ENDROOT
BRANCH   2   4
HETATM    4  C   UNL     1      -9.776   9.578  67.941  1.00  0.00    -0.147 A  
HETATM    5  N   UNL     1      -9.979   8.687  68.906  1.00  0.00    -0.184 NA 
HETATM    6  C   UNL     1     -10.798   9.031  69.889  1.00  0.00    -0.218 A  
HETATM    7  N   UNL     1     -11.410  10.211  69.927  1.00  0.00    -0.265 NA 
HETATM    8  N   UNL     1     -10.346  10.776  67.944  1.00  0.00    -0.177 NA 
HETATM    9  C   UNL     1     -11.161  11.069  68.944  1.00  0.00    -0.239 A  
BRANCH   6  10
HETATM   10  N   UNL     1     -10.978   8.169  70.958  1.00  0.00    -0.239 NA 
HETATM   11  C   UNL     1     -12.116   7.267  70.966  1.00  0.00    -0.324 C  
HETATM   12  C   UNL     1     -10.405   8.518  72.244  1.00  0.00    -0.332 C  
ENDBRANCH   6  10
BRANCH   9  13
HETATM   13  N   UNL     1     -11.810  12.288  68.945  1.00  0.00    -0.314 NA 
HETATM   14  C   UNL     1     -12.083  12.970  70.196  1.00  0.00    -0.307 C  
HETATM   15  C   UNL     1     -11.890  13.069  67.726  1.00  0.00    -0.347 C  
ENDBRANCH   9  13
ENDBRANCH   2   4
TORSDOF 3
ENDMDL
MODEL      143
REMARK 921   NORMALIZED FREE ENERGY PREDICTED BY IDOCK:   -2.97 KCAL/MOL
REMARK 922        TOTAL FREE ENERGY PREDICTED BY IDOCK:   -3.75 KCAL/MOL
REMARK 923 INTER-LIGAND FREE ENERGY PREDICTED BY IDOCK:   -3.48 KCAL/MOL
REMARK 924 INTRA-LIGAND FREE ENERGY PREDICTED BY IDOCK:   -0.27 KCAL/MOL
REMARK 927      BINDING AFFINITY PREDICTED BY RF-SCORE:    0.00 PKD
ROOT
HETATM    1  C   UNL     1      -6.865   9.306  70.219  1.00  0.00    -0.071 C  
HETATM    2  N   UNL     1      -7.349  10.044  69.070  1.00  0.00    -0.078 NA 
HETATM    3  C   UNL     1      -6.429  10.807  68.255  1.00  0.00    -0.058 C  
ENDROOT
BRANCH   2   4
HETATM    4  C   UNL     1      -8.679  10.440  69.074  1.00  0.00    -0.168 A  
HETATM    5  N   UNL     1      -9.086  11.366  68.211  1.00  0.00    -0.173 NA 
HETATM    6  C   UNL     1     -10.356  11.738  68.273  1.00  0.00    -0.206 A  
HETATM    7  N   UNL     1     -11.205  11.227  69.158  1.00  0.00    -0.250 NA 
HETATM    8  N   UNL     1      -9.492   9.885  69.962  1.00  0.00    -0.230 NA 
HETATM    9  C   UNL     1     -10.749  10.295  69.989  1.00  0.00    -0.292 A  
BRANCH   6  10
HETATM   10  N   UNL     1     -10.846  12.639  67.343  1.00  0.00    -0.238 NA 
HETATM   11  C   UNL     1     -11.346  12.153  66.069  1.00  0.00    -0.358 C  
HETATM   12  C   UNL     1     -10.381  14.013  67.386  1.00  0.00    -0.259 C  
ENDBRANCH   6  10
BRANCH   9  13
HETATM   13  N   UNL     1     -11.606   9.774  70.938  1.00  0.00    -0.332 NA 
HETATM   14  C   UNL     1     -11.199   8.639  71.745  1.00  0.00    -0.326 C  
HETATM   15  C   UNL     1     -12.735  10.555  71.404  1.00  0.00    -0.442 C  
ENDBRANCH   9  13
ENDBRANCH   2   4
TORSDOF 3
ENDMDL
MODEL      144
REMARK 921   NORMALIZED FREE ENERGY PREDICTED BY IDOCK:   -2.97 KCAL/MOL
REMARK 922        TOTAL FREE ENERGY PREDICTED BY IDOCK:   -3.75 KCAL/MOL
REMARK 923 INTER-LIGAND FREE ENERGY PREDICTED BY IDOCK:   -3.47 KCAL/MOL
REMARK 924 INTRA-LIGAND FREE ENERGY PREDICTED BY IDOCK:   -0.28 KCAL/MOL
REMARK 927      BINDING AFFINITY PREDICTED BY RF-SCORE:    0.00 PKD
ROOT
HETATM    1  C   UNL     1     -11.682  12.452  68.720  1.00  0.00    -0.332 C  
HETATM    2  N   UNL     1     -10.434  11.721  68.821  1.00  0.00    -0.214 NA 
HETATM    3  C   UNL     1      -9.290  12.125  68.034  1.00  0.00    -0.197 C  
ENDROOT
BRANCH   2   4
HETATM    4  C   UNL     1     -10.496  10.396  69.226  1.00  0.00    -0.234 A  
HETATM    5  N   UNL     1     -11.441  10.021  70.084  1.00  0.00    -0.270 NA 
HETATM    6  C   UNL     1     -11.442   8.752  70.469  1.00  0.00    -0.196 A  
HETATM    7  N   UNL     1     -10.542   7.876  70.036  1.00  0.00    -0.239 NA 
HETATM    8  N   UNL     1      -9.589   9.555  68.749  1.00  0.00    -0.155 NA 
HETATM    9  C   UNL     1      -9.629   8.301  69.170  1.00  0.00    -0.160 A  
BRANCH   6  10
HETATM   10  N   UNL     1     -12.453   8.295  71.297  1.00  0.00    -0.282 NA 
HETATM   11  C   UNL     1     -13.196   9.242  72.110  1.00  0.00    -0.461 C  
HETATM   12  C   UNL     1     -12.411   6.921  71.761  1.00  0.00    -0.356 C  
ENDBRANCH   6  10
BRANCH   9  13
HETATM   13  N   UNL     1      -8.664   7.415  68.732  1.00  0.00    -0.129 NA 
HETATM   14  C   UNL     1      -8.226   6.329  69.588  1.00  0.00    -0.124 C  
HETATM   15  C   UNL     1      -8.354   7.320  67.319  1.00  0.00    -0.119 C  
ENDBRANCH   9  13
ENDBRANCH   2   4
TORSDOF 3
ENDMDL
MODEL      145
REMARK 921   NORMALIZED FREE ENERGY PREDICTED BY IDOCK:   -2.93 KCAL/MOL
REMARK 922        TOTAL FREE ENERGY PREDICTED BY IDOCK:   -3.71 KCAL/MOL
REMARK 923 INTER-LIGAND FREE ENERGY PREDICTED BY IDOCK:   -3.44 KCAL/MOL
REMARK 924 INTRA-LIGAND FREE ENERGY PREDICTED BY IDOCK:   -0.26 KCAL/MOL
REMARK 927      BINDING AFFINITY PREDICTED BY RF-SCORE:    0.00 PKD
ROOT
HETATM    1  C   UNL     1      -9.441   3.660  67.894  1.00  0.00    -0.169 C  
HETATM    2  N   UNL     1     -10.177   4.799  67.382  1.00  0.00    -0.123 NA 
HETATM    3  C   UNL     1     -10.243   5.041  65.958  1.00  0.00    -0.222 C  
ENDROOT
BRANCH   2   4
HETATM    4  C   UNL     1     -10.343   5.888  68.225  1.00  0.00    -0.214 A  
HETATM    5  N   UNL     1     -10.942   5.718  69.399  1.00  0.00    -0.337 NA 
HETATM    6  C   UNL     1     -11.109   6.793  70.157  1.00  0.00    -0.315 A  
HETATM    7  N   UNL     1     -10.710   8.002  69.777  1.00  0.00    -0.245 NA 
HETATM    8  N   UNL     1      -9.908   7.070  67.809  1.00  0.00    -0.134 NA 
HETATM    9  C   UNL     1     -10.104   8.113  68.599  1.00  0.00    -0.196 A  
BRANCH   6  10
HETATM   10  N   UNL     1     -11.654   6.653  71.422  1.00  0.00    -0.298 NA 
HETATM   11  C   UNL     1     -11.103   5.667  72.335  1.00  0.00    -0.271 C  
HETATM   12  C   UNL     1     -13.032   7.052  71.639  1.00  0.00    -0.352 C  
ENDBRANCH   6  10
BRANCH   9  13
HETATM   13  N   UNL     1      -9.710   9.364  68.169  1.00  0.00    -0.142 NA 
HETATM   14  C   UNL     1      -9.930   9.768  66.793  1.00  0.00    -0.218 C  
HETATM   15  C   UNL     1      -9.429  10.408  69.135  1.00  0.00    -0.208 C  
ENDBRANCH   9  13
ENDBRANCH   2   4
TORSDOF 3
ENDMDL
MODEL      146
REMARK 921   NORMALIZED FREE ENERGY PREDICTED BY IDOCK:   -2.92 KCAL/MOL
REMARK 922        TOTAL FREE ENERGY PREDICTED BY IDOCK:   -3.70 KCAL/MOL
REMARK 923 INTER-LIGAND FREE ENERGY PREDICTED BY IDOCK:   -3.43 KCAL/MOL
REMARK 924 INTRA-LIGAND FREE ENERGY PREDICTED BY IDOCK:   -0.26 KCAL/MOL
REMARK 927      BINDING AFFINITY PREDICTED BY RF-SCORE:    0.00 PKD
ROOT
HETATM    1  C   UNL     1      -7.383  19.809  68.299  1.00  0.00    -0.314 C  
HETATM    2  N   UNL     1      -8.311  19.111  67.432  1.00  0.00    -0.278 NA 
HETATM    3  C   UNL     1      -9.485  19.790  66.927  1.00  0.00    -0.371 C  
ENDROOT
BRANCH   2   4
HETATM    4  C   UNL     1      -8.363  17.728  67.525  1.00  0.00    -0.226 A  
HETATM    5  N   UNL     1      -7.322  17.070  68.026  1.00  0.00    -0.175 NA 
HETATM    6  C   UNL     1      -7.402  15.747  68.066  1.00  0.00    -0.125 A  
HETATM    7  N   UNL     1      -8.464  15.084  67.622  1.00  0.00    -0.151 NA 
HETATM    8  N   UNL     1      -9.454  17.114  67.089  1.00  0.00    -0.243 NA 
HETATM    9  C   UNL     1      -9.481  15.792  67.144  1.00  0.00    -0.213 A  
BRANCH   6  10
HETATM   10  N   UNL     1      -6.378  15.023  68.653  1.00  0.00    -0.085 NA 
HETATM   11  C   UNL     1      -5.587  14.114  67.841  1.00  0.00    -0.093 C  
HETATM   12  C   UNL     1      -6.440  14.749  70.076  1.00  0.00    -0.169 C  
ENDBRANCH   6  10
BRANCH   9  13
HETATM   13  N   UNL     1     -10.582  15.123  66.646  1.00  0.00    -0.298 NA 
HETATM   14  C   UNL     1     -11.012  15.338  65.278  1.00  0.00    -0.393 C  
HETATM   15  C   UNL     1     -11.085  13.946  67.329  1.00  0.00    -0.299 C  
ENDBRANCH   9  13
ENDBRANCH   2   4
TORSDOF 3
ENDMDL
MODEL      147
REMARK 921   NORMALIZED FREE ENERGY PREDICTED BY IDOCK:   -2.92 KCAL/MOL
REMARK 922        TOTAL FREE ENERGY PREDICTED BY IDOCK:   -3.69 KCAL/MOL
REMARK 923 INTER-LIGAND FREE ENERGY PREDICTED BY IDOCK:   -3.41 KCAL/MOL
REMARK 924 INTRA-LIGAND FREE ENERGY PREDICTED BY IDOCK:   -0.28 KCAL/MOL
REMARK 927      BINDING AFFINITY PREDICTED BY RF-SCORE:    0.00 PKD
ROOT
HETATM    1  C   UNL     1      -9.881   9.212  66.299  1.00  0.00    -0.289 C  
HETATM    2  N   UNL     1     -10.528   9.195  67.596  1.00  0.00    -0.255 NA 
HETATM    3  C   UNL     1     -10.604  10.404  68.387  1.00  0.00    -0.208 C  
ENDROOT
BRANCH   2   4
HETATM    4  C   UNL     1     -10.581   7.984  68.272  1.00  0.00    -0.101 A  
HETATM    5  N   UNL     1     -10.119   6.887  67.680  1.00  0.00    -0.149 NA 
HETATM    6  C   UNL     1     -10.220   5.748  68.350  1.00  0.00    -0.191 A  
HETATM    7  N   UNL     1     -10.764   5.678  69.560  1.00  0.00    -0.320 NA 
HETATM    8  N   UNL     1     -11.113   7.971  69.487  1.00  0.00    -0.051 NA 
HETATM    9  C   UNL     1     -11.197   6.807  70.111  1.00  0.00    -0.335 A  
BRANCH   6  10
HETATM   10  N   UNL     1      -9.680   4.592  67.809  1.00  0.00    -0.163 NA 
HETATM   11  C   UNL     1      -9.808   4.341  66.385  1.00  0.00    -0.220 C  
HETATM   12  C   UNL     1      -9.496   3.437  68.668  1.00  0.00    -0.136 C  
ENDBRANCH   6  10
BRANCH   9  13
HETATM   13  N   UNL     1     -11.796   6.754  71.354  1.00  0.00    -0.319 NA 
HETATM   14  C   UNL     1     -13.135   7.280  71.544  1.00  0.00    -0.384 C  
HETATM   15  C   UNL     1     -11.278   5.861  72.372  1.00  0.00    -0.291 C  
ENDBRANCH   9  13
ENDBRANCH   2   4
TORSDOF 3
ENDMDL
MODEL      148
REMARK 921   NORMALIZED FREE ENERGY PREDICTED BY IDOCK:   -2.90 KCAL/MOL
REMARK 922        TOTAL FREE ENERGY PREDICTED BY IDOCK:   -3.67 KCAL/MOL
REMARK 923 INTER-LIGAND FREE ENERGY PREDICTED BY IDOCK:   -3.40 KCAL/MOL
REMARK 924 INTRA-LIGAND FREE ENERGY PREDICTED BY IDOCK:   -0.27 KCAL/MOL
REMARK 927      BINDING AFFINITY PREDICTED BY RF-SCORE:    0.00 PKD
ROOT
HETATM    1  C   UNL     1      -8.893  16.138  66.996  1.00  0.00    -0.207 C  
HETATM    2  N   UNL     1      -8.349  14.891  67.497  1.00  0.00    -0.167 NA 
HETATM    3  C   UNL     1      -7.014  14.852  68.054  1.00  0.00    -0.140 C  
ENDROOT
BRANCH   2   4
HETATM    4  C   UNL     1      -8.859  13.712  66.975  1.00  0.00    -0.223 A  
HETATM    5  N   UNL     1      -9.977  13.747  66.256  1.00  0.00    -0.297 NA 
HETATM    6  C   UNL     1     -10.446  12.592  65.805  1.00  0.00    -0.277 A  
HETATM    7  N   UNL     1      -9.845  11.433  66.055  1.00  0.00    -0.214 NA 
HETATM    8  N   UNL     1      -8.211  12.584  67.233  1.00  0.00    -0.179 NA 
HETATM    9  C   UNL     1      -8.724  11.457  66.766  1.00  0.00    -0.174 A  
BRANCH   6  10
HETATM   10  N   UNL     1     -11.562  12.586  64.985  1.00  0.00    -0.335 NA 
HETATM   11  C   UNL     1     -11.398  12.397  63.555  1.00  0.00    -0.476 C  
HETATM   12  C   UNL     1     -12.757  13.281  65.424  1.00  0.00    -0.399 C  
ENDBRANCH   6  10
BRANCH   9  13
HETATM   13  N   UNL     1      -8.100  10.261  67.066  1.00  0.00    -0.120 NA 
HETATM   14  C   UNL     1      -8.885   9.056  67.257  1.00  0.00    -0.117 C  
HETATM   15  C   UNL     1      -6.679  10.104  66.826  1.00  0.00    -0.077 C  
ENDBRANCH   9  13
ENDBRANCH   2   4
TORSDOF 3
ENDMDL
MODEL      149
REMARK 921   NORMALIZED FREE ENERGY PREDICTED BY IDOCK:   -2.88 KCAL/MOL
REMARK 922        TOTAL FREE ENERGY PREDICTED BY IDOCK:   -3.65 KCAL/MOL
REMARK 923 INTER-LIGAND FREE ENERGY PREDICTED BY IDOCK:   -3.40 KCAL/MOL
REMARK 924 INTRA-LIGAND FREE ENERGY PREDICTED BY IDOCK:   -0.25 KCAL/MOL
REMARK 927      BINDING AFFINITY PREDICTED BY RF-SCORE:    0.00 PKD
ROOT
HETATM    1  C   UNL     1     -11.864   6.506  71.739  1.00  0.00    -0.335 C  
HETATM    2  N   UNL     1     -10.980   6.565  70.592  1.00  0.00    -0.267 NA 
HETATM    3  C   UNL     1     -10.325   5.366  70.117  1.00  0.00    -0.290 C  
ENDROOT
BRANCH   2   4
HETATM    4  C   UNL     1     -10.372   7.779  70.311  1.00  0.00    -0.215 A  
HETATM    5  N   UNL     1      -9.183   8.052  70.841  1.00  0.00    -0.147 NA 
HETATM    6  C   UNL     1      -8.656   9.237  70.572  1.00  0.00    -0.233 A  
HETATM    7  N   UNL     1      -9.274  10.137  69.814  1.00  0.00    -0.188 NA 
HETATM    8  N   UNL     1     -11.019   8.635  69.531  1.00  0.00    -0.125 NA 
HETATM    9  C   UNL     1     -10.453   9.808  69.298  1.00  0.00    -0.219 A  
BRANCH   6  10
HETATM   10  N   UNL     1      -7.385   9.535  71.035  1.00  0.00    -0.319 NA 
HETATM   11  C   UNL     1      -6.523  10.403  70.252  1.00  0.00    -0.141 C  
HETATM   12  C   UNL     1      -6.735   8.610  71.943  1.00  0.00    -0.073 C  
ENDBRANCH   6  10
BRANCH   9  13
HETATM   13  N   UNL     1     -11.128  10.739  68.534  1.00  0.00    -0.241 NA 
HETATM   14  C   UNL     1     -11.872  11.808  69.173  1.00  0.00    -0.326 C  
HETATM   15  C   UNL     1     -10.808  10.894  67.129  1.00  0.00    -0.280 C  
ENDBRANCH   9  13
ENDBRANCH   2   4
TORSDOF 3
ENDMDL
MODEL      150
REMARK 921   NORMALIZED FREE ENERGY PREDICTED BY IDOCK:   -2.87 KCAL/MOL
REMARK 922        TOTAL FREE ENERGY PREDICTED BY IDOCK:   -3.63 KCAL/MOL
REMARK 923 INTER-LIGAND FREE ENERGY PREDICTED BY IDOCK:   -3.36 KCAL/MOL
REMARK 924 INTRA-LIGAND FREE ENERGY PREDICTED BY IDOCK:   -0.27 KCAL/MOL
REMARK 927      BINDING AFFINITY PREDICTED BY RF-SCORE:    0.00 PKD
ROOT
HETATM    1  C   UNL     1     -12.428  10.736  69.574  1.00  0.00    -0.020 C  
HETATM    2  N   UNL     1     -11.428  11.423  68.781  1.00  0.00    -0.260 NA 
HETATM    3  C   UNL     1     -11.503  12.856  68.599  1.00  0.00    -0.308 C  
ENDROOT
BRANCH   2   4
HETATM    4  C   UNL     1     -10.763  10.689  67.810  1.00  0.00    -0.257 A  
HETATM    5  N   UNL     1     -10.480  11.258  66.642  1.00  0.00    -0.238 NA 
HETATM    6  C   UNL     1      -9.873  10.509  65.732  1.00  0.00    -0.237 A  
HETATM    7  N   UNL     1      -9.558   9.237  65.952  1.00  0.00    -0.261 NA 
HETATM    8  N   UNL     1     -10.449   9.430  68.085  1.00  0.00    -0.214 NA 
HETATM    9  C   UNL     1      -9.850   8.723  67.141  1.00  0.00    -0.207 A  
BRANCH   6  10
HETATM   10  N   UNL     1      -9.486  11.080  64.531  1.00  0.00    -0.228 NA 
HETATM   11  C   UNL     1     -10.272  12.163  63.968  1.00  0.00    -0.370 C  
HETATM   12  C   UNL     1      -8.690  10.295  63.607  1.00  0.00    -0.206 C  
ENDBRANCH   6  10
BRANCH   9  13
HETATM   13  N   UNL     1      -9.561   7.394  67.381  1.00  0.00    -0.142 NA 
HETATM   14  C   UNL     1     -10.618   6.400  67.364  1.00  0.00    -0.295 C  
HETATM   15  C   UNL     1      -8.195   6.918  67.277  1.00  0.00    -0.118 C  
ENDBRANCH   9  13
ENDBRANCH   2   4
TORSDOF 3
ENDMDL
MODEL      151
REMARK 921   NORMALIZED FREE ENERGY PREDICTED BY IDOCK:   -2.86 KCAL/MOL
REMARK 922        TOTAL FREE ENERGY PREDICTED BY IDOCK:   -3.63 KCAL/MOL
REMARK 923 INTER-LIGAND FREE ENERGY PREDICTED BY IDOCK:   -3.37 KCAL/MOL
REMARK 924 INTRA-LIGAND FREE ENERGY PREDICTED BY IDOCK:   -0.26 KCAL/MOL
REMARK 927      BINDING AFFINITY PREDICTED BY RF-SCORE:    0.00 PKD
ROOT
HETATM    1  C   UNL     1     -10.480   7.481  66.909  1.00  0.00    -0.315 C  
HETATM    2  N   UNL     1     -10.489   8.753  67.604  1.00  0.00    -0.251 NA 
HETATM    3  C   UNL     1     -10.435   9.990  66.857  1.00  0.00    -0.218 C  
ENDROOT
BRANCH   2   4
HETATM    4  C   UNL     1     -10.025   8.774  68.911  1.00  0.00    -0.192 A  
HETATM    5  N   UNL     1      -8.751   9.072  69.146  1.00  0.00    -0.133 NA 
HETATM    6  C   UNL     1      -8.343   9.048  70.406  1.00  0.00    -0.164 A  
HETATM    7  N   UNL     1      -9.154   8.733  71.411  1.00  0.00    -0.223 NA 
HETATM    8  N   UNL     1     -10.878   8.474  69.881  1.00  0.00    -0.230 NA 
HETATM    9  C   UNL     1     -10.421   8.456  71.122  1.00  0.00    -0.212 A  
BRANCH   6  10
HETATM   10  N   UNL     1      -7.047   9.430  70.708  1.00  0.00    -0.144 NA 
HETATM   11  C   UNL     1      -6.421   8.941  71.924  1.00  0.00    -0.046 C  
HETATM   12  C   UNL     1      -6.537  10.672  70.159  1.00  0.00    -0.151 C  
ENDBRANCH   6  10
BRANCH   9  13
HETATM   13  N   UNL     1     -11.273   8.094  72.147  1.00  0.00    -0.303 NA 
HETATM   14  C   UNL     1     -10.768   7.364  73.294  1.00  0.00    -0.391 C  
HETATM   15  C   UNL     1     -12.563   8.743  72.281  1.00  0.00    -0.394 C  
ENDBRANCH   9  13
ENDBRANCH   2   4
TORSDOF 3
ENDMDL
MODEL      152
REMARK 921   NORMALIZED FREE ENERGY PREDICTED BY IDOCK:   -2.86 KCAL/MOL
REMARK 922        TOTAL FREE ENERGY PREDICTED BY IDOCK:   -3.62 KCAL/MOL
REMARK 923 INTER-LIGAND FREE ENERGY PREDICTED BY IDOCK:   -3.35 KCAL/MOL
REMARK 924 INTRA-LIGAND FREE ENERGY PREDICTED BY IDOCK:   -0.27 KCAL/MOL
REMARK 927      BINDING AFFINITY PREDICTED BY RF-SCORE:    0.00 PKD
ROOT
HETATM    1  C   UNL     1     -11.265  15.785  64.902  1.00  0.00    -0.350 C  
HETATM    2  N   UNL     1     -11.523  14.589  65.680  1.00  0.00    -0.338 NA 
HETATM    3  C   UNL     1     -12.757  13.857  65.500  1.00  0.00    -0.499 C  
ENDROOT
BRANCH   2   4
HETATM    4  C   UNL     1     -10.879  14.467  66.902  1.00  0.00    -0.305 A  
HETATM    5  N   UNL     1      -9.573  14.703  66.977  1.00  0.00    -0.232 NA 
HETATM    6  C   UNL     1      -8.993  14.542  68.158  1.00  0.00    -0.182 A  
HETATM    7  N   UNL     1      -9.667  14.153  69.236  1.00  0.00     0.113 NA 
HETATM    8  N   UNL     1     -11.599  14.098  67.953  1.00  0.00    -0.318 NA 
HETATM    9  C   UNL     1     -10.973  13.944  69.108  1.00  0.00    -0.218 A  
BRANCH   6  10
HETATM   10  N   UNL     1      -7.652  14.854  68.304  1.00  0.00    -0.107 NA 
HETATM   11  C   UNL     1      -7.077  14.936  69.635  1.00  0.00    -0.179 C  
HETATM   12  C   UNL     1      -6.988  15.602  67.253  1.00  0.00    -0.189 C  
ENDBRANCH   6  10
BRANCH   9  13
HETATM   13  N   UNL     1     -11.687  13.508  70.206  1.00  0.00    -0.229 NA 
HETATM   14  C   UNL     1     -11.970  14.416  71.302  1.00  0.00    -0.291 C  
HETATM   15  C   UNL     1     -12.473  12.292  70.125  1.00  0.00    -0.023 C  
ENDBRANCH   9  13
ENDBRANCH   2   4
TORSDOF 3
ENDMDL
MODEL      153
REMARK 921   NORMALIZED FREE ENERGY PREDICTED BY IDOCK:   -2.83 KCAL/MOL
REMARK 922        TOTAL FREE ENERGY PREDICTED BY IDOCK:   -3.58 KCAL/MOL
REMARK 923 INTER-LIGAND FREE ENERGY PREDICTED BY IDOCK:   -3.32 KCAL/MOL
REMARK 924 INTRA-LIGAND FREE ENERGY PREDICTED BY IDOCK:   -0.27 KCAL/MOL
REMARK 927      BINDING AFFINITY PREDICTED BY RF-SCORE:    0.00 PKD
ROOT
HETATM    1  C   UNL     1     -10.804  12.900  64.476  1.00  0.00    -0.363 C  
HETATM    2  N   UNL     1     -10.913  13.324  65.858  1.00  0.00    -0.274 NA 
HETATM    3  C   UNL     1     -12.190  13.746  66.391  1.00  0.00    -0.436 C  
ENDROOT
BRANCH   2   4
HETATM    4  C   UNL     1      -9.770  13.816  66.471  1.00  0.00    -0.293 A  
HETATM    5  N   UNL     1      -9.634  15.128  66.640  1.00  0.00    -0.239 NA 
HETATM    6  C   UNL     1      -8.511  15.555  67.200  1.00  0.00    -0.212 A  
HETATM    7  N   UNL     1      -7.543  14.726  67.578  1.00  0.00    -0.179 NA 
HETATM    8  N   UNL     1      -8.843  12.947  66.851  1.00  0.00    -0.209 NA 
HETATM    9  C   UNL     1      -7.737  13.424  67.399  1.00  0.00    -0.137 A  
BRANCH   6  10
HETATM   10  N   UNL     1      -8.358  16.904  67.469  1.00  0.00    -0.188 NA 
HETATM   11  C   UNL     1      -8.531  17.872  66.401  1.00  0.00    -0.234 C  
HETATM   12  C   UNL     1      -7.531  17.305  68.592  1.00  0.00    -0.251 C  
ENDBRANCH   6  10
BRANCH   9  13
HETATM   13  N   UNL     1      -6.731  12.547  67.754  1.00  0.00    -0.107 NA 
HETATM   14  C   UNL     1      -6.958  11.115  67.703  1.00  0.00    -0.084 C  
HETATM   15  C   UNL     1      -5.357  13.005  67.815  1.00  0.00    -0.111 C  
ENDBRANCH   9  13
ENDBRANCH   2   4
TORSDOF 3
ENDMDL
MODEL      154
REMARK 921   NORMALIZED FREE ENERGY PREDICTED BY IDOCK:   -2.81 KCAL/MOL
REMARK 922        TOTAL FREE ENERGY PREDICTED BY IDOCK:   -3.57 KCAL/MOL
REMARK 923 INTER-LIGAND FREE ENERGY PREDICTED BY IDOCK:   -3.29 KCAL/MOL
REMARK 924 INTRA-LIGAND FREE ENERGY PREDICTED BY IDOCK:   -0.28 KCAL/MOL
REMARK 927      BINDING AFFINITY PREDICTED BY RF-SCORE:    0.00 PKD
ROOT
HETATM    1  C   UNL     1     -10.896   6.424  67.001  1.00  0.00    -0.392 C  
HETATM    2  N   UNL     1      -9.923   5.575  67.660  1.00  0.00    -0.145 NA 
HETATM    3  C   UNL     1      -9.231   4.547  66.913  1.00  0.00    -0.133 C  
ENDROOT
BRANCH   2   4
HETATM    4  C   UNL     1     -10.051   5.394  69.029  1.00  0.00    -0.213 A  
HETATM    5  N   UNL     1      -9.685   4.235  69.570  1.00  0.00    -0.208 NA 
HETATM    6  C   UNL     1      -9.856   4.095  70.877  1.00  0.00    -0.177 A  
HETATM    7  N   UNL     1     -10.376   5.054  71.635  1.00  0.00    -0.206 NA 
HETATM    8  N   UNL     1     -10.555   6.389  69.746  1.00  0.00    -0.229 NA 
HETATM    9  C   UNL     1     -10.712   6.197  71.045  1.00  0.00    -0.260 A  
BRANCH   6  10
HETATM   10  N   UNL     1      -9.416   2.938  71.499  1.00  0.00    -0.135 NA 
HETATM   11  C   UNL     1      -8.613   1.986  70.753  1.00  0.00    -0.052 C  
HETATM   12  C   UNL     1     -10.162   2.424  72.632  1.00  0.00    -0.158 C  
ENDBRANCH   6  10
BRANCH   9  13
HETATM   13  N   UNL     1     -11.285   7.196  71.807  1.00  0.00    -0.241 NA 
HETATM   14  C   UNL     1     -12.596   7.714  71.467  1.00  0.00    -0.343 C  
HETATM   15  C   UNL     1     -10.781   7.472  73.139  1.00  0.00    -0.398 C  
ENDBRANCH   9  13
ENDBRANCH   2   4
TORSDOF 3
ENDMDL
MODEL      155
REMARK 921   NORMALIZED FREE ENERGY PREDICTED BY IDOCK:   -2.81 KCAL/MOL
REMARK 922        TOTAL FREE ENERGY PREDICTED BY IDOCK:   -3.57 KCAL/MOL
REMARK 923 INTER-LIGAND FREE ENERGY PREDICTED BY IDOCK:   -3.29 KCAL/MOL
REMARK 924 INTRA-LIGAND FREE ENERGY PREDICTED BY IDOCK:   -0.28 KCAL/MOL
REMARK 927      BINDING AFFINITY PREDICTED BY RF-SCORE:    0.00 PKD
ROOT
HETATM    1  C   UNL     1      -8.531   9.049  66.173  1.00  0.00    -0.127 C  
HETATM    2  N   UNL     1      -9.061  10.096  65.323  1.00  0.00    -0.179 NA 
HETATM    3  C   UNL     1      -9.023   9.955  63.884  1.00  0.00    -0.248 C  
ENDROOT
BRANCH   2   4
HETATM    4  C   UNL     1      -9.099  11.384  65.838  1.00  0.00    -0.198 A  
HETATM    5  N   UNL     1      -9.972  12.257  65.346  1.00  0.00    -0.261 NA 
HETATM    6  C   UNL     1      -9.950  13.485  65.844  1.00  0.00    -0.283 A  
HETATM    7  N   UNL     1      -9.094  13.854  66.791  1.00  0.00    -0.243 NA 
HETATM    8  N   UNL     1      -8.239  11.698  66.798  1.00  0.00    -0.168 NA 
HETATM    9  C   UNL     1      -8.252  12.938  67.257  1.00  0.00    -0.176 A  
BRANCH   6  10
HETATM   10  N   UNL     1     -10.894  14.406  65.422  1.00  0.00    -0.324 NA 
HETATM   11  C   UNL     1     -12.074  13.948  64.710  1.00  0.00    -0.419 C  
HETATM   12  C   UNL     1     -10.480  15.778  65.194  1.00  0.00    -0.366 C  
ENDBRANCH   6  10
BRANCH   9  13
HETATM   13  N   UNL     1      -7.332  13.308  68.218  1.00  0.00    -0.102 NA 
HETATM   14  C   UNL     1      -6.079  12.588  68.346  1.00  0.00    -0.058 C  
HETATM   15  C   UNL     1      -7.420  14.613  68.843  1.00  0.00    -0.134 C  
ENDBRANCH   9  13
ENDBRANCH   2   4
TORSDOF 3
ENDMDL
MODEL      156
REMARK 921   NORMALIZED FREE ENERGY PREDICTED BY IDOCK:   -2.81 KCAL/MOL
REMARK 922        TOTAL FREE ENERGY PREDICTED BY IDOCK:   -3.56 KCAL/MOL
REMARK 923 INTER-LIGAND FREE ENERGY PREDICTED BY IDOCK:   -3.29 KCAL/MOL
REMARK 924 INTRA-LIGAND FREE ENERGY PREDICTED BY IDOCK:   -0.27 KCAL/MOL
REMARK 927      BINDING AFFINITY PREDICTED BY RF-SCORE:    0.00 PKD
ROOT
HETATM    1  C   UNL     1      -9.337   9.221  67.869  1.00  0.00    -0.129 C  
HETATM    2  N   UNL     1      -8.430  10.189  67.284  1.00  0.00    -0.125 NA 
HETATM    3  C   UNL     1      -7.009  10.099  67.537  1.00  0.00    -0.085 C  
ENDROOT
BRANCH   2   4
HETATM    4  C   UNL     1      -8.944  11.435  66.958  1.00  0.00    -0.166 A  
HETATM    5  N   UNL     1      -8.326  12.529  67.392  1.00  0.00    -0.173 NA 
HETATM    6  C   UNL     1      -8.871  13.697  67.084  1.00  0.00    -0.230 A  
HETATM    7  N   UNL     1      -9.993  13.797  66.379  1.00  0.00    -0.289 NA 
HETATM    8  N   UNL     1     -10.054  11.482  66.233  1.00  0.00    -0.219 NA 
HETATM    9  C   UNL     1     -10.562  12.672  65.959  1.00  0.00    -0.270 A  
BRANCH   6  10
HETATM   10  N   UNL     1      -8.221  14.866  67.444  1.00  0.00    -0.182 NA 
HETATM   11  C   UNL     1      -6.777  14.862  67.603  1.00  0.00    -0.177 C  
HETATM   12  C   UNL     1      -8.959  15.884  68.166  1.00  0.00    -0.181 C  
ENDBRANCH   6  10
BRANCH   9  13
HETATM   13  N   UNL     1     -11.747  12.750  65.253  1.00  0.00    -0.348 NA 
HETATM   14  C   UNL     1     -12.547  13.959  65.298  1.00  0.00    -0.478 C  
HETATM   15  C   UNL     1     -12.018  11.808  64.184  1.00  0.00    -0.235 C  
ENDBRANCH   9  13
ENDBRANCH   2   4
TORSDOF 3
ENDMDL
MODEL      157
REMARK 921   NORMALIZED FREE ENERGY PREDICTED BY IDOCK:   -2.80 KCAL/MOL
REMARK 922        TOTAL FREE ENERGY PREDICTED BY IDOCK:   -3.56 KCAL/MOL
REMARK 923 INTER-LIGAND FREE ENERGY PREDICTED BY IDOCK:   -3.32 KCAL/MOL
REMARK 924 INTRA-LIGAND FREE ENERGY PREDICTED BY IDOCK:   -0.24 KCAL/MOL
REMARK 927      BINDING AFFINITY PREDICTED BY RF-SCORE:    0.00 PKD
ROOT
HETATM    1  C   UNL     1      -6.745   9.718  64.491  1.00  0.00    -0.118 C  
HETATM    2  N   UNL     1      -7.143  10.591  65.577  1.00  0.00    -0.129 NA 
HETATM    3  C   UNL     1      -6.153  11.104  66.498  1.00  0.00    -0.144 C  
ENDROOT
BRANCH   2   4
HETATM    4  C   UNL     1      -8.450  10.495  66.032  1.00  0.00    -0.156 A  
HETATM    5  N   UNL     1      -8.831   9.406  66.693  1.00  0.00    -0.133 NA 
HETATM    6  C   UNL     1     -10.098   9.343  67.080  1.00  0.00    -0.240 A  
HETATM    7  N   UNL     1     -10.971  10.311  66.822  1.00  0.00    -0.088 NA 
HETATM    8  N   UNL     1      -9.277  11.497  65.769  1.00  0.00    -0.219 NA 
HETATM    9  C   UNL     1     -10.533  11.383  66.170  1.00  0.00    -0.255 A  
BRANCH   6  10
HETATM   10  N   UNL     1     -10.522   8.267  67.841  1.00  0.00    -0.219 NA 
HETATM   11  C   UNL     1     -10.516   8.368  69.290  1.00  0.00    -0.215 C  
HETATM   12  C   UNL     1     -10.444   6.934  67.275  1.00  0.00    -0.287 C  
ENDBRANCH   6  10
BRANCH   9  13
HETATM   13  N   UNL     1     -11.430  12.387  65.862  1.00  0.00    -0.356 NA 
HETATM   14  C   UNL     1     -11.798  13.371  66.862  1.00  0.00    -0.403 C  
HETATM   15  C   UNL     1     -11.721  12.700  64.476  1.00  0.00    -0.359 C  
ENDBRANCH   9  13
ENDBRANCH   2   4
TORSDOF 3
ENDMDL
MODEL      158
REMARK 921   NORMALIZED FREE ENERGY PREDICTED BY IDOCK:   -2.79 KCAL/MOL
REMARK 922        TOTAL FREE ENERGY PREDICTED BY IDOCK:   -3.54 KCAL/MOL
REMARK 923 INTER-LIGAND FREE ENERGY PREDICTED BY IDOCK:   -3.27 KCAL/MOL
REMARK 924 INTRA-LIGAND FREE ENERGY PREDICTED BY IDOCK:   -0.27 KCAL/MOL
REMARK 927      BINDING AFFINITY PREDICTED BY RF-SCORE:    0.00 PKD
ROOT
HETATM    1  C   UNL     1      -9.460   3.720  67.750  1.00  0.00    -0.179 C  
HETATM    2  N   UNL     1     -10.284   4.897  67.944  1.00  0.00    -0.088 NA 
HETATM    3  C   UNL     1     -10.608   5.751  66.822  1.00  0.00    -0.306 C  
ENDROOT
BRANCH   2   4
HETATM    4  C   UNL     1     -10.302   5.467  69.208  1.00  0.00    -0.265 A  
HETATM    5  N   UNL     1     -10.252   4.681  70.279  1.00  0.00    -0.204 NA 
HETATM    6  C   UNL     1     -10.306   5.267  71.466  1.00  0.00    -0.221 A  
HETATM    7  N   UNL     1     -10.413   6.584  71.606  1.00  0.00    -0.211 NA 
HETATM    8  N   UNL     1     -10.388   6.788  69.295  1.00  0.00    -0.190 NA 
HETATM    9  C   UNL     1     -10.445   7.324  70.503  1.00  0.00    -0.217 A  
BRANCH   6  10
HETATM   10  N   UNL     1     -10.176   4.497  72.610  1.00  0.00    -0.174 NA 
HETATM   11  C   UNL     1     -10.819   4.927  73.839  1.00  0.00    -0.289 C  
HETATM   12  C   UNL     1      -9.023   3.626  72.740  1.00  0.00    -0.096 C  
ENDBRANCH   6  10
BRANCH   9  13
HETATM   13  N   UNL     1     -10.590   8.692  70.624  1.00  0.00    -0.204 NA 
HETATM   14  C   UNL     1     -11.653   9.246  71.441  1.00  0.00    -0.367 C  
HETATM   15  C   UNL     1      -9.495   9.572  70.265  1.00  0.00    -0.259 C  
ENDBRANCH   9  13
ENDBRANCH   2   4
TORSDOF 3
ENDMDL
MODEL      159
REMARK 921   NORMALIZED FREE ENERGY PREDICTED BY IDOCK:   -2.77 KCAL/MOL
REMARK 922        TOTAL FREE ENERGY PREDICTED BY IDOCK:   -3.51 KCAL/MOL
REMARK 923 INTER-LIGAND FREE ENERGY PREDICTED BY IDOCK:   -3.26 KCAL/MOL
REMARK 924 INTRA-LIGAND FREE ENERGY PREDICTED BY IDOCK:   -0.26 KCAL/MOL
REMARK 927      BINDING AFFINITY PREDICTED BY RF-SCORE:    0.00 PKD
ROOT
HETATM    1  C   UNL     1     -12.348   6.964  71.221  1.00  0.00    -0.375 C  
HETATM    2  N   UNL     1     -11.390   6.983  70.134  1.00  0.00    -0.289 NA 
HETATM    3  C   UNL     1     -10.784   5.752  69.676  1.00  0.00    -0.346 C  
ENDROOT
BRANCH   2   4
HETATM    4  C   UNL     1     -10.689   8.160  69.916  1.00  0.00    -0.241 A  
HETATM    5  N   UNL     1     -11.228   9.108  69.156  1.00  0.00     0.072 NA 
HETATM    6  C   UNL     1     -10.509  10.202  68.948  1.00  0.00    -0.210 A  
HETATM    7  N   UNL     1      -9.293  10.363  69.459  1.00  0.00    -0.172 NA 
HETATM    8  N   UNL     1      -9.488   8.282  70.466  1.00  0.00    -0.165 NA 
HETATM    9  C   UNL     1      -8.808   9.390  70.222  1.00  0.00    -0.236 A  
BRANCH   6  10
HETATM   10  N   UNL     1     -11.060  11.251  68.231  1.00  0.00    -0.218 NA 
HETATM   11  C   UNL     1     -10.895  11.298  66.789  1.00  0.00    -0.282 C  
HETATM   12  C   UNL     1     -11.300  12.512  68.907  1.00  0.00    -0.297 C  
ENDBRANCH   6  10
BRANCH   9  13
HETATM   13  N   UNL     1      -7.533   9.521  70.737  1.00  0.00    -0.265 NA 
HETATM   14  C   UNL     1      -7.004   8.521  71.646  1.00  0.00    -0.088 C  
HETATM   15  C   UNL     1      -6.586  10.421  70.108  1.00  0.00    -0.146 C  
ENDBRANCH   9  13
ENDBRANCH   2   4
TORSDOF 3
ENDMDL
MODEL      160
REMARK 921   NORMALIZED FREE ENERGY PREDICTED BY IDOCK:   -2.76 KCAL/MOL
REMARK 922        TOTAL FREE ENERGY PREDICTED BY IDOCK:   -3.50 KCAL/MOL
REMARK 923 INTER-LIGAND FREE ENERGY PREDICTED BY IDOCK:   -3.25 KCAL/MOL
REMARK 924 INTRA-LIGAND FREE ENERGY PREDICTED BY IDOCK:   -0.26 KCAL/MOL
REMARK 927      BINDING AFFINITY PREDICTED BY RF-SCORE:    0.00 PKD
ROOT
HETATM    1  C   UNL     1      -5.730  17.456  69.980  1.00  0.00    -0.243 C  
HETATM    2  N   UNL     1      -6.795  17.511  68.998  1.00  0.00    -0.239 NA 
HETATM    3  C   UNL     1      -7.400  18.778  68.651  1.00  0.00    -0.307 C  
ENDROOT
BRANCH   2   4
HETATM    4  C   UNL     1      -7.556  16.366  68.811  1.00  0.00    -0.211 A  
HETATM    5  N   UNL     1      -8.878  16.470  68.716  1.00  0.00    -0.246 NA 
HETATM    6  C   UNL     1      -9.567  15.348  68.572  1.00  0.00    -0.201 A  
HETATM    7  N   UNL     1      -8.984  14.154  68.528  1.00  0.00    -0.190 NA 
HETATM    8  N   UNL     1      -6.925  15.201  68.752  1.00  0.00    -0.106 NA 
HETATM    9  C   UNL     1      -7.659  14.108  68.614  1.00  0.00    -0.126 A  
BRANCH   6  10
HETATM   10  N   UNL     1     -10.938  15.412  68.388  1.00  0.00    -0.270 NA 
HETATM   11  C   UNL     1     -11.807  15.580  69.539  1.00  0.00    -0.372 C  
HETATM   12  C   UNL     1     -11.517  14.791  67.211  1.00  0.00    -0.366 C  
ENDBRANCH   6  10
BRANCH   9  13
HETATM   13  N   UNL     1      -7.034  12.877  68.604  1.00  0.00    -0.097 NA 
HETATM   14  C   UNL     1      -7.000  12.084  67.389  1.00  0.00    -0.139 C  
HETATM   15  C   UNL     1      -6.099  12.529  69.656  1.00  0.00    -0.133 C  
ENDBRANCH   9  13
ENDBRANCH   2   4
TORSDOF 3
ENDMDL
MODEL      161
REMARK 921   NORMALIZED FREE ENERGY PREDICTED BY IDOCK:   -2.74 KCAL/MOL
REMARK 922        TOTAL FREE ENERGY PREDICTED BY IDOCK:   -3.48 KCAL/MOL
REMARK 923 INTER-LIGAND FREE ENERGY PREDICTED BY IDOCK:   -3.22 KCAL/MOL
REMARK 924 INTRA-LIGAND FREE ENERGY PREDICTED BY IDOCK:   -0.26 KCAL/MOL
REMARK 927      BINDING AFFINITY PREDICTED BY RF-SCORE:    0.00 PKD
ROOT
HETATM    1  C   UNL     1     -11.160  16.197  69.197  1.00  0.00    -0.329 C  
HETATM    2  N   UNL     1     -11.198  14.752  69.089  1.00  0.00    -0.257 NA 
HETATM    3  C   UNL     1     -11.954  13.971  70.043  1.00  0.00    -0.339 C  
ENDROOT
BRANCH   2   4
HETATM    4  C   UNL     1     -10.138  14.128  68.448  1.00  0.00    -0.238 A  
HETATM    5  N   UNL     1      -9.033  14.822  68.189  1.00  0.00    -0.173 NA 
HETATM    6  C   UNL     1      -8.059  14.195  67.546  1.00  0.00    -0.187 A  
HETATM    7  N   UNL     1      -8.161  12.928  67.159  1.00  0.00    -0.169 NA 
HETATM    8  N   UNL     1     -10.280  12.856  68.101  1.00  0.00    -0.233 NA 
HETATM    9  C   UNL     1      -9.281  12.277  67.455  1.00  0.00    -0.181 A  
BRANCH   6  10
HETATM   10  N   UNL     1      -6.859  14.850  67.326  1.00  0.00    -0.267 NA 
HETATM   11  C   UNL     1      -5.637  14.319  67.902  1.00  0.00    -0.093 C  
HETATM   12  C   UNL     1      -6.882  16.269  67.023  1.00  0.00    -0.200 C  
ENDBRANCH   6  10
BRANCH   9  13
HETATM   13  N   UNL     1      -9.423  10.970  67.033  1.00  0.00    -0.171 NA 
HETATM   14  C   UNL     1      -9.137   9.874  67.940  1.00  0.00    -0.131 C  
HETATM   15  C   UNL     1     -10.199  10.670  65.846  1.00  0.00    -0.251 C  
ENDBRANCH   9  13
ENDBRANCH   2   4
TORSDOF 3
ENDMDL
MODEL      162
REMARK 921   NORMALIZED FREE ENERGY PREDICTED BY IDOCK:   -2.71 KCAL/MOL
REMARK 922        TOTAL FREE ENERGY PREDICTED BY IDOCK:   -3.45 KCAL/MOL
REMARK 923 INTER-LIGAND FREE ENERGY PREDICTED BY IDOCK:   -3.17 KCAL/MOL
REMARK 924 INTRA-LIGAND FREE ENERGY PREDICTED BY IDOCK:   -0.28 KCAL/MOL
REMARK 927      BINDING AFFINITY PREDICTED BY RF-SCORE:    0.00 PKD
ROOT
HETATM    1  C   UNL     1      -9.394   2.253  68.600  1.00  0.00    -0.176 C  
HETATM    2  N   UNL     1      -9.112   2.860  69.885  1.00  0.00    -0.108 NA 
HETATM    3  C   UNL     1      -8.815   2.030  71.032  1.00  0.00    -0.067 C  
ENDROOT
BRANCH   2   4
HETATM    4  C   UNL     1      -9.634   4.123  70.128  1.00  0.00    -0.202 A  
HETATM    5  N   UNL     1      -9.889   4.493  71.379  1.00  0.00    -0.185 NA 
HETATM    6  C   UNL     1     -10.417   5.695  71.561  1.00  0.00    -0.239 A  
HETATM    7  N   UNL     1     -10.698   6.510  70.550  1.00  0.00    -0.240 NA 
HETATM    8  N   UNL     1      -9.876   4.908  69.087  1.00  0.00    -0.186 NA 
HETATM    9  C   UNL     1     -10.411   6.095  69.321  1.00  0.00    -0.254 A  
BRANCH   6  10
HETATM   10  N   UNL     1     -10.625   6.157  72.850  1.00  0.00    -0.220 NA 
HETATM   11  C   UNL     1     -10.146   7.476  73.224  1.00  0.00    -0.331 C  
HETATM   12  C   UNL     1     -10.800   5.193  73.920  1.00  0.00    -0.250 C  
ENDBRANCH   6  10
BRANCH   9  13
HETATM   13  N   UNL     1     -10.724   6.913  68.253  1.00  0.00    -0.221 NA 
HETATM   14  C   UNL     1     -10.314   8.304  68.252  1.00  0.00    -0.198 C  
HETATM   15  C   UNL     1     -11.119   6.331  66.985  1.00  0.00    -0.297 C  
ENDBRANCH   9  13
ENDBRANCH   2   4
TORSDOF 3
ENDMDL
MODEL      163
REMARK 921   NORMALIZED FREE ENERGY PREDICTED BY IDOCK:   -2.71 KCAL/MOL
REMARK 922        TOTAL FREE ENERGY PREDICTED BY IDOCK:   -3.45 KCAL/MOL
REMARK 923 INTER-LIGAND FREE ENERGY PREDICTED BY IDOCK:   -3.20 KCAL/MOL
REMARK 924 INTRA-LIGAND FREE ENERGY PREDICTED BY IDOCK:   -0.25 KCAL/MOL
REMARK 927      BINDING AFFINITY PREDICTED BY RF-SCORE:    0.00 PKD
ROOT
HETATM    1  C   UNL     1      -6.393  14.270  69.471  1.00  0.00    -0.127 C  
HETATM    2  N   UNL     1      -7.112  14.403  68.219  1.00  0.00    -0.100 NA 
HETATM    3  C   UNL     1      -6.842  15.519  67.340  1.00  0.00    -0.189 C  
ENDROOT
BRANCH   2   4
HETATM    4  C   UNL     1      -8.361  13.806  68.129  1.00  0.00    -0.165 A  
HETATM    5  N   UNL     1      -8.492  12.665  67.459  1.00  0.00    -0.165 NA 
HETATM    6  C   UNL     1      -9.709  12.148  67.371  1.00  0.00    -0.179 A  
HETATM    7  N   UNL     1     -10.772  12.732  67.914  1.00  0.00    -0.215 NA 
HETATM    8  N   UNL     1      -9.387  14.417  68.706  1.00  0.00    -0.184 NA 
HETATM    9  C   UNL     1     -10.583  13.864  68.583  1.00  0.00    -0.257 A  
BRANCH   6  10
HETATM   10  N   UNL     1      -9.882  10.921  66.754  1.00  0.00    -0.190 NA 
HETATM   11  C   UNL     1      -9.792  10.827  65.308  1.00  0.00    -0.272 C  
HETATM   12  C   UNL     1     -10.658   9.899  67.432  1.00  0.00    -0.277 C  
ENDBRANCH   6  10
BRANCH   9  13
HETATM   13  N   UNL     1     -11.678  14.506  69.127  1.00  0.00    -0.296 NA 
HETATM   14  C   UNL     1     -12.495  13.840  70.124  1.00  0.00    -0.267 C  
HETATM   15  C   UNL     1     -11.810  15.945  69.007  1.00  0.00    -0.318 C  
ENDBRANCH   9  13
ENDBRANCH   2   4
TORSDOF 3
ENDMDL
MODEL      164
REMARK 921   NORMALIZED FREE ENERGY PREDICTED BY IDOCK:   -2.71 KCAL/MOL
REMARK 922        TOTAL FREE ENERGY PREDICTED BY IDOCK:   -3.45 KCAL/MOL
REMARK 923 INTER-LIGAND FREE ENERGY PREDICTED BY IDOCK:   -3.18 KCAL/MOL
REMARK 924 INTRA-LIGAND FREE ENERGY PREDICTED BY IDOCK:   -0.26 KCAL/MOL
REMARK 927      BINDING AFFINITY PREDICTED BY RF-SCORE:    0.00 PKD
ROOT
HETATM    1  C   UNL     1     -10.634  15.510  68.631  1.00  0.00    -0.243 C  
HETATM    2  N   UNL     1     -10.880  14.093  68.453  1.00  0.00    -0.247 NA 
HETATM    3  C   UNL     1     -11.722  13.378  69.386  1.00  0.00    -0.325 C  
ENDROOT
BRANCH   2   4
HETATM    4  C   UNL     1      -9.931  13.359  67.756  1.00  0.00    -0.233 A  
HETATM    5  N   UNL     1     -10.320  12.327  67.014  1.00  0.00    -0.218 NA 
HETATM    6  C   UNL     1      -9.376  11.634  66.393  1.00  0.00    -0.213 A  
HETATM    7  N   UNL     1      -8.086  11.935  66.499  1.00  0.00    -0.061 NA 
HETATM    8  N   UNL     1      -8.658  13.712  67.876  1.00  0.00    -0.169 NA 
HETATM    9  C   UNL     1      -7.753  12.984  67.242  1.00  0.00    -0.105 A  
BRANCH   6  10
HETATM   10  N   UNL     1      -9.739  10.601  65.545  1.00  0.00    -0.220 NA 
HETATM   11  C   UNL     1     -10.519  10.892  64.356  1.00  0.00    -0.333 C  
HETATM   12  C   UNL     1      -9.831   9.256  66.080  1.00  0.00    -0.293 C  
ENDBRANCH   6  10
BRANCH   9  13
HETATM   13  N   UNL     1      -6.416  13.295  67.393  1.00  0.00    -0.258 NA 
HETATM   14  C   UNL     1      -6.021  14.548  68.010  1.00  0.00    -0.151 C  
HETATM   15  C   UNL     1      -5.413  12.253  67.294  1.00  0.00    -0.113 C  
ENDBRANCH   9  13
ENDBRANCH   2   4
TORSDOF 3
ENDMDL
MODEL      165
REMARK 921   NORMALIZED FREE ENERGY PREDICTED BY IDOCK:   -2.69 KCAL/MOL
REMARK 922        TOTAL FREE ENERGY PREDICTED BY IDOCK:   -3.43 KCAL/MOL
REMARK 923 INTER-LIGAND FREE ENERGY PREDICTED BY IDOCK:   -3.15 KCAL/MOL
REMARK 924 INTRA-LIGAND FREE ENERGY PREDICTED BY IDOCK:   -0.28 KCAL/MOL
REMARK 927      BINDING AFFINITY PREDICTED BY RF-SCORE:    0.00 PKD
ROOT
HETATM    1  C   UNL     1      -9.591  13.199  67.190  1.00  0.00    -0.235 C  
HETATM    2  N   UNL     1     -10.689  12.257  67.269  1.00  0.00    -0.226 NA 
HETATM    3  C   UNL     1     -11.991  12.694  67.722  1.00  0.00    -0.243 C  
ENDROOT
BRANCH   2   4
HETATM    4  C   UNL     1     -10.374  10.915  67.428  1.00  0.00    -0.211 A  
HETATM    5  N   UNL     1     -10.678  10.305  68.569  1.00  0.00    -0.214 NA 
HETATM    6  C   UNL     1     -10.328   9.032  68.689  1.00  0.00    -0.209 A  
HETATM    7  N   UNL     1      -9.691   8.374  67.726  1.00  0.00    -0.156 NA 
HETATM    8  N   UNL     1      -9.758  10.297  66.429  1.00  0.00    -0.191 NA 
HETATM    9  C   UNL     1      -9.424   9.028  66.601  1.00  0.00    -0.194 A  
BRANCH   6  10
HETATM   10  N   UNL     1     -10.694   8.331  69.826  1.00  0.00    -0.238 NA 
HETATM   11  C   UNL     1     -10.938   6.903  69.739  1.00  0.00    -0.270 C  
HETATM   12  C   UNL     1     -11.345   9.045  70.909  1.00  0.00    -0.293 C  
ENDBRANCH   6  10
BRANCH   9  13
HETATM   13  N   UNL     1      -8.734   8.374  65.599  1.00  0.00    -0.173 NA 
HETATM   14  C   UNL     1      -8.457   6.954  65.708  1.00  0.00    -0.146 C  
HETATM   15  C   UNL     1      -8.611   8.980  64.287  1.00  0.00    -0.148 C  
ENDBRANCH   9  13
ENDBRANCH   2   4
TORSDOF 3
ENDMDL
MODEL      166
REMARK 921   NORMALIZED FREE ENERGY PREDICTED BY IDOCK:   -2.69 KCAL/MOL
REMARK 922        TOTAL FREE ENERGY PREDICTED BY IDOCK:   -3.42 KCAL/MOL
REMARK 923 INTER-LIGAND FREE ENERGY PREDICTED BY IDOCK:   -3.15 KCAL/MOL
REMARK 924 INTRA-LIGAND FREE ENERGY PREDICTED BY IDOCK:   -0.27 KCAL/MOL
REMARK 927      BINDING AFFINITY PREDICTED BY RF-SCORE:    0.00 PKD
ROOT
HETATM    1  C   UNL     1      -5.688  20.477  68.345  1.00  0.00    -0.289 C  
HETATM    2  N   UNL     1      -6.755  19.828  67.610  1.00  0.00    -0.229 NA 
HETATM    3  C   UNL     1      -7.640  20.607  66.773  1.00  0.00    -0.190 C  
ENDROOT
BRANCH   2   4
HETATM    4  C   UNL     1      -7.238  18.626  68.106  1.00  0.00    -0.252 A  
HETATM    5  N   UNL     1      -8.537  18.357  68.014  1.00  0.00    -0.266 NA 
HETATM    6  C   UNL     1      -8.959  17.212  68.531  1.00  0.00    -0.265 A  
HETATM    7  N   UNL     1      -8.138  16.355  69.129  1.00  0.00    -0.231 NA 
HETATM    8  N   UNL     1      -6.375  17.794  68.674  1.00  0.00    -0.190 NA 
HETATM    9  C   UNL     1      -6.847  16.667  69.181  1.00  0.00    -0.224 A  
BRANCH   6  10
HETATM   10  N   UNL     1     -10.288  16.852  68.388  1.00  0.00    -0.317 NA 
HETATM   11  C   UNL     1     -11.031  17.303  67.225  1.00  0.00    -0.005 C  
HETATM   12  C   UNL     1     -11.057  16.527  69.575  1.00  0.00    -0.245 C  
ENDBRANCH   6  10
BRANCH   9  13
HETATM   13  N   UNL     1      -5.981  15.806  69.827  1.00  0.00    -0.151 NA 
HETATM   14  C   UNL     1      -5.154  16.284  70.919  1.00  0.00    -0.182 C  
HETATM   15  C   UNL     1      -6.147  14.372  69.692  1.00  0.00    -0.119 C  
ENDBRANCH   9  13
ENDBRANCH   2   4
TORSDOF 3
ENDMDL
MODEL      167
REMARK 921   NORMALIZED FREE ENERGY PREDICTED BY IDOCK:   -2.69 KCAL/MOL
REMARK 922        TOTAL FREE ENERGY PREDICTED BY IDOCK:   -3.42 KCAL/MOL
REMARK 923 INTER-LIGAND FREE ENERGY PREDICTED BY IDOCK:   -3.16 KCAL/MOL
REMARK 924 INTRA-LIGAND FREE ENERGY PREDICTED BY IDOCK:   -0.26 KCAL/MOL
REMARK 927      BINDING AFFINITY PREDICTED BY RF-SCORE:    0.00 PKD
ROOT
HETATM    1  C   UNL     1      -6.359   7.056  64.009  1.00  0.00    -0.043 C  
HETATM    2  N   UNL     1      -6.781   8.443  64.006  1.00  0.00    -0.074 NA 
HETATM    3  C   UNL     1      -5.808   9.498  63.826  1.00  0.00    -0.092 C  
ENDROOT
BRANCH   2   4
HETATM    4  C   UNL     1      -7.951   8.760  64.680  1.00  0.00    -0.135 A  
HETATM    5  N   UNL     1      -8.601   9.877  64.367  1.00  0.00    -0.169 NA 
HETATM    6  C   UNL     1      -9.696  10.157  65.060  1.00  0.00    -0.318 A  
HETATM    7  N   UNL     1     -10.141   9.374  66.037  1.00  0.00    -0.283 NA 
HETATM    8  N   UNL     1      -8.366   7.935  65.632  1.00  0.00    -0.136 NA 
HETATM    9  C   UNL     1      -9.460   8.263  66.299  1.00  0.00    -0.203 A  
BRANCH   6  10
HETATM   10  N   UNL     1     -10.451  11.266  64.717  1.00  0.00    -0.308 NA 
HETATM   11  C   UNL     1     -10.450  11.735  63.343  1.00  0.00    -0.434 C  
HETATM   12  C   UNL     1     -10.775  12.238  65.744  1.00  0.00    -0.263 C  
ENDBRANCH   6  10
BRANCH   9  13
HETATM   13  N   UNL     1      -9.885   7.451  67.332  1.00  0.00    -0.157 NA 
HETATM   14  C   UNL     1     -10.934   6.473  67.110  1.00  0.00    -0.408 C  
HETATM   15  C   UNL     1      -9.064   7.293  68.516  1.00  0.00    -0.136 C  
ENDBRANCH   9  13
ENDBRANCH   2   4
TORSDOF 3
ENDMDL
MODEL      168
REMARK 921   NORMALIZED FREE ENERGY PREDICTED BY IDOCK:   -2.67 KCAL/MOL
REMARK 922        TOTAL FREE ENERGY PREDICTED BY IDOCK:   -3.40 KCAL/MOL
REMARK 923 INTER-LIGAND FREE ENERGY PREDICTED BY IDOCK:   -3.14 KCAL/MOL
REMARK 924 INTRA-LIGAND FREE ENERGY PREDICTED BY IDOCK:   -0.26 KCAL/MOL
REMARK 927      BINDING AFFINITY PREDICTED BY RF-SCORE:    0.00 PKD
ROOT
HETATM    1  C   UNL     1      -7.431  11.269  66.978  1.00  0.00    -0.139 C  
HETATM    2  N   UNL     1      -8.843  11.038  66.746  1.00  0.00    -0.152 NA 
HETATM    3  C   UNL     1      -9.646  12.045  66.088  1.00  0.00    -0.239 C  
ENDROOT
BRANCH   2   4
HETATM    4  C   UNL     1      -9.495  10.149  67.588  1.00  0.00    -0.148 A  
HETATM    5  N   UNL     1      -9.416   8.844  67.345  1.00  0.00    -0.141 NA 
HETATM    6  C   UNL     1     -10.082   8.034  68.156  1.00  0.00    -0.197 A  
HETATM    7  N   UNL     1     -10.813   8.485  69.170  1.00  0.00    -0.102 NA 
HETATM    8  N   UNL     1     -10.193  10.646  68.600  1.00  0.00    -0.173 NA 
HETATM    9  C   UNL     1     -10.846   9.797  69.375  1.00  0.00    -0.232 A  
BRANCH   6  10
HETATM   10  N   UNL     1      -9.965   6.664  67.993  1.00  0.00    -0.137 NA 
HETATM   11  C   UNL     1     -10.281   6.066  66.708  1.00  0.00    -0.214 C  
HETATM   12  C   UNL     1     -10.070   5.808  69.160  1.00  0.00    -0.197 C  
ENDBRANCH   6  10
BRANCH   9  13
HETATM   13  N   UNL     1     -11.625  10.290  70.404  1.00  0.00    -0.304 NA 
HETATM   14  C   UNL     1     -11.689   9.589  71.673  1.00  0.00    -0.390 C  
HETATM   15  C   UNL     1     -12.076  11.667  70.377  1.00  0.00    -0.373 C  
ENDBRANCH   9  13
ENDBRANCH   2   4
TORSDOF 3
ENDMDL
MODEL      169
REMARK 921   NORMALIZED FREE ENERGY PREDICTED BY IDOCK:   -2.59 KCAL/MOL
REMARK 922        TOTAL FREE ENERGY PREDICTED BY IDOCK:   -3.30 KCAL/MOL
REMARK 923 INTER-LIGAND FREE ENERGY PREDICTED BY IDOCK:   -3.03 KCAL/MOL
REMARK 924 INTRA-LIGAND FREE ENERGY PREDICTED BY IDOCK:   -0.27 KCAL/MOL
REMARK 927      BINDING AFFINITY PREDICTED BY RF-SCORE:    0.00 PKD
ROOT
HETATM    1  C   UNL     1      -9.462  17.849  68.632  1.00  0.00    -0.298 C  
HETATM    2  N   UNL     1      -8.290  17.001  68.538  1.00  0.00    -0.251 NA 
HETATM    3  C   UNL     1      -7.032  17.548  68.079  1.00  0.00    -0.195 C  
ENDROOT
BRANCH   2   4
HETATM    4  C   UNL     1      -8.494  15.639  68.371  1.00  0.00    -0.164 A  
HETATM    5  N   UNL     1      -9.728  15.150  68.452  1.00  0.00    -0.207 NA 
HETATM    6  C   UNL     1      -9.871  13.839  68.319  1.00  0.00    -0.232 A  
HETATM    7  N   UNL     1      -8.839  13.026  68.122  1.00  0.00    -0.191 NA 
HETATM    8  N   UNL     1      -7.434  14.872  68.154  1.00  0.00    -0.107 NA 
HETATM    9  C   UNL     1      -7.630  13.569  68.036  1.00  0.00    -0.143 A  
BRANCH   6  10
HETATM   10  N   UNL     1     -11.144  13.293  68.315  1.00  0.00    -0.253 NA 
HETATM   11  C   UNL     1     -11.665  12.703  67.095  1.00  0.00    -0.371 C  
HETATM   12  C   UNL     1     -12.114  13.770  69.282  1.00  0.00    -0.329 C  
ENDBRANCH   6  10
BRANCH   9  13
HETATM   13  N   UNL     1      -6.539  12.739  67.864  1.00  0.00    -0.102 NA 
HETATM   14  C   UNL     1      -5.487  12.698  68.862  1.00  0.00    -0.063 C  
HETATM   15  C   UNL     1      -6.600  11.648  66.911  1.00  0.00    -0.129 C  
ENDBRANCH   9  13
ENDBRANCH   2   4
TORSDOF 3
ENDMDL
MODEL      170
REMARK 921   NORMALIZED FREE ENERGY PREDICTED BY IDOCK:   -2.57 KCAL/MOL
REMARK 922        TOTAL FREE ENERGY PREDICTED BY IDOCK:   -3.28 KCAL/MOL
REMARK 923 INTER-LIGAND FREE ENERGY PREDICTED BY IDOCK:   -3.01 KCAL/MOL
REMARK 924 INTRA-LIGAND FREE ENERGY PREDICTED BY IDOCK:   -0.27 KCAL/MOL
REMARK 927      BINDING AFFINITY PREDICTED BY RF-SCORE:    0.00 PKD
ROOT
HETATM    1  C   UNL     1      -8.410   9.122  67.837  1.00  0.00    -0.117 C  
HETATM    2  N   UNL     1      -9.719   9.550  68.287  1.00  0.00    -0.145 NA 
HETATM    3  C   UNL     1     -10.356  10.699  67.682  1.00  0.00    -0.209 C  
ENDROOT
BRANCH   2   4
HETATM    4  C   UNL     1     -10.094   9.219  69.581  1.00  0.00    -0.197 A  
HETATM    5  N   UNL     1      -9.178   8.753  70.426  1.00  0.00    -0.168 NA 
HETATM    6  C   UNL     1      -9.588   8.419  71.641  1.00  0.00    -0.221 A  
HETATM    7  N   UNL     1     -10.856   8.527  72.021  1.00  0.00    -0.310 NA 
HETATM    8  N   UNL     1     -11.368   9.366  69.919  1.00  0.00    -0.155 NA 
HETATM    9  C   UNL     1     -11.727   9.011  71.141  1.00  0.00    -0.302 A  
BRANCH   6  10
HETATM   10  N   UNL     1      -8.658   8.005  72.581  1.00  0.00    -0.161 NA 
HETATM   11  C   UNL     1      -9.112   7.521  73.872  1.00  0.00    -0.264 C  
HETATM   12  C   UNL     1      -7.311   8.540  72.515  1.00  0.00    -0.032 C  
ENDBRANCH   6  10
BRANCH   9  13
HETATM   13  N   UNL     1     -13.057   9.102  71.503  1.00  0.00    -0.344 NA 
HETATM   14  C   UNL     1     -13.770   7.928  71.968  1.00  0.00    -0.228 C  
HETATM   15  C   UNL     1     -13.646  10.397  71.784  1.00  0.00    -0.151 C  
ENDBRANCH   9  13
ENDBRANCH   2   4
TORSDOF 3
ENDMDL
MODEL      171
REMARK 921   NORMALIZED FREE ENERGY PREDICTED BY IDOCK:   -2.55 KCAL/MOL
REMARK 922        TOTAL FREE ENERGY PREDICTED BY IDOCK:   -3.26 KCAL/MOL
REMARK 923 INTER-LIGAND FREE ENERGY PREDICTED BY IDOCK:   -2.98 KCAL/MOL
REMARK 924 INTRA-LIGAND FREE ENERGY PREDICTED BY IDOCK:   -0.28 KCAL/MOL
REMARK 927      BINDING AFFINITY PREDICTED BY RF-SCORE:    0.00 PKD
ROOT
HETATM    1  C   UNL     1      -9.798   7.629  73.164  1.00  0.00    -0.279 C  
HETATM    2  N   UNL     1     -10.588   8.473  72.290  1.00  0.00    -0.339 NA 
HETATM    3  C   UNL     1     -12.003   8.651  72.535  1.00  0.00    -0.288 C  
ENDROOT
BRANCH   2   4
HETATM    4  C   UNL     1     -10.136   8.655  70.991  1.00  0.00    -0.215 A  
HETATM    5  N   UNL     1     -10.200   9.864  70.442  1.00  0.00    -0.275 NA 
HETATM    6  C   UNL     1      -9.789   9.984  69.188  1.00  0.00    -0.205 A  
HETATM    7  N   UNL     1      -9.335   8.952  68.485  1.00  0.00    -0.140 NA 
HETATM    8  N   UNL     1      -9.672   7.598  70.339  1.00  0.00    -0.179 NA 
HETATM    9  C   UNL     1      -9.280   7.769  69.087  1.00  0.00    -0.144 A  
BRANCH   6  10
HETATM   10  N   UNL     1      -9.760  11.238  68.600  1.00  0.00    -0.201 NA 
HETATM   11  C   UNL     1     -10.868  12.152  68.810  1.00  0.00    -0.228 C  
HETATM   12  C   UNL     1      -8.965  11.431  67.402  1.00  0.00    -0.154 C  
ENDBRANCH   6  10
BRANCH   9  13
HETATM   13  N   UNL     1      -8.842   6.675  68.365  1.00  0.00    -0.122 NA 
HETATM   14  C   UNL     1      -8.459   6.823  66.974  1.00  0.00    -0.114 C  
HETATM   15  C   UNL     1      -8.404   5.478  69.056  1.00  0.00    -0.102 C  
ENDBRANCH   9  13
ENDBRANCH   2   4
TORSDOF 3
ENDMDL
MODEL      172
REMARK 921   NORMALIZED FREE ENERGY PREDICTED BY IDOCK:   -2.54 KCAL/MOL
REMARK 922        TOTAL FREE ENERGY PREDICTED BY IDOCK:   -3.24 KCAL/MOL
REMARK 923 INTER-LIGAND FREE ENERGY PREDICTED BY IDOCK:   -2.99 KCAL/MOL
REMARK 924 INTRA-LIGAND FREE ENERGY PREDICTED BY IDOCK:   -0.25 KCAL/MOL
REMARK 927      BINDING AFFINITY PREDICTED BY RF-SCORE:    0.00 PKD
ROOT
HETATM    1  C   UNL     1      -9.243   9.874  63.919  1.00  0.00    -0.248 C  
HETATM    2  N   UNL     1      -8.659  10.007  65.239  1.00  0.00    -0.146 NA 
HETATM    3  C   UNL     1      -7.251  10.305  65.385  1.00  0.00    -0.143 C  
ENDROOT
BRANCH   2   4
HETATM    4  C   UNL     1      -9.286   9.352  66.288  1.00  0.00    -0.198 A  
HETATM    5  N   UNL     1      -9.321   8.022  66.298  1.00  0.00    -0.198 NA 
HETATM    6  C   UNL     1      -9.960   7.439  67.302  1.00  0.00    -0.198 A  
HETATM    7  N   UNL     1     -10.555   8.133  68.267  1.00  0.00    -0.148 NA 
HETATM    8  N   UNL     1      -9.846  10.088  67.238  1.00  0.00    -0.174 NA 
HETATM    9  C   UNL     1     -10.478   9.458  68.215  1.00  0.00    -0.217 A  
BRANCH   6  10
HETATM   10  N   UNL     1      -9.954   6.058  67.399  1.00  0.00    -0.129 NA 
HETATM   11  C   UNL     1      -8.834   5.389  68.037  1.00  0.00    -0.105 C  
HETATM   12  C   UNL     1     -10.721   5.285  66.441  1.00  0.00    -0.223 C  
ENDBRANCH   6  10
BRANCH   9  13
HETATM   13  N   UNL     1     -11.117  10.200  69.189  1.00  0.00    -0.224 NA 
HETATM   14  C   UNL     1     -11.849  11.400  68.831  1.00  0.00    -0.347 C  
HETATM   15  C   UNL     1     -11.387   9.614  70.487  1.00  0.00    -0.296 C  
ENDBRANCH   9  13
ENDBRANCH   2   4
TORSDOF 3
ENDMDL
MODEL      173
REMARK 921   NORMALIZED FREE ENERGY PREDICTED BY IDOCK:   -2.51 KCAL/MOL
REMARK 922        TOTAL FREE ENERGY PREDICTED BY IDOCK:   -3.21 KCAL/MOL
REMARK 923 INTER-LIGAND FREE ENERGY PREDICTED BY IDOCK:   -2.93 KCAL/MOL
REMARK 924 INTRA-LIGAND FREE ENERGY PREDICTED BY IDOCK:   -0.28 KCAL/MOL
REMARK 927      BINDING AFFINITY PREDICTED BY RF-SCORE:    0.00 PKD
ROOT
HETATM    1  C   UNL     1     -10.534   8.458  67.110  1.00  0.00    -0.310 C  
HETATM    2  N   UNL     1      -9.960   7.157  67.389  1.00  0.00    -0.158 NA 
HETATM    3  C   UNL     1      -9.843   6.172  66.336  1.00  0.00    -0.092 C  
ENDROOT
BRANCH   2   4
HETATM    4  C   UNL     1     -10.028   6.692  68.694  1.00  0.00    -0.147 A  
HETATM    5  N   UNL     1     -10.548   7.472  69.638  1.00  0.00    -0.237 NA 
HETATM    6  C   UNL     1     -10.562   7.000  70.876  1.00  0.00    -0.217 A  
HETATM    7  N   UNL     1     -10.075   5.803  71.188  1.00  0.00    -0.195 NA 
HETATM    8  N   UNL     1      -9.549   5.482  68.952  1.00  0.00    -0.129 NA 
HETATM    9  C   UNL     1      -9.579   5.060  70.205  1.00  0.00    -0.188 A  
BRANCH   6  10
HETATM   10  N   UNL     1     -11.166   7.741  71.878  1.00  0.00    -0.254 NA 
HETATM   11  C   UNL     1     -10.898   7.417  73.268  1.00  0.00    -0.368 C  
HETATM   12  C   UNL     1     -12.413   8.423  71.590  1.00  0.00    -0.328 C  
ENDBRANCH   6  10
BRANCH   9  13
HETATM   13  N   UNL     1      -9.038   3.827  70.511  1.00  0.00    -0.106 NA 
HETATM   14  C   UNL     1      -9.761   2.902  71.364  1.00  0.00    -0.151 C  
HETATM   15  C   UNL     1      -7.954   3.291  69.711  1.00  0.00    -0.048 C  
ENDBRANCH   9  13
ENDBRANCH   2   4
TORSDOF 3
ENDMDL
MODEL      174
REMARK 921   NORMALIZED FREE ENERGY PREDICTED BY IDOCK:   -2.48 KCAL/MOL
REMARK 922        TOTAL FREE ENERGY PREDICTED BY IDOCK:   -3.17 KCAL/MOL
REMARK 923 INTER-LIGAND FREE ENERGY PREDICTED BY IDOCK:   -2.89 KCAL/MOL
REMARK 924 INTRA-LIGAND FREE ENERGY PREDICTED BY IDOCK:   -0.29 KCAL/MOL
REMARK 927      BINDING AFFINITY PREDICTED BY RF-SCORE:    0.00 PKD
ROOT
HETATM    1  C   UNL     1      -9.431   2.236  68.312  1.00  0.00    -0.168 C  
HETATM    2  N   UNL     1      -9.284   2.968  69.554  1.00  0.00    -0.136 NA 
HETATM    3  C   UNL     1      -9.345   2.272  70.820  1.00  0.00    -0.137 C  
ENDROOT
BRANCH   2   4
HETATM    4  C   UNL     1      -9.613   4.316  69.548  1.00  0.00    -0.204 A  
HETATM    5  N   UNL     1      -9.366   5.043  68.463  1.00  0.00    -0.120 NA 
HETATM    6  C   UNL     1      -9.666   6.333  68.514  1.00  0.00    -0.129 A  
HETATM    7  N   UNL     1     -10.187   6.900  69.597  1.00  0.00    -0.188 NA 
HETATM    8  N   UNL     1     -10.151   4.831  70.646  1.00  0.00    -0.232 NA 
HETATM    9  C   UNL     1     -10.427   6.125  70.649  1.00  0.00    -0.236 A  
BRANCH   6  10
HETATM   10  N   UNL     1      -9.502   7.114  67.383  1.00  0.00    -0.128 NA 
HETATM   11  C   UNL     1     -10.515   8.095  67.036  1.00  0.00    -0.326 C  
HETATM   12  C   UNL     1      -8.673   6.615  66.302  1.00  0.00    -0.145 C  
ENDBRANCH   6  10
BRANCH   9  13
HETATM   13  N   UNL     1     -10.937   6.699  71.797  1.00  0.00    -0.233 NA 
HETATM   14  C   UNL     1     -11.307   5.870  72.928  1.00  0.00    -0.226 C  
HETATM   15  C   UNL     1     -10.763   8.119  72.037  1.00  0.00    -0.278 C  
ENDBRANCH   9  13
ENDBRANCH   2   4
TORSDOF 3
ENDMDL
MODEL      175
REMARK 921   NORMALIZED FREE ENERGY PREDICTED BY IDOCK:   -2.48 KCAL/MOL
REMARK 922        TOTAL FREE ENERGY PREDICTED BY IDOCK:   -3.17 KCAL/MOL
REMARK 923 INTER-LIGAND FREE ENERGY PREDICTED BY IDOCK:   -2.92 KCAL/MOL
REMARK 924 INTRA-LIGAND FREE ENERGY PREDICTED BY IDOCK:   -0.25 KCAL/MOL
REMARK 927      BINDING AFFINITY PREDICTED BY RF-SCORE:    0.00 PKD
ROOT
HETATM    1  C   UNL     1     -10.475   8.522  66.995  1.00  0.00    -0.292 C  
HETATM    2  N   UNL     1      -9.783   9.162  68.096  1.00  0.00    -0.151 NA 
HETATM    3  C   UNL     1      -9.985   8.695  69.450  1.00  0.00    -0.197 C  
ENDROOT
BRANCH   2   4
HETATM    4  C   UNL     1      -9.385  10.480  67.926  1.00  0.00    -0.143 A  
HETATM    5  N   UNL     1     -10.201  11.333  67.314  1.00  0.00    -0.190 NA 
HETATM    6  C   UNL     1      -9.765  12.573  67.144  1.00  0.00    -0.205 A  
HETATM    7  N   UNL     1      -8.565  12.970  67.553  1.00  0.00    -0.180 NA 
HETATM    8  N   UNL     1      -8.187  10.832  68.372  1.00  0.00    -0.122 NA 
HETATM    9  C   UNL     1      -7.796  12.080  68.172  1.00  0.00    -0.145 A  
BRANCH   6  10
HETATM   10  N   UNL     1     -10.609  13.518  66.584  1.00  0.00    -0.278 NA 
HETATM   11  C   UNL     1     -12.015  13.528  66.948  1.00  0.00    -0.399 C  
HETATM   12  C   UNL     1     -10.258  14.099  65.302  1.00  0.00    -0.375 C  
ENDBRANCH   6  10
BRANCH   9  13
HETATM   13  N   UNL     1      -6.532  12.460  68.576  1.00  0.00    -0.064 NA 
HETATM   14  C   UNL     1      -5.669  13.205  67.678  1.00  0.00    -0.102 C  
HETATM   15  C   UNL     1      -6.191  12.463  69.985  1.00  0.00    -0.075 C  
ENDBRANCH   9  13
ENDBRANCH   2   4
TORSDOF 3
ENDMDL
MODEL      176
REMARK 921   NORMALIZED FREE ENERGY PREDICTED BY IDOCK:   -2.46 KCAL/MOL
REMARK 922        TOTAL FREE ENERGY PREDICTED BY IDOCK:   -3.15 KCAL/MOL
REMARK 923 INTER-LIGAND FREE ENERGY PREDICTED BY IDOCK:   -2.90 KCAL/MOL
REMARK 924 INTRA-LIGAND FREE ENERGY PREDICTED BY IDOCK:   -0.25 KCAL/MOL
REMARK 927      BINDING AFFINITY PREDICTED BY RF-SCORE:    0.00 PKD
ROOT
HETATM    1  C   UNL     1      -6.637   8.759  69.762  1.00  0.00    -0.041 C  
HETATM    2  N   UNL     1      -7.785   8.766  68.877  1.00  0.00    -0.094 NA 
HETATM    3  C   UNL     1      -8.156   9.976  68.176  1.00  0.00    -0.108 C  
ENDROOT
BRANCH   2   4
HETATM    4  C   UNL     1      -8.783   7.831  69.111  1.00  0.00    -0.139 A  
HETATM    5  N   UNL     1      -8.965   6.840  68.243  1.00  0.00    -0.124 NA 
HETATM    6  C   UNL     1      -9.951   5.990  68.490  1.00  0.00    -0.142 A  
HETATM    7  N   UNL     1     -10.743   6.106  69.550  1.00  0.00    -0.283 NA 
HETATM    8  N   UNL     1      -9.533   7.977  70.195  1.00  0.00    -0.160 NA 
HETATM    9  C   UNL     1     -10.508   7.106  70.393  1.00  0.00    -0.218 A  
BRANCH   6  10
HETATM   10  N   UNL     1     -10.128   4.897  67.658  1.00  0.00    -0.145 NA 
HETATM   11  C   UNL     1      -9.493   3.634  67.991  1.00  0.00    -0.161 C  
HETATM   12  C   UNL     1     -10.451   5.123  66.262  1.00  0.00    -0.289 C  
ENDBRANCH   6  10
BRANCH   9  13
HETATM   13  N   UNL     1     -11.340   7.265  71.484  1.00  0.00    -0.246 NA 
HETATM   14  C   UNL     1     -10.861   7.941  72.675  1.00  0.00    -0.364 C  
HETATM   15  C   UNL     1     -12.773   7.111  71.333  1.00  0.00    -0.391 C  
ENDBRANCH   9  13
ENDBRANCH   2   4
TORSDOF 3
ENDMDL
MODEL      177
REMARK 921   NORMALIZED FREE ENERGY PREDICTED BY IDOCK:   -2.44 KCAL/MOL
REMARK 922        TOTAL FREE ENERGY PREDICTED BY IDOCK:   -3.13 KCAL/MOL
REMARK 923 INTER-LIGAND FREE ENERGY PREDICTED BY IDOCK:   -2.87 KCAL/MOL
REMARK 924 INTRA-LIGAND FREE ENERGY PREDICTED BY IDOCK:   -0.26 KCAL/MOL
REMARK 927      BINDING AFFINITY PREDICTED BY RF-SCORE:    0.00 PKD
ROOT
HETATM    1  C   UNL     1      -6.232   9.024  71.148  1.00  0.00    -0.062 C  
HETATM    2  N   UNL     1      -6.854   7.882  70.507  1.00  0.00    -0.041 NA 
HETATM    3  C   UNL     1      -6.066   6.994  69.681  1.00  0.00    -0.030 C  
ENDROOT
BRANCH   2   4
HETATM    4  C   UNL     1      -8.216   7.949  70.256  1.00  0.00    -0.124 A  
HETATM    5  N   UNL     1      -8.642   8.469  69.108  1.00  0.00    -0.132 NA 
HETATM    6  C   UNL     1      -9.953   8.543  68.925  1.00  0.00    -0.190 A  
HETATM    7  N   UNL     1     -10.825   8.130  69.839  1.00  0.00    -0.241 NA 
HETATM    8  N   UNL     1      -9.046   7.503  71.190  1.00  0.00    -0.146 NA 
HETATM    9  C   UNL     1     -10.345   7.607  70.961  1.00  0.00    -0.202 A  
BRANCH   6  10
HETATM   10  N   UNL     1     -10.443   9.002  67.714  1.00  0.00    -0.248 NA 
HETATM   11  C   UNL     1      -9.865   8.512  66.475  1.00  0.00    -0.272 C  
HETATM   12  C   UNL     1     -11.098  10.296  67.668  1.00  0.00    -0.251 C  
ENDBRANCH   6  10
BRANCH   9  13
HETATM   13  N   UNL     1     -11.232   7.201  71.939  1.00  0.00    -0.243 NA 
HETATM   14  C   UNL     1     -10.833   7.199  73.334  1.00  0.00    -0.319 C  
HETATM   15  C   UNL     1     -12.651   7.137  71.649  1.00  0.00    -0.375 C  
ENDBRANCH   9  13
ENDBRANCH   2   4
TORSDOF 3
ENDMDL
MODEL      178
REMARK 921   NORMALIZED FREE ENERGY PREDICTED BY IDOCK:   -2.35 KCAL/MOL
REMARK 922        TOTAL FREE ENERGY PREDICTED BY IDOCK:   -3.03 KCAL/MOL
REMARK 923 INTER-LIGAND FREE ENERGY PREDICTED BY IDOCK:   -2.77 KCAL/MOL
REMARK 924 INTRA-LIGAND FREE ENERGY PREDICTED BY IDOCK:   -0.26 KCAL/MOL
REMARK 927      BINDING AFFINITY PREDICTED BY RF-SCORE:    0.00 PKD
ROOT
HETATM    1  C   UNL     1     -10.841   7.417  67.090  1.00  0.00    -0.270 C  
HETATM    2  N   UNL     1      -9.783   8.052  67.849  1.00  0.00    -0.155 NA 
HETATM    3  C   UNL     1      -9.523   7.647  69.213  1.00  0.00    -0.158 C  
ENDROOT
BRANCH   2   4
HETATM    4  C   UNL     1      -9.410   9.336  67.481  1.00  0.00    -0.127 A  
HETATM    5  N   UNL     1      -8.291   9.857  67.976  1.00  0.00    -0.113 NA 
HETATM    6  C   UNL     1      -7.991  11.099  67.623  1.00  0.00    -0.116 A  
HETATM    7  N   UNL     1      -8.765  11.817  66.817  1.00  0.00    -0.188 NA 
HETATM    8  N   UNL     1     -10.204  10.004  66.656  1.00  0.00    -0.226 NA 
HETATM    9  C   UNL     1      -9.864  11.243  66.340  1.00  0.00    -0.211 A  
BRANCH   6  10
HETATM   10  N   UNL     1      -6.796  11.656  68.048  1.00  0.00    -0.069 NA 
HETATM   11  C   UNL     1      -5.636  10.803  68.236  1.00  0.00    -0.043 C  
HETATM   12  C   UNL     1      -6.830  12.896  68.800  1.00  0.00    -0.099 C  
ENDBRANCH   6  10
BRANCH   9  13
HETATM   13  N   UNL     1     -10.701  11.982  65.525  1.00  0.00    -0.267 NA 
HETATM   14  C   UNL     1     -11.945  12.516  66.047  1.00  0.00    -0.392 C  
HETATM   15  C   UNL     1     -10.197  12.547  64.289  1.00  0.00    -0.333 C  
ENDBRANCH   9  13
ENDBRANCH   2   4
TORSDOF 3
ENDMDL
MODEL      179
REMARK 921   NORMALIZED FREE ENERGY PREDICTED BY IDOCK:   -2.35 KCAL/MOL
REMARK 922        TOTAL FREE ENERGY PREDICTED BY IDOCK:   -3.02 KCAL/MOL
REMARK 923 INTER-LIGAND FREE ENERGY PREDICTED BY IDOCK:   -2.74 KCAL/MOL
REMARK 924 INTRA-LIGAND FREE ENERGY PREDICTED BY IDOCK:   -0.27 KCAL/MOL
REMARK 927      BINDING AFFINITY PREDICTED BY RF-SCORE:    0.00 PKD
ROOT
HETATM    1  C   UNL     1     -11.209   8.961  71.919  1.00  0.00    -0.377 C  
HETATM    2  N   UNL     1     -11.445   7.560  71.632  1.00  0.00    -0.254 NA 
HETATM    3  C   UNL     1     -12.773   7.101  71.292  1.00  0.00    -0.366 C  
ENDROOT
BRANCH   2   4
HETATM    4  C   UNL     1     -10.571   6.635  72.186  1.00  0.00    -0.212 A  
HETATM    5  N   UNL     1     -10.909   5.349  72.205  1.00  0.00    -0.230 NA 
HETATM    6  C   UNL     1     -10.059   4.506  72.773  1.00  0.00    -0.166 A  
HETATM    7  N   UNL     1      -8.914   4.906  73.315  1.00  0.00    -0.110 NA 
HETATM    8  N   UNL     1      -9.430   7.081  72.694  1.00  0.00    -0.141 NA 
HETATM    9  C   UNL     1      -8.619   6.200  73.256  1.00  0.00    -0.123 A  
BRANCH   6  10
HETATM   10  N   UNL     1     -10.329   3.148  72.746  1.00  0.00    -0.164 NA 
HETATM   11  C   UNL     1     -11.321   2.597  73.652  1.00  0.00    -0.187 C  
HETATM   12  C   UNL     1      -9.309   2.240  72.257  1.00  0.00    -0.092 C  
ENDBRANCH   6  10
BRANCH   9  13
HETATM   13  N   UNL     1      -7.449   6.643  73.842  1.00  0.00    -0.083 NA 
HETATM   14  C   UNL     1      -6.241   5.844  73.758  1.00  0.00    -0.064 C  
HETATM   15  C   UNL     1      -7.305   8.039  74.209  1.00  0.00    -0.173 C  
ENDBRANCH   9  13
ENDBRANCH   2   4
TORSDOF 3
ENDMDL
MODEL      180
REMARK 921   NORMALIZED FREE ENERGY PREDICTED BY IDOCK:   -2.34 KCAL/MOL
REMARK 922        TOTAL FREE ENERGY PREDICTED BY IDOCK:   -3.01 KCAL/MOL
REMARK 923 INTER-LIGAND FREE ENERGY PREDICTED BY IDOCK:   -2.77 KCAL/MOL
REMARK 924 INTRA-LIGAND FREE ENERGY PREDICTED BY IDOCK:   -0.25 KCAL/MOL
REMARK 927      BINDING AFFINITY PREDICTED BY RF-SCORE:    0.00 PKD
ROOT
HETATM    1  C   UNL     1      -9.190   7.561  69.297  1.00  0.00    -0.144 C  
HETATM    2  N   UNL     1      -8.701   8.733  69.996  1.00  0.00    -0.137 NA 
HETATM    3  C   UNL     1      -8.661   8.754  71.441  1.00  0.00    -0.214 C  
ENDROOT
BRANCH   2   4
HETATM    4  C   UNL     1      -8.785   9.953  69.340  1.00  0.00    -0.179 A  
HETATM    5  N   UNL     1      -7.667  10.583  68.990  1.00  0.00    -0.115 NA 
HETATM    6  C   UNL     1      -7.794  11.761  68.396  1.00  0.00    -0.141 A  
HETATM    7  N   UNL     1      -8.979  12.314  68.158  1.00  0.00    -0.189 NA 
HETATM    8  N   UNL     1      -9.990  10.454  69.105  1.00  0.00    -0.213 NA 
HETATM    9  C   UNL     1     -10.063  11.636  68.516  1.00  0.00    -0.206 A  
BRANCH   6  10
HETATM   10  N   UNL     1      -6.663  12.417  67.941  1.00  0.00    -0.087 NA 
HETATM   11  C   UNL     1      -6.647  13.868  67.895  1.00  0.00    -0.161 C  
HETATM   12  C   UNL     1      -5.764  11.720  67.040  1.00  0.00    -0.134 C  
ENDBRANCH   6  10
BRANCH   9  13
HETATM   13  N   UNL     1     -11.304  12.206  68.308  1.00  0.00    -0.265 NA 
HETATM   14  C   UNL     1     -11.871  13.104  69.296  1.00  0.00    -0.323 C  
HETATM   15  C   UNL     1     -11.878  12.227  66.977  1.00  0.00    -0.259 C  
ENDBRANCH   9  13
ENDBRANCH   2   4
TORSDOF 3
ENDMDL
MODEL      181
REMARK 921   NORMALIZED FREE ENERGY PREDICTED BY IDOCK:   -2.32 KCAL/MOL
REMARK 922        TOTAL FREE ENERGY PREDICTED BY IDOCK:   -2.99 KCAL/MOL
REMARK 923 INTER-LIGAND FREE ENERGY PREDICTED BY IDOCK:   -2.71 KCAL/MOL
REMARK 924 INTRA-LIGAND FREE ENERGY PREDICTED BY IDOCK:   -0.28 KCAL/MOL
REMARK 927      BINDING AFFINITY PREDICTED BY RF-SCORE:    0.00 PKD
ROOT
HETATM    1  C   UNL     1     -11.540   7.010  70.419  1.00  0.00    -0.295 C  
HETATM    2  N   UNL     1     -10.713   6.440  69.374  1.00  0.00    -0.257 NA 
HETATM    3  C   UNL     1     -10.046   5.173  69.584  1.00  0.00    -0.261 C  
ENDROOT
BRANCH   2   4
HETATM    4  C   UNL     1     -10.155   7.310  68.449  1.00  0.00    -0.171 A  
HETATM    5  N   UNL     1     -10.507   8.592  68.467  1.00  0.00    -0.199 NA 
HETATM    6  C   UNL     1      -9.975   9.381  67.544  1.00  0.00    -0.199 A  
HETATM    7  N   UNL     1      -9.128   8.931  66.624  1.00  0.00    -0.147 NA 
HETATM    8  N   UNL     1      -9.298   6.817  67.565  1.00  0.00    -0.124 NA 
HETATM    9  C   UNL     1      -8.800   7.644  66.661  1.00  0.00    -0.142 A  
BRANCH   6  10
HETATM   10  N   UNL     1     -10.248  10.738  67.571  1.00  0.00    -0.188 NA 
HETATM   11  C   UNL     1     -10.661  11.361  68.817  1.00  0.00    -0.204 C  
HETATM   12  C   UNL     1     -10.649  11.397  66.343  1.00  0.00    -0.263 C  
ENDBRANCH   6  10
BRANCH   9  13
HETATM   13  N   UNL     1      -7.948   7.147  65.694  1.00  0.00    -0.119 NA 
HETATM   14  C   UNL     1      -7.138   5.974  65.967  1.00  0.00    -0.074 C  
HETATM   15  C   UNL     1      -8.117   7.536  64.308  1.00  0.00    -0.064 C  
ENDBRANCH   9  13
ENDBRANCH   2   4
TORSDOF 3
ENDMDL
MODEL      182
REMARK 921   NORMALIZED FREE ENERGY PREDICTED BY IDOCK:   -2.29 KCAL/MOL
REMARK 922        TOTAL FREE ENERGY PREDICTED BY IDOCK:   -2.95 KCAL/MOL
REMARK 923 INTER-LIGAND FREE ENERGY PREDICTED BY IDOCK:   -2.67 KCAL/MOL
REMARK 924 INTRA-LIGAND FREE ENERGY PREDICTED BY IDOCK:   -0.28 KCAL/MOL
REMARK 927      BINDING AFFINITY PREDICTED BY RF-SCORE:    0.00 PKD
ROOT
HETATM    1  C   UNL     1     -10.521   8.832  67.701  1.00  0.00    -0.244 C  
HETATM    2  N   UNL     1     -10.213   7.545  68.292  1.00  0.00    -0.181 NA 
HETATM    3  C   UNL     1     -10.943   6.364  67.887  1.00  0.00    -0.325 C  
ENDROOT
BRANCH   2   4
HETATM    4  C   UNL     1      -9.638   7.539  69.555  1.00  0.00    -0.156 A  
HETATM    5  N   UNL     1      -8.624   8.359  69.813  1.00  0.00    -0.130 NA 
HETATM    6  C   UNL     1      -8.084   8.295  71.022  1.00  0.00    -0.110 A  
HETATM    7  N   UNL     1      -8.517   7.450  71.952  1.00  0.00    -0.106 NA 
HETATM    8  N   UNL     1     -10.120   6.693  70.456  1.00  0.00    -0.187 NA 
HETATM    9  C   UNL     1      -9.543   6.663  71.646  1.00  0.00    -0.162 A  
BRANCH   6  10
HETATM   10  N   UNL     1      -7.079   9.184  71.365  1.00  0.00    -0.272 NA 
HETATM   11  C   UNL     1      -6.636  10.171  70.396  1.00  0.00    -0.132 C  
HETATM   12  C   UNL     1      -6.136   8.810  72.401  1.00  0.00    -0.066 C  
ENDBRANCH   6  10
BRANCH   9  13
HETATM   13  N   UNL     1      -9.988   5.754  72.585  1.00  0.00    -0.175 NA 
HETATM   14  C   UNL     1      -9.090   5.271  73.617  1.00  0.00    -0.123 C  
HETATM   15  C   UNL     1     -11.410   5.561  72.791  1.00  0.00    -0.303 C  
ENDBRANCH   9  13
ENDBRANCH   2   4
TORSDOF 3
ENDMDL
MODEL      183
REMARK 921   NORMALIZED FREE ENERGY PREDICTED BY IDOCK:   -2.28 KCAL/MOL
REMARK 922        TOTAL FREE ENERGY PREDICTED BY IDOCK:   -2.94 KCAL/MOL
REMARK 923 INTER-LIGAND FREE ENERGY PREDICTED BY IDOCK:   -2.66 KCAL/MOL
REMARK 924 INTRA-LIGAND FREE ENERGY PREDICTED BY IDOCK:   -0.28 KCAL/MOL
REMARK 927      BINDING AFFINITY PREDICTED BY RF-SCORE:    0.00 PKD
ROOT
HETATM    1  C   UNL     1     -10.001  10.540  64.074  1.00  0.00    -0.297 C  
HETATM    2  N   UNL     1     -10.344  10.743  65.468  1.00  0.00    -0.260 NA 
HETATM    3  C   UNL     1     -10.787  12.041  65.926  1.00  0.00    -0.288 C  
ENDROOT
BRANCH   2   4
HETATM    4  C   UNL     1      -9.760   9.899  66.402  1.00  0.00    -0.212 A  
HETATM    5  N   UNL     1     -10.289   9.809  67.618  1.00  0.00    -0.214 NA 
HETATM    6  C   UNL     1      -9.679   9.017  68.488  1.00  0.00    -0.159 A  
HETATM    7  N   UNL     1      -8.578   8.337  68.183  1.00  0.00    -0.132 NA 
HETATM    8  N   UNL     1      -8.676   9.225  66.042  1.00  0.00    -0.146 NA 
HETATM    9  C   UNL     1      -8.100   8.453  66.949  1.00  0.00    -0.099 A  
BRANCH   6  10
HETATM   10  N   UNL     1     -10.236   8.828  69.741  1.00  0.00    -0.196 NA 
HETATM   11  C   UNL     1     -10.994   9.903  70.358  1.00  0.00    -0.318 C  
HETATM   12  C   UNL     1      -9.644   7.847  70.631  1.00  0.00    -0.166 C  
ENDBRANCH   6  10
BRANCH   9  13
HETATM   13  N   UNL     1      -6.940   7.781  66.619  1.00  0.00    -0.070 NA 
HETATM   14  C   UNL     1      -6.616   6.522  67.263  1.00  0.00    -0.054 C  
HETATM   15  C   UNL     1      -6.235   8.108  65.395  1.00  0.00    -0.045 C  
ENDBRANCH   9  13
ENDBRANCH   2   4
TORSDOF 3
ENDMDL
MODEL      184
REMARK 921   NORMALIZED FREE ENERGY PREDICTED BY IDOCK:   -2.27 KCAL/MOL
REMARK 922        TOTAL FREE ENERGY PREDICTED BY IDOCK:   -2.93 KCAL/MOL
REMARK 923 INTER-LIGAND FREE ENERGY PREDICTED BY IDOCK:   -2.67 KCAL/MOL
REMARK 924 INTRA-LIGAND FREE ENERGY PREDICTED BY IDOCK:   -0.26 KCAL/MOL
REMARK 927      BINDING AFFINITY PREDICTED BY RF-SCORE:    0.00 PKD
ROOT
HETATM    1  C   UNL     1     -10.465   9.014  68.092  1.00  0.00    -0.207 C  
HETATM    2  N   UNL     1     -10.188   7.594  67.999  1.00  0.00    -0.194 NA 
HETATM    3  C   UNL     1     -10.831   6.793  66.979  1.00  0.00    -0.383 C  
ENDROOT
BRANCH   2   4
HETATM    4  C   UNL     1      -9.765   6.945  69.149  1.00  0.00    -0.155 A  
HETATM    5  N   UNL     1      -8.665   6.198  69.109  1.00  0.00    -0.121 NA 
HETATM    6  C   UNL     1      -8.317   5.570  70.222  1.00  0.00    -0.110 A  
HETATM    7  N   UNL     1      -9.025   5.660  71.343  1.00  0.00    -0.139 NA 
HETATM    8  N   UNL     1     -10.493   7.085  70.248  1.00  0.00    -0.204 NA 
HETATM    9  C   UNL     1     -10.107   6.431  71.332  1.00  0.00    -0.189 A  
BRANCH   6  10
HETATM   10  N   UNL     1      -7.137   4.846  70.252  1.00  0.00    -0.048 NA 
HETATM   11  C   UNL     1      -6.727   4.096  69.078  1.00  0.00    -0.046 C  
HETATM   12  C   UNL     1      -6.623   4.396  71.532  1.00  0.00    -0.026 C  
ENDBRANCH   6  10
BRANCH   9  13
HETATM   13  N   UNL     1     -10.876   6.514  72.476  1.00  0.00    -0.229 NA 
HETATM   14  C   UNL     1     -11.385   7.797  72.924  1.00  0.00    -0.349 C  
HETATM   15  C   UNL     1     -11.494   5.322  73.023  1.00  0.00    -0.269 C  
ENDBRANCH   9  13
ENDBRANCH   2   4
TORSDOF 3
ENDMDL
MODEL      185
REMARK 921   NORMALIZED FREE ENERGY PREDICTED BY IDOCK:   -2.19 KCAL/MOL
REMARK 922        TOTAL FREE ENERGY PREDICTED BY IDOCK:   -2.84 KCAL/MOL
REMARK 923 INTER-LIGAND FREE ENERGY PREDICTED BY IDOCK:   -2.59 KCAL/MOL
REMARK 924 INTRA-LIGAND FREE ENERGY PREDICTED BY IDOCK:   -0.24 KCAL/MOL
REMARK 927      BINDING AFFINITY PREDICTED BY RF-SCORE:    0.00 PKD
ROOT
HETATM    1  C   UNL     1     -10.051   7.296  68.405  1.00  0.00    -0.171 C  
HETATM    2  N   UNL     1      -9.415   8.562  68.710  1.00  0.00    -0.143 NA 
HETATM    3  C   UNL     1      -9.484   9.106  70.049  1.00  0.00    -0.198 C  
ENDROOT
BRANCH   2   4
HETATM    4  C   UNL     1      -9.229   9.455  67.665  1.00  0.00    -0.127 A  
HETATM    5  N   UNL     1      -9.818  10.647  67.713  1.00  0.00    -0.164 NA 
HETATM    6  C   UNL     1      -9.639  11.455  66.678  1.00  0.00    -0.191 A  
HETATM    7  N   UNL     1      -8.912  11.108  65.621  1.00  0.00    -0.200 NA 
HETATM    8  N   UNL     1      -8.477   9.071  66.643  1.00  0.00    -0.121 NA 
HETATM    9  C   UNL     1      -8.335   9.912  65.631  1.00  0.00    -0.137 A  
BRANCH   6  10
HETATM   10  N   UNL     1     -10.165  12.735  66.718  1.00  0.00    -0.236 NA 
HETATM   11  C   UNL     1     -11.150  13.135  65.729  1.00  0.00    -0.273 C  
HETATM   12  C   UNL     1      -9.390  13.792  67.339  1.00  0.00    -0.226 C  
ENDBRANCH   6  10
BRANCH   9  13
HETATM   13  N   UNL     1      -7.602   9.518  64.529  1.00  0.00    -0.109 NA 
HETATM   14  C   UNL     1      -8.241   8.791  63.448  1.00  0.00    -0.170 C  
HETATM   15  C   UNL     1      -6.316  10.130  64.255  1.00  0.00    -0.126 C  
ENDBRANCH   9  13
ENDBRANCH   2   4
TORSDOF 3
ENDMDL
MODEL      186
REMARK 921   NORMALIZED FREE ENERGY PREDICTED BY IDOCK:   -2.17 KCAL/MOL
REMARK 922        TOTAL FREE ENERGY PREDICTED BY IDOCK:   -2.82 KCAL/MOL
REMARK 923 INTER-LIGAND FREE ENERGY PREDICTED BY IDOCK:   -2.58 KCAL/MOL
REMARK 924 INTRA-LIGAND FREE ENERGY PREDICTED BY IDOCK:   -0.24 KCAL/MOL
REMARK 927      BINDING AFFINITY PREDICTED BY RF-SCORE:    0.00 PKD
ROOT
HETATM    1  C   UNL     1      -9.112   7.467  69.318  1.00  0.00    -0.135 C  
HETATM    2  N   UNL     1      -8.545   8.607  70.009  1.00  0.00    -0.127 NA 
HETATM    3  C   UNL     1      -8.363   8.571  71.444  1.00  0.00    -0.161 C  
ENDROOT
BRANCH   2   4
HETATM    4  C   UNL     1      -8.679   9.852  69.413  1.00  0.00    -0.179 A  
HETATM    5  N   UNL     1      -9.873  10.238  68.974  1.00  0.00    -0.196 NA 
HETATM    6  C   UNL     1      -9.948  11.422  68.381  1.00  0.00    -0.204 A  
HETATM    7  N   UNL     1      -8.887  12.204  68.214  1.00  0.00    -0.188 NA 
HETATM    8  N   UNL     1      -7.595  10.605  69.289  1.00  0.00    -0.130 NA 
HETATM    9  C   UNL     1      -7.721  11.775  68.684  1.00  0.00    -0.126 A  
BRANCH   6  10
HETATM   10  N   UNL     1     -11.183  11.902  67.979  1.00  0.00    -0.237 NA 
HETATM   11  C   UNL     1     -11.483  12.010  66.563  1.00  0.00    -0.349 C  
HETATM   12  C   UNL     1     -11.923  12.770  68.876  1.00  0.00    -0.244 C  
ENDBRANCH   6  10
BRANCH   9  13
HETATM   13  N   UNL     1      -6.598  12.556  68.493  1.00  0.00    -0.071 NA 
HETATM   14  C   UNL     1      -6.212  13.537  69.489  1.00  0.00    -0.115 C  
HETATM   15  C   UNL     1      -5.601  12.166  67.515  1.00  0.00    -0.114 C  
ENDBRANCH   9  13
ENDBRANCH   2   4
TORSDOF 3
ENDMDL
MODEL      187
REMARK 921   NORMALIZED FREE ENERGY PREDICTED BY IDOCK:   -2.07 KCAL/MOL
REMARK 922        TOTAL FREE ENERGY PREDICTED BY IDOCK:   -2.70 KCAL/MOL
REMARK 923 INTER-LIGAND FREE ENERGY PREDICTED BY IDOCK:   -2.44 KCAL/MOL
REMARK 924 INTRA-LIGAND FREE ENERGY PREDICTED BY IDOCK:   -0.25 KCAL/MOL
REMARK 927      BINDING AFFINITY PREDICTED BY RF-SCORE:    0.00 PKD
ROOT
HETATM    1  C   UNL     1     -11.783   7.354  70.850  1.00  0.00    -0.296 C  
HETATM    2  N   UNL     1     -10.849   6.825  69.876  1.00  0.00    -0.248 NA 
HETATM    3  C   UNL     1     -10.522   5.417  69.873  1.00  0.00    -0.308 C  
ENDROOT
BRANCH   2   4
HETATM    4  C   UNL     1      -9.915   7.700  69.341  1.00  0.00    -0.180 A  
HETATM    5  N   UNL     1      -8.956   8.187  70.123  1.00  0.00    -0.145 NA 
HETATM    6  C   UNL     1      -8.106   9.045  69.578  1.00  0.00    -0.105 A  
HETATM    7  N   UNL     1      -8.192   9.425  68.307  1.00  0.00    -0.117 NA 
HETATM    8  N   UNL     1     -10.031   8.031  68.062  1.00  0.00    -0.172 NA 
HETATM    9  C   UNL     1      -9.162   8.897  67.568  1.00  0.00    -0.136 A  
BRANCH   6  10
HETATM   10  N   UNL     1      -7.042   9.517  70.329  1.00  0.00    -0.094 NA 
HETATM   11  C   UNL     1      -6.842   9.020  71.678  1.00  0.00    -0.007 C  
HETATM   12  C   UNL     1      -6.494  10.825  70.022  1.00  0.00    -0.151 C  
ENDBRANCH   6  10
BRANCH   9  13
HETATM   13  N   UNL     1      -9.291   9.301  66.253  1.00  0.00    -0.182 NA 
HETATM   14  C   UNL     1     -10.343  10.225  65.873  1.00  0.00    -0.171 C  
HETATM   15  C   UNL     1      -8.190   9.124  65.328  1.00  0.00    -0.134 C  
ENDBRANCH   9  13
ENDBRANCH   2   4
TORSDOF 3
ENDMDL
MODEL      188
REMARK 921   NORMALIZED FREE ENERGY PREDICTED BY IDOCK:   -2.05 KCAL/MOL
REMARK 922        TOTAL FREE ENERGY PREDICTED BY IDOCK:   -2.67 KCAL/MOL
REMARK 923 INTER-LIGAND FREE ENERGY PREDICTED BY IDOCK:   -2.40 KCAL/MOL
REMARK 924 INTRA-LIGAND FREE ENERGY PREDICTED BY IDOCK:   -0.27 KCAL/MOL
REMARK 927      BINDING AFFINITY PREDICTED BY RF-SCORE:    0.00 PKD
ROOT
HETATM    1  C   UNL     1      -7.847   2.727  69.573  1.00  0.00    -0.042 C  
HETATM    2  N   UNL     1      -7.519   4.121  69.792  1.00  0.00    -0.049 NA 
HETATM    3  C   UNL     1      -6.405   4.482  70.642  1.00  0.00    -0.026 C  
ENDROOT
BRANCH   2   4
HETATM    4  C   UNL     1      -8.537   5.052  69.644  1.00  0.00    -0.088 A  
HETATM    5  N   UNL     1      -9.552   5.050  70.503  1.00  0.00    -0.171 NA 
HETATM    6  C   UNL     1     -10.518   5.934  70.303  1.00  0.00    -0.261 A  
HETATM    7  N   UNL     1     -10.501   6.792  69.288  1.00  0.00    -0.203 NA 
HETATM    8  N   UNL     1      -8.463   5.901  68.627  1.00  0.00    -0.111 NA 
HETATM    9  C   UNL     1      -9.457   6.759  68.467  1.00  0.00    -0.131 A  
BRANCH   6  10
HETATM   10  N   UNL     1     -11.555   6.025  71.217  1.00  0.00    -0.202 NA 
HETATM   11  C   UNL     1     -12.628   6.976  70.990  1.00  0.00    -0.288 C  
HETATM   12  C   UNL     1     -11.317   5.617  72.588  1.00  0.00    -0.305 C  
ENDBRANCH   6  10
BRANCH   9  13
HETATM   13  N   UNL     1      -9.433   7.619  67.386  1.00  0.00    -0.139 NA 
HETATM   14  C   UNL     1      -8.326   7.585  66.449  1.00  0.00    -0.126 C  
HETATM   15  C   UNL     1     -10.649   8.284  66.961  1.00  0.00    -0.258 C  
ENDBRANCH   9  13
ENDBRANCH   2   4
TORSDOF 3
ENDMDL
MODEL      189
REMARK 921   NORMALIZED FREE ENERGY PREDICTED BY IDOCK:   -2.04 KCAL/MOL
REMARK 922        TOTAL FREE ENERGY PREDICTED BY IDOCK:   -2.66 KCAL/MOL
REMARK 923 INTER-LIGAND FREE ENERGY PREDICTED BY IDOCK:   -2.42 KCAL/MOL
REMARK 924 INTRA-LIGAND FREE ENERGY PREDICTED BY IDOCK:   -0.24 KCAL/MOL
REMARK 927      BINDING AFFINITY PREDICTED BY RF-SCORE:    0.00 PKD
ROOT
HETATM    1  C   UNL     1      -9.511   3.653  67.790  1.00  0.00    -0.179 C  
HETATM    2  N   UNL     1     -10.100   4.951  67.532  1.00  0.00    -0.157 NA 
HETATM    3  C   UNL     1     -10.609   5.271  66.216  1.00  0.00    -0.248 C  
ENDROOT
BRANCH   2   4
HETATM    4  C   UNL     1      -9.704   6.008  68.338  1.00  0.00    -0.125 A  
HETATM    5  N   UNL     1     -10.472   6.371  69.361  1.00  0.00    -0.207 NA 
HETATM    6  C   UNL     1     -10.071   7.407  70.084  1.00  0.00    -0.197 A  
HETATM    7  N   UNL     1      -8.956   8.077  69.812  1.00  0.00    -0.144 NA 
HETATM    8  N   UNL     1      -8.572   6.631  68.039  1.00  0.00    -0.119 NA 
HETATM    9  C   UNL     1      -8.219   7.663  68.787  1.00  0.00    -0.128 A  
BRANCH   6  10
HETATM   10  N   UNL     1     -10.795   7.772  71.207  1.00  0.00    -0.229 NA 
HETATM   11  C   UNL     1     -11.895   8.711  71.076  1.00  0.00    -0.265 C  
HETATM   12  C   UNL     1     -10.163   7.677  72.509  1.00  0.00    -0.243 C  
ENDBRANCH   6  10
BRANCH   9  13
HETATM   13  N   UNL     1      -7.073   8.364  68.466  1.00  0.00    -0.075 NA 
HETATM   14  C   UNL     1      -7.127   9.800  68.264  1.00  0.00    -0.077 C  
HETATM   15  C   UNL     1      -5.771   7.768  68.693  1.00  0.00    -0.028 C  
ENDBRANCH   9  13
ENDBRANCH   2   4
TORSDOF 3
ENDMDL
MODEL      190
REMARK 921   NORMALIZED FREE ENERGY PREDICTED BY IDOCK:   -2.03 KCAL/MOL
REMARK 922        TOTAL FREE ENERGY PREDICTED BY IDOCK:   -2.65 KCAL/MOL
REMARK 923 INTER-LIGAND FREE ENERGY PREDICTED BY IDOCK:   -2.37 KCAL/MOL
REMARK 924 INTRA-LIGAND FREE ENERGY PREDICTED BY IDOCK:   -0.28 KCAL/MOL
REMARK 927      BINDING AFFINITY PREDICTED BY RF-SCORE:    0.00 PKD
ROOT
HETATM    1  C   UNL     1      -6.109   7.623  64.708  1.00  0.00    -0.038 C  
HETATM    2  N   UNL     1      -7.095   8.677  64.843  1.00  0.00    -0.079 NA 
HETATM    3  C   UNL     1      -6.720  10.056  64.620  1.00  0.00    -0.128 C  
ENDROOT
BRANCH   2   4
HETATM    4  C   UNL     1      -8.185   8.436  65.665  1.00  0.00    -0.132 A  
HETATM    5  N   UNL     1      -8.569   7.182  65.888  1.00  0.00    -0.150 NA 
HETATM    6  C   UNL     1      -9.636   7.001  66.653  1.00  0.00    -0.167 A  
HETATM    7  N   UNL     1     -10.316   8.013  67.180  1.00  0.00    -0.298 NA 
HETATM    8  N   UNL     1      -8.817   9.479  66.185  1.00  0.00    -0.146 NA 
HETATM    9  C   UNL     1      -9.881   9.245  66.937  1.00  0.00    -0.214 A  
BRANCH   6  10
HETATM   10  N   UNL     1     -10.025   5.712  66.980  1.00  0.00    -0.152 NA 
HETATM   11  C   UNL     1     -10.878   5.493  68.134  1.00  0.00     0.023 C  
HETATM   12  C   UNL     1      -9.196   4.601  66.554  1.00  0.00    -0.132 C  
ENDBRANCH   6  10
BRANCH   9  13
HETATM   13  N   UNL     1     -10.591  10.314  67.447  1.00  0.00    -0.251 NA 
HETATM   14  C   UNL     1     -10.750  10.468  68.881  1.00  0.00    -0.220 C  
HETATM   15  C   UNL     1     -10.856  11.472  66.616  1.00  0.00    -0.287 C  
ENDBRANCH   9  13
ENDBRANCH   2   4
TORSDOF 3
ENDMDL
MODEL      191
REMARK 921   NORMALIZED FREE ENERGY PREDICTED BY IDOCK:   -2.01 KCAL/MOL
REMARK 922        TOTAL FREE ENERGY PREDICTED BY IDOCK:   -2.62 KCAL/MOL
REMARK 923 INTER-LIGAND FREE ENERGY PREDICTED BY IDOCK:   -2.38 KCAL/MOL
REMARK 924 INTRA-LIGAND FREE ENERGY PREDICTED BY IDOCK:   -0.25 KCAL/MOL
REMARK 927      BINDING AFFINITY PREDICTED BY RF-SCORE:    0.00 PKD
ROOT
HETATM    1  C   UNL     1     -11.026  11.707  65.185  1.00  0.00    -0.266 C  
HETATM    2  N   UNL     1     -10.513  11.553  66.531  1.00  0.00    -0.235 NA 
HETATM    3  C   UNL     1     -11.374  11.789  67.669  1.00  0.00    -0.302 C  
ENDROOT
BRANCH   2   4
HETATM    4  C   UNL     1      -9.147  11.709  66.720  1.00  0.00    -0.186 A  
HETATM    5  N   UNL     1      -8.693  12.805  67.319  1.00  0.00    -0.192 NA 
HETATM    6  C   UNL     1      -7.380  12.927  67.448  1.00  0.00    -0.128 A  
HETATM    7  N   UNL     1      -6.531  12.009  66.998  1.00  0.00    -0.143 NA 
HETATM    8  N   UNL     1      -8.343  10.754  66.272  1.00  0.00    -0.155 NA 
HETATM    9  C   UNL     1      -7.040  10.926  66.419  1.00  0.00    -0.133 A  
BRANCH   6  10
HETATM   10  N   UNL     1      -6.863  14.012  68.137  1.00  0.00    -0.106 NA 
HETATM   11  C   UNL     1      -6.540  13.877  69.546  1.00  0.00    -0.097 C  
HETATM   12  C   UNL     1      -7.146  15.349  67.651  1.00  0.00    -0.180 C  
ENDBRANCH   6  10
BRANCH   9  13
HETATM   13  N   UNL     1      -6.176   9.974  65.914  1.00  0.00    -0.079 NA 
HETATM   14  C   UNL     1      -6.303   8.585  66.314  1.00  0.00    -0.057 C  
HETATM   15  C   UNL     1      -5.397  10.259  64.725  1.00  0.00    -0.120 C  
ENDBRANCH   9  13
ENDBRANCH   2   4
TORSDOF 3
ENDMDL
MODEL      192
REMARK 921   NORMALIZED FREE ENERGY PREDICTED BY IDOCK:   -2.00 KCAL/MOL
REMARK 922        TOTAL FREE ENERGY PREDICTED BY IDOCK:   -2.61 KCAL/MOL
REMARK 923 INTER-LIGAND FREE ENERGY PREDICTED BY IDOCK:   -2.35 KCAL/MOL
REMARK 924 INTRA-LIGAND FREE ENERGY PREDICTED BY IDOCK:   -0.27 KCAL/MOL
REMARK 927      BINDING AFFINITY PREDICTED BY RF-SCORE:    0.00 PKD
ROOT
HETATM    1  C   UNL     1      -8.082   9.891  66.181  1.00  0.00    -0.119 C  
HETATM    2  N   UNL     1      -7.450   8.912  67.043  1.00  0.00    -0.086 NA 
HETATM    3  C   UNL     1      -6.439   8.022  66.514  1.00  0.00    -0.051 C  
ENDROOT
BRANCH   2   4
HETATM    4  C   UNL     1      -8.157   8.486  68.158  1.00  0.00    -0.119 A  
HETATM    5  N   UNL     1      -7.968   7.252  68.617  1.00  0.00    -0.122 NA 
HETATM    6  C   UNL     1      -8.689   6.877  69.664  1.00  0.00    -0.141 A  
HETATM    7  N   UNL     1      -9.577   7.679  70.242  1.00  0.00    -0.172 NA 
HETATM    8  N   UNL     1      -9.015   9.331  68.713  1.00  0.00    -0.132 NA 
HETATM    9  C   UNL     1      -9.716   8.906  69.751  1.00  0.00    -0.175 A  
BRANCH   6  10
HETATM   10  N   UNL     1      -8.470   5.632  70.228  1.00  0.00    -0.121 NA 
HETATM   11  C   UNL     1      -9.485   4.601  70.105  1.00  0.00    -0.176 C  
HETATM   12  C   UNL     1      -7.553   5.521  71.347  1.00  0.00    -0.103 C  
ENDBRANCH   6  10
BRANCH   9  13
HETATM   13  N   UNL     1     -10.656   9.746  70.316  1.00  0.00    -0.272 NA 
HETATM   14  C   UNL     1     -11.463  10.610  69.475  1.00  0.00    -0.291 C  
HETATM   15  C   UNL     1     -11.112   9.517  71.673  1.00  0.00    -0.266 C  
ENDBRANCH   9  13
ENDBRANCH   2   4
TORSDOF 3
ENDMDL
MODEL      193
REMARK 921   NORMALIZED FREE ENERGY PREDICTED BY IDOCK:   -1.96 KCAL/MOL
REMARK 922        TOTAL FREE ENERGY PREDICTED BY IDOCK:   -2.57 KCAL/MOL
REMARK 923 INTER-LIGAND FREE ENERGY PREDICTED BY IDOCK:   -2.28 KCAL/MOL
REMARK 924 INTRA-LIGAND FREE ENERGY PREDICTED BY IDOCK:   -0.28 KCAL/MOL
REMARK 927      BINDING AFFINITY PREDICTED BY RF-SCORE:    0.00 PKD
ROOT
HETATM    1  C   UNL     1      -9.377   7.665  73.742  1.00  0.00    -0.267 C  
HETATM    2  N   UNL     1     -10.006   8.082  72.505  1.00  0.00    -0.243 NA 
HETATM    3  C   UNL     1     -11.408   8.435  72.484  1.00  0.00    -0.346 C  
ENDROOT
BRANCH   2   4
HETATM    4  C   UNL     1      -9.440   7.642  71.317  1.00  0.00    -0.153 A  
HETATM    5  N   UNL     1      -9.573   8.380  70.219  1.00  0.00    -0.164 NA 
HETATM    6  C   UNL     1      -9.045   7.905  69.100  1.00  0.00    -0.145 A  
HETATM    7  N   UNL     1      -8.412   6.738  69.051  1.00  0.00    -0.127 NA 
HETATM    8  N   UNL     1      -8.800   6.481  71.324  1.00  0.00    -0.137 NA 
HETATM    9  C   UNL     1      -8.297   6.047  70.180  1.00  0.00    -0.120 A  
BRANCH   6  10
HETATM   10  N   UNL     1      -9.086   8.675  67.950  1.00  0.00    -0.139 NA 
HETATM   11  C   UNL     1      -9.853   9.908  67.941  1.00  0.00    -0.143 C  
HETATM   12  C   UNL     1      -8.858   8.033  66.669  1.00  0.00    -0.145 C  
ENDBRANCH   6  10
BRANCH   9  13
HETATM   13  N   UNL     1      -7.672   4.815  70.145  1.00  0.00    -0.057 NA 
HETATM   14  C   UNL     1      -7.144   4.298  68.896  1.00  0.00    -0.051 C  
HETATM   15  C   UNL     1      -7.203   4.205  71.374  1.00  0.00    -0.043 C  
ENDBRANCH   9  13
ENDBRANCH   2   4
TORSDOF 3
ENDMDL
MODEL      194
REMARK 921   NORMALIZED FREE ENERGY PREDICTED BY IDOCK:   -1.95 KCAL/MOL
REMARK 922        TOTAL FREE ENERGY PREDICTED BY IDOCK:   -2.56 KCAL/MOL
REMARK 923 INTER-LIGAND FREE ENERGY PREDICTED BY IDOCK:   -2.30 KCAL/MOL
REMARK 924 INTRA-LIGAND FREE ENERGY PREDICTED BY IDOCK:   -0.26 KCAL/MOL
REMARK 927      BINDING AFFINITY PREDICTED BY RF-SCORE:    0.00 PKD
ROOT
HETATM    1  C   UNL     1      -9.511   3.653  67.790  1.00  0.00    -0.179 C  
HETATM    2  N   UNL     1     -10.083   4.960  67.538  1.00  0.00    -0.157 NA 
HETATM    3  C   UNL     1     -10.565   5.301  66.218  1.00  0.00    -0.248 C  
ENDROOT
BRANCH   2   4
HETATM    4  C   UNL     1      -9.690   6.003  68.365  1.00  0.00    -0.125 A  
HETATM    5  N   UNL     1      -8.996   5.735  69.467  1.00  0.00    -0.123 NA 
HETATM    6  C   UNL     1      -8.671   6.759  70.243  1.00  0.00    -0.144 A  
HETATM    7  N   UNL     1      -9.019   8.009  69.958  1.00  0.00    -0.143 NA 
HETATM    8  N   UNL     1     -10.042   7.236  68.024  1.00  0.00    -0.165 NA 
HETATM    9  C   UNL     1      -9.700   8.222  68.837  1.00  0.00    -0.164 A  
BRANCH   6  10
HETATM   10  N   UNL     1      -7.880   6.540  71.359  1.00  0.00    -0.099 NA 
HETATM   11  C   UNL     1      -8.506   6.206  72.626  1.00  0.00    -0.121 C  
HETATM   12  C   UNL     1      -6.565   7.149  71.416  1.00  0.00    -0.051 C  
ENDBRANCH   6  10
BRANCH   9  13
HETATM   13  N   UNL     1     -10.100   9.509  68.536  1.00  0.00    -0.171 NA 
HETATM   14  C   UNL     1     -10.835  10.293  69.511  1.00  0.00    -0.256 C  
HETATM   15  C   UNL     1      -9.488  10.220  67.431  1.00  0.00    -0.153 C  
ENDBRANCH   9  13
ENDBRANCH   2   4
TORSDOF 3
ENDMDL
MODEL      195
REMARK 921   NORMALIZED FREE ENERGY PREDICTED BY IDOCK:   -1.89 KCAL/MOL
REMARK 922        TOTAL FREE ENERGY PREDICTED BY IDOCK:   -2.48 KCAL/MOL
REMARK 923 INTER-LIGAND FREE ENERGY PREDICTED BY IDOCK:   -2.22 KCAL/MOL
REMARK 924 INTRA-LIGAND FREE ENERGY PREDICTED BY IDOCK:   -0.27 KCAL/MOL
REMARK 927      BINDING AFFINITY PREDICTED BY RF-SCORE:    0.00 PKD
ROOT
HETATM    1  C   UNL     1     -11.039   8.066  70.616  1.00  0.00    -0.262 C  
HETATM    2  N   UNL     1     -10.462   6.789  70.246  1.00  0.00    -0.202 NA 
HETATM    3  C   UNL     1     -11.058   5.999  69.191  1.00  0.00    -0.335 C  
ENDROOT
BRANCH   2   4
HETATM    4  C   UNL     1      -9.721   6.116  71.207  1.00  0.00    -0.175 A  
HETATM    5  N   UNL     1      -8.731   6.751  71.829  1.00  0.00    -0.128 NA 
HETATM    6  C   UNL     1      -8.029   6.060  72.715  1.00  0.00    -0.107 A  
HETATM    7  N   UNL     1      -8.279   4.782  72.983  1.00  0.00    -0.100 NA 
HETATM    8  N   UNL     1     -10.023   4.849  71.454  1.00  0.00    -0.189 NA 
HETATM    9  C   UNL     1      -9.288   4.201  72.343  1.00  0.00    -0.122 A  
BRANCH   6  10
HETATM   10  N   UNL     1      -7.042   6.699  73.446  1.00  0.00    -0.077 NA 
HETATM   11  C   UNL     1      -7.154   8.122  73.709  1.00  0.00    -0.137 C  
HETATM   12  C   UNL     1      -5.708   6.128  73.471  1.00  0.00    -0.045 C  
ENDBRANCH   6  10
BRANCH   9  13
HETATM   13  N   UNL     1      -9.545   2.865  72.581  1.00  0.00    -0.105 NA 
HETATM   14  C   UNL     1      -9.850   2.407  73.923  1.00  0.00    -0.097 C  
HETATM   15  C   UNL     1      -9.883   1.984  71.480  1.00  0.00    -0.135 C  
ENDBRANCH   9  13
ENDBRANCH   2   4
TORSDOF 3
ENDMDL
MODEL      196
REMARK 921   NORMALIZED FREE ENERGY PREDICTED BY IDOCK:   -1.88 KCAL/MOL
REMARK 922        TOTAL FREE ENERGY PREDICTED BY IDOCK:   -2.48 KCAL/MOL
REMARK 923 INTER-LIGAND FREE ENERGY PREDICTED BY IDOCK:   -2.21 KCAL/MOL
REMARK 924 INTRA-LIGAND FREE ENERGY PREDICTED BY IDOCK:   -0.27 KCAL/MOL
REMARK 927      BINDING AFFINITY PREDICTED BY RF-SCORE:    0.00 PKD
ROOT
HETATM    1  C   UNL     1      -8.101   4.294  67.309  1.00  0.00    -0.100 C  
HETATM    2  N   UNL     1      -8.742   5.317  66.507  1.00  0.00    -0.115 NA 
HETATM    3  C   UNL     1      -8.990   5.089  65.100  1.00  0.00    -0.143 C  
ENDROOT
BRANCH   2   4
HETATM    4  C   UNL     1      -8.626   6.632  66.931  1.00  0.00    -0.115 A  
HETATM    5  N   UNL     1      -7.904   6.907  68.014  1.00  0.00    -0.112 NA 
HETATM    6  C   UNL     1      -7.848   8.173  68.401  1.00  0.00    -0.118 A  
HETATM    7  N   UNL     1      -8.484   9.145  67.756  1.00  0.00    -0.117 NA 
HETATM    8  N   UNL     1      -9.261   7.569  66.240  1.00  0.00    -0.168 NA 
HETATM    9  C   UNL     1      -9.180   8.817  66.672  1.00  0.00    -0.177 A  
BRANCH   6  10
HETATM   10  N   UNL     1      -7.045   8.519  69.475  1.00  0.00    -0.051 NA 
HETATM   11  C   UNL     1      -7.550   9.435  70.481  1.00  0.00    -0.150 C  
HETATM   12  C   UNL     1      -5.604   8.433  69.328  1.00  0.00    -0.031 C  
ENDBRANCH   6  10
BRANCH   9  13
HETATM   13  N   UNL     1      -9.876   9.806  66.004  1.00  0.00    -0.256 NA 
HETATM   14  C   UNL     1     -10.545  10.857  66.746  1.00  0.00    -0.259 C  
HETATM   15  C   UNL     1      -9.642  10.029  64.591  1.00  0.00    -0.297 C  
ENDBRANCH   9  13
ENDBRANCH   2   4
TORSDOF 3
ENDMDL
MODEL      197
REMARK 921   NORMALIZED FREE ENERGY PREDICTED BY IDOCK:   -1.88 KCAL/MOL
REMARK 922        TOTAL FREE ENERGY PREDICTED BY IDOCK:   -2.47 KCAL/MOL
REMARK 923 INTER-LIGAND FREE ENERGY PREDICTED BY IDOCK:   -2.20 KCAL/MOL
REMARK 924 INTRA-LIGAND FREE ENERGY PREDICTED BY IDOCK:   -0.27 KCAL/MOL
REMARK 927      BINDING AFFINITY PREDICTED BY RF-SCORE:    0.00 PKD
ROOT
HETATM    1  C   UNL     1      -7.060   6.633  64.186  1.00  0.00    -0.055 C  
HETATM    2  N   UNL     1      -7.827   7.862  64.212  1.00  0.00    -0.131 NA 
HETATM    3  C   UNL     1      -7.687   8.830  63.146  1.00  0.00    -0.123 C  
ENDROOT
BRANCH   2   4
HETATM    4  C   UNL     1      -8.251   8.329  65.448  1.00  0.00    -0.145 A  
HETATM    5  N   UNL     1      -8.075   7.572  66.526  1.00  0.00    -0.116 NA 
HETATM    6  C   UNL     1      -8.525   8.044  67.680  1.00  0.00    -0.131 A  
HETATM    7  N   UNL     1      -9.138   9.219  67.779  1.00  0.00    -0.127 NA 
HETATM    8  N   UNL     1      -8.837   9.518  65.498  1.00  0.00    -0.156 NA 
HETATM    9  C   UNL     1      -9.275   9.941  66.672  1.00  0.00    -0.153 A  
BRANCH   6  10
HETATM   10  N   UNL     1      -8.293   7.328  68.843  1.00  0.00    -0.125 NA 
HETATM   11  C   UNL     1      -7.049   6.594  68.995  1.00  0.00    -0.089 C  
HETATM   12  C   UNL     1      -9.428   6.869  69.621  1.00  0.00    -0.147 C  
ENDBRANCH   6  10
BRANCH   9  13
HETATM   13  N   UNL     1      -9.938  11.150  66.745  1.00  0.00    -0.203 NA 
HETATM   14  C   UNL     1      -9.544  12.253  65.889  1.00  0.00    -0.198 C  
HETATM   15  C   UNL     1     -11.240  11.227  67.378  1.00  0.00    -0.303 C  
ENDBRANCH   9  13
ENDBRANCH   2   4
TORSDOF 3
ENDMDL
MODEL      198
REMARK 921   NORMALIZED FREE ENERGY PREDICTED BY IDOCK:   -1.87 KCAL/MOL
REMARK 922        TOTAL FREE ENERGY PREDICTED BY IDOCK:   -2.46 KCAL/MOL
REMARK 923 INTER-LIGAND FREE ENERGY PREDICTED BY IDOCK:   -2.17 KCAL/MOL
REMARK 924 INTRA-LIGAND FREE ENERGY PREDICTED BY IDOCK:   -0.28 KCAL/MOL
REMARK 927      BINDING AFFINITY PREDICTED BY RF-SCORE:    0.00 PKD
ROOT
HETATM    1  C   UNL     1     -11.253   8.606  72.189  1.00  0.00    -0.367 C  
HETATM    2  N   UNL     1     -10.959   7.449  71.367  1.00  0.00    -0.234 NA 
HETATM    3  C   UNL     1     -12.034   6.621  70.866  1.00  0.00    -0.355 C  
ENDROOT
BRANCH   2   4
HETATM    4  C   UNL     1      -9.712   6.860  71.510  1.00  0.00    -0.162 A  
HETATM    5  N   UNL     1      -8.853   7.357  72.395  1.00  0.00    -0.122 NA 
HETATM    6  C   UNL     1      -7.661   6.783  72.474  1.00  0.00    -0.096 A  
HETATM    7  N   UNL     1      -7.312   5.757  71.705  1.00  0.00    -0.091 NA 
HETATM    8  N   UNL     1      -9.419   5.824  70.735  1.00  0.00    -0.163 NA 
HETATM    9  C   UNL     1      -8.213   5.291  70.847  1.00  0.00    -0.112 A  
BRANCH   6  10
HETATM   10  N   UNL     1      -6.763   7.213  73.437  1.00  0.00    -0.065 NA 
HETATM   11  C   UNL     1      -7.214   8.107  74.488  1.00  0.00    -0.185 C  
HETATM   12  C   UNL     1      -5.349   7.239  73.114  1.00  0.00    -0.041 C  
ENDBRANCH   6  10
BRANCH   9  13
HETATM   13  N   UNL     1      -7.861   4.247  70.015  1.00  0.00    -0.052 NA 
HETATM   14  C   UNL     1      -6.929   3.231  70.470  1.00  0.00    -0.034 C  
HETATM   15  C   UNL     1      -8.673   3.937  68.855  1.00  0.00    -0.094 C  
ENDBRANCH   9  13
ENDBRANCH   2   4
TORSDOF 3
ENDMDL
MODEL      199
REMARK 921   NORMALIZED FREE ENERGY PREDICTED BY IDOCK:   -1.84 KCAL/MOL
REMARK 922        TOTAL FREE ENERGY PREDICTED BY IDOCK:   -2.43 KCAL/MOL
REMARK 923 INTER-LIGAND FREE ENERGY PREDICTED BY IDOCK:   -2.14 KCAL/MOL
REMARK 924 INTRA-LIGAND FREE ENERGY PREDICTED BY IDOCK:   -0.29 KCAL/MOL
REMARK 927      BINDING AFFINITY PREDICTED BY RF-SCORE:    0.00 PKD
ROOT
HETATM    1  C   UNL     1      -8.517   7.634  74.224  1.00  0.00    -0.235 C  
HETATM    2  N   UNL     1      -9.375   7.369  73.086  1.00  0.00    -0.169 NA 
HETATM    3  C   UNL     1     -10.795   7.630  73.170  1.00  0.00    -0.382 C  
ENDROOT
BRANCH   2   4
HETATM    4  C   UNL     1      -8.953   6.415  72.172  1.00  0.00    -0.136 A  
HETATM    5  N   UNL     1      -9.559   6.331  70.991  1.00  0.00    -0.175 NA 
HETATM    6  C   UNL     1      -9.145   5.383  70.162  1.00  0.00    -0.135 A  
HETATM    7  N   UNL     1      -8.172   4.535  70.479  1.00  0.00    -0.070 NA 
HETATM    8  N   UNL     1      -7.963   5.606  72.526  1.00  0.00    -0.103 NA 
HETATM    9  C   UNL     1      -7.591   4.672  71.666  1.00  0.00    -0.082 A  
BRANCH   6  10
HETATM   10  N   UNL     1      -9.689   5.307  68.892  1.00  0.00    -0.137 NA 
HETATM   11  C   UNL     1     -10.834   6.133  68.553  1.00  0.00    -0.314 C  
HETATM   12  C   UNL     1      -9.505   4.091  68.122  1.00  0.00    -0.158 C  
ENDBRANCH   6  10
BRANCH   9  13
HETATM   13  N   UNL     1      -6.600   3.781  72.029  1.00  0.00    -0.015 NA 
HETATM   14  C   UNL     1      -6.208   2.716  71.126  1.00  0.00    -0.018 C  
HETATM   15  C   UNL     1      -5.695   4.106  73.114  1.00  0.00    -0.007 C  
ENDBRANCH   9  13
ENDBRANCH   2   4
TORSDOF 3
ENDMDL
MODEL      200
REMARK 921   NORMALIZED FREE ENERGY PREDICTED BY IDOCK:   -1.84 KCAL/MOL
REMARK 922        TOTAL FREE ENERGY PREDICTED BY IDOCK:   -2.42 KCAL/MOL
REMARK 923 INTER-LIGAND FREE ENERGY PREDICTED BY IDOCK:   -2.17 KCAL/MOL
REMARK 924 INTRA-LIGAND FREE ENERGY PREDICTED BY IDOCK:   -0.25 KCAL/MOL
REMARK 927      BINDING AFFINITY PREDICTED BY RF-SCORE:    0.00 PKD
ROOT
HETATM    1  C   UNL     1      -5.377   6.008  65.643  1.00  0.00    -0.013 C  
HETATM    2  N   UNL     1      -6.538   6.817  65.330  1.00  0.00    -0.049 NA 
HETATM    3  C   UNL     1      -6.421   8.257  65.249  1.00  0.00    -0.052 C  
ENDROOT
BRANCH   2   4
HETATM    4  C   UNL     1      -7.786   6.294  65.632  1.00  0.00    -0.098 A  
HETATM    5  N   UNL     1      -8.190   5.180  65.027  1.00  0.00    -0.124 NA 
HETATM    6  C   UNL     1      -9.403   4.735  65.321  1.00  0.00    -0.143 A  
HETATM    7  N   UNL     1     -10.204   5.361  66.176  1.00  0.00    -0.165 NA 
HETATM    8  N   UNL     1      -8.540   6.944  66.508  1.00  0.00    -0.124 NA 
HETATM    9  C   UNL     1      -9.746   6.462  66.762  1.00  0.00    -0.158 A  
BRANCH   6  10
HETATM   10  N   UNL     1      -9.836   3.536  64.779  1.00  0.00    -0.168 NA 
HETATM   11  C   UNL     1      -9.012   2.348  64.918  1.00  0.00    -0.124 C  
HETATM   12  C   UNL     1     -10.763   3.567  63.663  1.00  0.00    -0.260 C  
ENDBRANCH   6  10
BRANCH   9  13
HETATM   13  N   UNL     1     -10.574   7.148  67.629  1.00  0.00    -0.236 NA 
HETATM   14  C   UNL     1     -11.020   6.525  68.861  1.00  0.00    -0.314 C  
HETATM   15  C   UNL     1     -10.703   8.588  67.523  1.00  0.00    -0.141 C  
ENDBRANCH   9  13
ENDBRANCH   2   4
TORSDOF 3
ENDMDL
MODEL      201
REMARK 921   NORMALIZED FREE ENERGY PREDICTED BY IDOCK:   -1.79 KCAL/MOL
REMARK 922        TOTAL FREE ENERGY PREDICTED BY IDOCK:   -2.36 KCAL/MOL
REMARK 923 INTER-LIGAND FREE ENERGY PREDICTED BY IDOCK:   -2.08 KCAL/MOL
REMARK 924 INTRA-LIGAND FREE ENERGY PREDICTED BY IDOCK:   -0.28 KCAL/MOL
REMARK 927      BINDING AFFINITY PREDICTED BY RF-SCORE:    0.00 PKD
ROOT
HETATM    1  C   UNL     1      -9.377   9.194  66.956  1.00  0.00    -0.148 C  
HETATM    2  N   UNL     1      -8.718   8.106  66.261  1.00  0.00    -0.142 NA 
HETATM    3  C   UNL     1      -8.377   8.238  64.861  1.00  0.00    -0.135 C  
ENDROOT
BRANCH   2   4
HETATM    4  C   UNL     1      -8.898   6.823  66.757  1.00  0.00    -0.124 A  
HETATM    5  N   UNL     1      -8.906   6.628  68.072  1.00  0.00    -0.116 NA 
HETATM    6  C   UNL     1      -9.048   5.382  68.500  1.00  0.00    -0.108 A  
HETATM    7  N   UNL     1      -9.171   4.353  67.669  1.00  0.00    -0.134 NA 
HETATM    8  N   UNL     1      -9.039   5.832  65.887  1.00  0.00    -0.156 NA 
HETATM    9  C   UNL     1      -9.170   4.606  66.365  1.00  0.00    -0.133 A  
BRANCH   6  10
HETATM   10  N   UNL     1      -9.143   5.138  69.860  1.00  0.00    -0.119 NA 
HETATM   11  C   UNL     1      -8.247   5.822  70.774  1.00  0.00    -0.123 C  
HETATM   12  C   UNL     1      -9.703   3.877  70.308  1.00  0.00    -0.175 C  
ENDBRANCH   6  10
BRANCH   9  13
HETATM   13  N   UNL     1      -9.264   3.548  65.482  1.00  0.00    -0.151 NA 
HETATM   14  C   UNL     1      -8.922   2.205  65.911  1.00  0.00    -0.106 C  
HETATM   15  C   UNL     1     -10.043   3.683  64.266  1.00  0.00    -0.212 C  
ENDBRANCH   9  13
ENDBRANCH   2   4
TORSDOF 3
ENDMDL
MODEL      202
REMARK 921   NORMALIZED FREE ENERGY PREDICTED BY IDOCK:   -1.78 KCAL/MOL
REMARK 922        TOTAL FREE ENERGY PREDICTED BY IDOCK:   -2.36 KCAL/MOL
REMARK 923 INTER-LIGAND FREE ENERGY PREDICTED BY IDOCK:   -2.08 KCAL/MOL
REMARK 924 INTRA-LIGAND FREE ENERGY PREDICTED BY IDOCK:   -0.27 KCAL/MOL
REMARK 927      BINDING AFFINITY PREDICTED BY RF-SCORE:    0.00 PKD
ROOT
HETATM    1  C   UNL     1      -6.904  13.131  68.762  1.00  0.00    -0.102 C  
HETATM    2  N   UNL     1      -7.664  12.930  67.545  1.00  0.00    -0.163 NA 
HETATM    3  C   UNL     1      -8.460  14.007  66.998  1.00  0.00    -0.147 C  
ENDROOT
BRANCH   2   4
HETATM    4  C   UNL     1      -8.041  11.633  67.229  1.00  0.00    -0.160 A  
HETATM    5  N   UNL     1      -7.659  11.108  66.069  1.00  0.00    -0.043 NA 
HETATM    6  C   UNL     1      -8.069   9.878  65.795  1.00  0.00    -0.123 A  
HETATM    7  N   UNL     1      -8.838   9.181  66.625  1.00  0.00    -0.126 NA 
HETATM    8  N   UNL     1      -8.790  10.971  68.101  1.00  0.00    -0.136 NA 
HETATM    9  C   UNL     1      -9.179   9.749  67.777  1.00  0.00    -0.130 A  
BRANCH   6  10
HETATM   10  N   UNL     1      -7.631   9.258  64.636  1.00  0.00    -0.103 NA 
HETATM   11  C   UNL     1      -7.394  10.054  63.445  1.00  0.00    -0.137 C  
HETATM   12  C   UNL     1      -7.925   7.851  64.440  1.00  0.00    -0.132 C  
ENDBRANCH   6  10
BRANCH   9  13
HETATM   13  N   UNL     1     -10.005   9.057  68.641  1.00  0.00    -0.167 NA 
HETATM   14  C   UNL     1     -10.450   7.716  68.310  1.00  0.00    -0.174 C  
HETATM   15  C   UNL     1     -10.130   9.482  70.022  1.00  0.00    -0.242 C  
ENDBRANCH   9  13
ENDBRANCH   2   4
TORSDOF 3
ENDMDL
MODEL      203
REMARK 921   NORMALIZED FREE ENERGY PREDICTED BY IDOCK:   -1.74 KCAL/MOL
REMARK 922        TOTAL FREE ENERGY PREDICTED BY IDOCK:   -2.30 KCAL/MOL
REMARK 923 INTER-LIGAND FREE ENERGY PREDICTED BY IDOCK:   -2.05 KCAL/MOL
REMARK 924 INTRA-LIGAND FREE ENERGY PREDICTED BY IDOCK:   -0.25 KCAL/MOL
REMARK 927      BINDING AFFINITY PREDICTED BY RF-SCORE:    0.00 PKD
ROOT
HETATM    1  C   UNL     1     -10.967   7.656  71.184  1.00  0.00    -0.246 C  
HETATM    2  N   UNL     1     -10.402   6.560  70.423  1.00  0.00    -0.193 NA 
HETATM    3  C   UNL     1     -11.073   6.077  69.236  1.00  0.00    -0.354 C  
ENDROOT
BRANCH   2   4
HETATM    4  C   UNL     1      -9.572   5.673  71.093  1.00  0.00    -0.168 A  
HETATM    5  N   UNL     1      -9.893   4.384  71.135  1.00  0.00    -0.185 NA 
HETATM    6  C   UNL     1      -9.089   3.579  71.814  1.00  0.00    -0.111 A  
HETATM    7  N   UNL     1      -8.005   4.020  72.443  1.00  0.00    -0.080 NA 
HETATM    8  N   UNL     1      -8.490   6.159  71.687  1.00  0.00    -0.129 NA 
HETATM    9  C   UNL     1      -7.723   5.316  72.358  1.00  0.00    -0.101 A  
BRANCH   6  10
HETATM   10  N   UNL     1      -9.337   2.217  71.818  1.00  0.00    -0.095 NA 
HETATM   11  C   UNL     1      -9.310   1.480  70.567  1.00  0.00    -0.099 C  
HETATM   12  C   UNL     1     -10.124   1.651  72.898  1.00  0.00    -0.108 C  
ENDBRANCH   6  10
BRANCH   9  13
HETATM   13  N   UNL     1      -6.620   5.803  73.031  1.00  0.00    -0.067 NA 
HETATM   14  C   UNL     1      -5.822   6.868  72.454  1.00  0.00    -0.038 C  
HETATM   15  C   UNL     1      -6.460   5.541  74.448  1.00  0.00    -0.071 C  
ENDBRANCH   9  13
ENDBRANCH   2   4
TORSDOF 3
ENDMDL
MODEL      204
REMARK 921   NORMALIZED FREE ENERGY PREDICTED BY IDOCK:   -1.70 KCAL/MOL
REMARK 922        TOTAL FREE ENERGY PREDICTED BY IDOCK:   -2.26 KCAL/MOL
REMARK 923 INTER-LIGAND FREE ENERGY PREDICTED BY IDOCK:   -2.00 KCAL/MOL
REMARK 924 INTRA-LIGAND FREE ENERGY PREDICTED BY IDOCK:   -0.25 KCAL/MOL
REMARK 927      BINDING AFFINITY PREDICTED BY RF-SCORE:    0.00 PKD
ROOT
HETATM    1  C   UNL     1     -10.973   7.668  71.183  1.00  0.00    -0.246 C  
HETATM    2  N   UNL     1     -10.398   6.611  70.375  1.00  0.00    -0.195 NA 
HETATM    3  C   UNL     1     -11.102   6.120  69.211  1.00  0.00    -0.393 C  
ENDROOT
BRANCH   2   4
HETATM    4  C   UNL     1      -9.498   5.752  70.988  1.00  0.00    -0.165 A  
HETATM    5  N   UNL     1      -8.231   5.738  70.583  1.00  0.00    -0.117 NA 
HETATM    6  C   UNL     1      -7.415   4.877  71.174  1.00  0.00    -0.073 A  
HETATM    7  N   UNL     1      -7.823   4.047  72.128  1.00  0.00    -0.078 NA 
HETATM    8  N   UNL     1      -9.949   4.959  71.950  1.00  0.00    -0.183 NA 
HETATM    9  C   UNL     1      -9.096   4.113  72.503  1.00  0.00    -0.110 A  
BRANCH   6  10
HETATM   10  N   UNL     1      -6.070   4.882  70.845  1.00  0.00    -0.018 NA 
HETATM   11  C   UNL     1      -5.473   3.696  70.256  1.00  0.00    -0.012 C  
HETATM   12  C   UNL     1      -5.179   5.787  71.546  1.00  0.00    -0.016 C  
ENDBRANCH   6  10
BRANCH   9  13
HETATM   13  N   UNL     1      -9.551   3.237  73.470  1.00  0.00    -0.105 NA 
HETATM   14  C   UNL     1      -8.623   2.649  74.418  1.00  0.00    -0.071 C  
HETATM   15  C   UNL     1     -10.963   3.183  73.794  1.00  0.00    -0.220 C  
ENDBRANCH   9  13
ENDBRANCH   2   4
TORSDOF 3
ENDMDL
MODEL      205
REMARK 921   NORMALIZED FREE ENERGY PREDICTED BY IDOCK:   -1.65 KCAL/MOL
REMARK 922        TOTAL FREE ENERGY PREDICTED BY IDOCK:   -2.20 KCAL/MOL
REMARK 923 INTER-LIGAND FREE ENERGY PREDICTED BY IDOCK:   -1.94 KCAL/MOL
REMARK 924 INTRA-LIGAND FREE ENERGY PREDICTED BY IDOCK:   -0.26 KCAL/MOL
REMARK 927      BINDING AFFINITY PREDICTED BY RF-SCORE:    0.00 PKD
ROOT
HETATM    1  C   UNL     1      -9.393   8.770  65.857  1.00  0.00    -0.218 C  
HETATM    2  N   UNL     1      -9.078   7.699  66.781  1.00  0.00    -0.144 NA 
HETATM    3  C   UNL     1      -9.412   6.331  66.450  1.00  0.00    -0.133 C  
ENDROOT
BRANCH   2   4
HETATM    4  C   UNL     1      -8.967   8.022  68.126  1.00  0.00    -0.135 A  
HETATM    5  N   UNL     1      -9.935   7.665  68.964  1.00  0.00    -0.176 NA 
HETATM    6  C   UNL     1      -9.803   8.024  70.233  1.00  0.00    -0.184 A  
HETATM    7  N   UNL     1      -8.759   8.719  70.672  1.00  0.00    -0.162 NA 
HETATM    8  N   UNL     1      -7.895   8.698  68.518  1.00  0.00    -0.106 NA 
HETATM    9  C   UNL     1      -7.814   9.038  69.794  1.00  0.00    -0.086 A  
BRANCH   6  10
HETATM   10  N   UNL     1     -10.744   7.606  71.159  1.00  0.00    -0.226 NA 
HETATM   11  C   UNL     1     -11.942   8.399  71.369  1.00  0.00    -0.297 C  
HETATM   12  C   UNL     1     -10.320   6.752  72.252  1.00  0.00    -0.196 C  
ENDBRANCH   6  10
BRANCH   9  13
HETATM   13  N   UNL     1      -6.735   9.789  70.220  1.00  0.00    -0.095 NA 
HETATM   14  C   UNL     1      -6.228  10.872  69.399  1.00  0.00    -0.063 C  
HETATM   15  C   UNL     1      -6.342   9.766  71.616  1.00  0.00     0.279 C  
ENDBRANCH   9  13
ENDBRANCH   2   4
TORSDOF 3
ENDMDL
MODEL      206
REMARK 921   NORMALIZED FREE ENERGY PREDICTED BY IDOCK:   -1.63 KCAL/MOL
REMARK 922        TOTAL FREE ENERGY PREDICTED BY IDOCK:   -2.18 KCAL/MOL
REMARK 923 INTER-LIGAND FREE ENERGY PREDICTED BY IDOCK:   -1.91 KCAL/MOL
REMARK 924 INTRA-LIGAND FREE ENERGY PREDICTED BY IDOCK:   -0.27 KCAL/MOL
REMARK 927      BINDING AFFINITY PREDICTED BY RF-SCORE:    0.00 PKD
ROOT
HETATM    1  C   UNL     1      -9.361   9.207  66.944  1.00  0.00    -0.156 C  
HETATM    2  N   UNL     1      -8.568   8.257  66.188  1.00  0.00    -0.132 NA 
HETATM    3  C   UNL     1      -8.186   8.551  64.824  1.00  0.00    -0.162 C  
ENDROOT
BRANCH   2   4
HETATM    4  C   UNL     1      -8.639   6.923  66.559  1.00  0.00    -0.129 A  
HETATM    5  N   UNL     1      -8.580   5.982  65.621  1.00  0.00    -0.154 NA 
HETATM    6  C   UNL     1      -8.685   4.722  66.018  1.00  0.00    -0.118 A  
HETATM    7  N   UNL     1      -8.851   4.387  67.293  1.00  0.00    -0.105 NA 
HETATM    8  N   UNL     1      -8.782   6.640  67.846  1.00  0.00    -0.117 NA 
HETATM    9  C   UNL     1      -8.890   5.367  68.190  1.00  0.00    -0.105 A  
BRANCH   6  10
HETATM   10  N   UNL     1      -8.549   3.704  65.088  1.00  0.00    -0.112 NA 
HETATM   11  C   UNL     1      -9.204   3.821  63.798  1.00  0.00    -0.123 C  
HETATM   12  C   UNL     1      -8.252   2.363  65.556  1.00  0.00    -0.087 C  
ENDBRANCH   6  10
BRANCH   9  13
HETATM   13  N   UNL     1      -9.094   5.045  69.518  1.00  0.00    -0.105 NA 
HETATM   14  C   UNL     1      -8.032   4.432  70.294  1.00  0.00    -0.062 C  
HETATM   15  C   UNL     1     -10.198   5.638  70.246  1.00  0.00    -0.243 C  
ENDBRANCH   9  13
ENDBRANCH   2   4
TORSDOF 3
ENDMDL
MODEL      207
REMARK 921   NORMALIZED FREE ENERGY PREDICTED BY IDOCK:   -1.48 KCAL/MOL
REMARK 922        TOTAL FREE ENERGY PREDICTED BY IDOCK:   -2.00 KCAL/MOL
REMARK 923 INTER-LIGAND FREE ENERGY PREDICTED BY IDOCK:   -1.75 KCAL/MOL
REMARK 924 INTRA-LIGAND FREE ENERGY PREDICTED BY IDOCK:   -0.25 KCAL/MOL
REMARK 927      BINDING AFFINITY PREDICTED BY RF-SCORE:    0.00 PKD
ROOT
HETATM    1  C   UNL     1     -10.918   7.711  71.156  1.00  0.00    -0.246 C  
HETATM    2  N   UNL     1     -10.338   6.871  70.127  1.00  0.00    -0.196 NA 
HETATM    3  C   UNL     1     -11.017   6.696  68.862  1.00  0.00    -0.267 C  
ENDROOT
BRANCH   2   4
HETATM    4  C   UNL     1      -9.470   5.867  70.531  1.00  0.00    -0.167 A  
HETATM    5  N   UNL     1      -8.798   5.178  69.613  1.00  0.00    -0.101 NA 
HETATM    6  C   UNL     1      -8.006   4.206  70.043  1.00  0.00    -0.055 A  
HETATM    7  N   UNL     1      -7.878   3.909  71.332  1.00  0.00    -0.063 NA 
HETATM    8  N   UNL     1      -9.360   5.623  71.830  1.00  0.00    -0.145 NA 
HETATM    9  C   UNL     1      -8.562   4.638  72.207  1.00  0.00    -0.119 A  
BRANCH   6  10
HETATM   10  N   UNL     1      -7.225   3.515  69.132  1.00  0.00    -0.049 NA 
HETATM   11  C   UNL     1      -6.145   4.203  68.447  1.00  0.00    -0.031 C  
HETATM   12  C   UNL     1      -7.782   2.347  68.477  1.00  0.00    -0.054 C  
ENDBRANCH   6  10
BRANCH   9  13
HETATM   13  N   UNL     1      -8.469   4.325  73.549  1.00  0.00    -0.093 NA 
HETATM   14  C   UNL     1      -9.429   3.423  74.157  1.00  0.00    -0.092 C  
HETATM   15  C   UNL     1      -7.236   4.575  74.269  1.00  0.00    -0.073 C  
ENDBRANCH   9  13
ENDBRANCH   2   4
TORSDOF 3
ENDMDL
MODEL      208
REMARK 921   NORMALIZED FREE ENERGY PREDICTED BY IDOCK:    3.27 KCAL/MOL
REMARK 922        TOTAL FREE ENERGY PREDICTED BY IDOCK:    3.58 KCAL/MOL
REMARK 923 INTER-LIGAND FREE ENERGY PREDICTED BY IDOCK:    3.88 KCAL/MOL
REMARK 924 INTRA-LIGAND FREE ENERGY PREDICTED BY IDOCK:   -0.29 KCAL/MOL
REMARK 927      BINDING AFFINITY PREDICTED BY RF-SCORE:    0.00 PKD
ROOT
HETATM    1  C   UNL     1     -11.532  18.481  70.560  1.00  0.00     5.402 C  
HETATM    2  N   UNL     1     -10.424  18.967  69.761  1.00  0.00     0.723 NA 
HETATM    3  C   UNL     1     -10.360  20.360  69.377  1.00  0.00     0.312 C  
ENDROOT
BRANCH   2   4
HETATM    4  C   UNL     1      -9.761  18.051  68.958  1.00  0.00    -0.198 A  
HETATM    5  N   UNL     1      -8.669  18.430  68.301  1.00  0.00    -0.296 NA 
HETATM    6  C   UNL     1      -8.088  17.532  67.519  1.00  0.00    -0.205 A  
HETATM    7  N   UNL     1      -8.563  16.299  67.375  1.00  0.00    -0.175 NA 
HETATM    8  N   UNL     1     -10.262  16.826  68.864  1.00  0.00    -0.285 NA 
HETATM    9  C   UNL     1      -9.649  15.969  68.065  1.00  0.00    -0.215 A  
BRANCH   6  10
HETATM   10  N   UNL     1      -6.903  17.854  66.879  1.00  0.00    -0.171 NA 
HETATM   11  C   UNL     1      -5.931  16.812  66.604  1.00  0.00    -0.044 C  
HETATM   12  C   UNL     1      -6.402  19.212  66.975  1.00  0.00    -0.183 C  
ENDBRANCH   6  10
BRANCH   9  13
HETATM   13  N   UNL     1     -10.179  14.703  67.905  1.00  0.00    -0.225 NA 
HETATM   14  C   UNL     1     -11.506  14.398  68.406  1.00  0.00    -0.301 C  
HETATM   15  C   UNL     1      -9.605  13.793  66.933  1.00  0.00    -0.262 C  
ENDBRANCH   9  13
ENDBRANCH   2   4
TORSDOF 3
ENDMDL
