MODEL        1
REMARK 921   NORMALIZED FREE ENERGY PREDICTED BY IDOCK:   -6.11 KCAL/MOL
REMARK 922        TOTAL FREE ENERGY PREDICTED BY IDOCK:  -10.84 KCAL/MOL
REMARK 923 INTER-LIGAND FREE ENERGY PREDICTED BY IDOCK:   -9.33 KCAL/MOL
REMARK 924 INTRA-LIGAND FREE ENERGY PREDICTED BY IDOCK:   -1.52 KCAL/MOL
REMARK 927      BINDING AFFINITY PREDICTED BY RF-SCORE:    0.00 PKD
ROOT
HETATM    1  C   UNL     1     -12.004  13.200  64.044  1.00  0.00    -0.524 C  
HETATM    2  C   UNL     1     -12.492  13.151  65.488  1.00  0.00    -0.458 C  
ENDROOT
BRANCH   2   3
HETATM    3  N   UNL     1     -11.572  13.719  66.500  1.00  0.00    -0.348 NA 
BRANCH   3   4
HETATM    4  C   UNL     1     -11.520  12.894  67.723  1.00  0.00    -0.323 C  
BRANCH   4   5
HETATM    5  C   UNL     1     -11.287  13.657  69.042  1.00  0.00    -0.333 C  
BRANCH   5   6
HETATM    6  C   UNL     1     -12.030  14.993  69.132  1.00  0.00    -0.308 C  
BRANCH   6   7
HETATM    7  C   UNL     1     -12.459  15.273  70.558  1.00  0.00    -0.454 A  
HETATM    8  C   UNL     1     -11.569  15.865  71.466  1.00  0.00    -0.537 A  
HETATM    9  C   UNL     1     -11.986  16.180  72.761  1.00  0.00    -0.638 A  
HETATM   10  C   UNL     1     -13.770  14.999  70.974  1.00  0.00    -0.417 A  
HETATM   11  C   UNL     1     -13.293  15.908  73.161  1.00  0.00    -0.681 A  
HETATM   12  C   UNL     1     -14.185  15.314  72.269  1.00  0.00    -0.642 A  
ENDBRANCH   6   7
ENDBRANCH   5   6
ENDBRANCH   4   5
ENDBRANCH   3   4
BRANCH   3  13
HETATM   13  C   UNL     1     -10.222  13.887  65.919  1.00  0.00    -0.315 C  
BRANCH  13  14
HETATM   14  C   UNL     1      -9.618  15.283  66.072  1.00  0.00    -0.372 C  
BRANCH  14  15
HETATM   15  C   UNL     1     -10.630  16.404  65.811  1.00  0.00    -0.327 C  
BRANCH  15  16
HETATM   16  C   UNL     1     -10.265  17.592  66.664  1.00  0.00    -0.341 A  
HETATM   17  C   UNL     1      -9.875  19.797  68.339  1.00  0.00    -0.522 A  
HETATM   18  C   UNL     1     -10.248  19.990  67.007  1.00  0.00    -0.587 A  
HETATM   19  C   UNL     1      -9.870  17.407  67.996  1.00  0.00    -0.288 A  
HETATM   20  C   UNL     1      -9.680  18.510  68.828  1.00  0.00    -0.390 A  
HETATM   21  C   UNL     1     -10.436  18.892  66.171  1.00  0.00    -0.521 A  
ENDBRANCH  15  16
ENDBRANCH  14  15
ENDBRANCH  13  14
ENDBRANCH   3  13
ENDBRANCH   2   3
TORSDOF 9
ENDMDL
MODEL        2
REMARK 921   NORMALIZED FREE ENERGY PREDICTED BY IDOCK:   -6.02 KCAL/MOL
REMARK 922        TOTAL FREE ENERGY PREDICTED BY IDOCK:  -10.71 KCAL/MOL
REMARK 923 INTER-LIGAND FREE ENERGY PREDICTED BY IDOCK:   -9.17 KCAL/MOL
REMARK 924 INTRA-LIGAND FREE ENERGY PREDICTED BY IDOCK:   -1.54 KCAL/MOL
REMARK 927      BINDING AFFINITY PREDICTED BY RF-SCORE:    0.00 PKD
ROOT
HETATM    1  C   UNL     1     -11.838  12.888  63.844  1.00  0.00    -0.541 C  
HETATM    2  C   UNL     1     -12.546  13.221  65.153  1.00  0.00    -0.453 C  
ENDROOT
BRANCH   2   3
HETATM    3  N   UNL     1     -11.667  13.571  66.292  1.00  0.00    -0.349 NA 
BRANCH   3   4
HETATM    4  C   UNL     1     -11.718  12.555  67.361  1.00  0.00    -0.366 C  
BRANCH   4   5
HETATM    5  C   UNL     1     -11.571  13.083  68.801  1.00  0.00    -0.350 C  
BRANCH   5   6
HETATM    6  C   UNL     1     -12.121  14.498  69.009  1.00  0.00    -0.286 C  
BRANCH   6   7
HETATM    7  C   UNL     1     -12.382  14.761  70.477  1.00  0.00    -0.398 A  
HETATM    8  C   UNL     1     -13.117  13.847  71.245  1.00  0.00    -0.385 A  
HETATM    9  C   UNL     1     -13.303  14.061  72.613  1.00  0.00    -0.643 A  
HETATM   10  C   UNL     1     -11.843  15.894  71.105  1.00  0.00    -0.483 A  
HETATM   11  C   UNL     1     -12.758  15.187  73.226  1.00  0.00    -0.628 A  
HETATM   12  C   UNL     1     -12.030  16.106  72.472  1.00  0.00    -0.660 A  
ENDBRANCH   6   7
ENDBRANCH   5   6
ENDBRANCH   4   5
ENDBRANCH   3   4
BRANCH   3  13
HETATM   13  C   UNL     1     -10.281  13.769  65.818  1.00  0.00    -0.311 C  
BRANCH  13  14
HETATM   14  C   UNL     1      -9.685  15.147  66.110  1.00  0.00    -0.338 C  
BRANCH  14  15
HETATM   15  C   UNL     1     -10.522  16.294  65.534  1.00  0.00    -0.383 C  
BRANCH  15  16
HETATM   16  C   UNL     1     -10.480  17.454  66.496  1.00  0.00    -0.264 A  
HETATM   17  C   UNL     1     -10.101  19.610  68.236  1.00  0.00    -0.560 A  
HETATM   18  C   UNL     1     -10.063  18.303  68.726  1.00  0.00    -0.393 A  
HETATM   19  C   UNL     1     -10.537  18.769  66.014  1.00  0.00    -0.442 A  
HETATM   20  C   UNL     1     -10.344  19.841  66.886  1.00  0.00    -0.601 A  
HETATM   21  C   UNL     1     -10.258  17.229  67.860  1.00  0.00    -0.332 A  
ENDBRANCH  15  16
ENDBRANCH  14  15
ENDBRANCH  13  14
ENDBRANCH   3  13
ENDBRANCH   2   3
TORSDOF 9
ENDMDL
MODEL        3
REMARK 921   NORMALIZED FREE ENERGY PREDICTED BY IDOCK:   -6.00 KCAL/MOL
REMARK 922        TOTAL FREE ENERGY PREDICTED BY IDOCK:  -10.68 KCAL/MOL
REMARK 923 INTER-LIGAND FREE ENERGY PREDICTED BY IDOCK:   -9.42 KCAL/MOL
REMARK 924 INTRA-LIGAND FREE ENERGY PREDICTED BY IDOCK:   -1.26 KCAL/MOL
REMARK 927      BINDING AFFINITY PREDICTED BY RF-SCORE:    0.00 PKD
ROOT
HETATM    1  C   UNL     1     -10.948  12.531  64.186  1.00  0.00    -0.425 C  
HETATM    2  C   UNL     1     -12.215  12.632  65.029  1.00  0.00    -0.476 C  
ENDROOT
BRANCH   2   3
HETATM    3  N   UNL     1     -12.031  12.484  66.491  1.00  0.00    -0.576 NA 
BRANCH   3   4
HETATM    4  C   UNL     1     -10.847  11.666  66.818  1.00  0.00    -0.277 C  
BRANCH   4   5
HETATM    5  C   UNL     1     -11.081  10.506  67.806  1.00  0.00    -0.382 C  
BRANCH   5   6
HETATM    6  C   UNL     1     -10.368  10.676  69.152  1.00  0.00    -0.242 C  
BRANCH   6   7
HETATM    7  C   UNL     1     -11.252  10.208  70.289  1.00  0.00    -0.387 A  
HETATM    8  C   UNL     1     -12.304  11.012  70.751  1.00  0.00    -0.496 A  
HETATM    9  C   UNL     1     -13.157  10.551  71.757  1.00  0.00    -0.570 A  
HETATM   10  C   UNL     1     -11.068   8.939  70.858  1.00  0.00    -0.328 A  
HETATM   11  C   UNL     1     -12.968   9.286  72.310  1.00  0.00    -0.488 A  
HETATM   12  C   UNL     1     -11.921   8.481  71.863  1.00  0.00    -0.409 A  
ENDBRANCH   6   7
ENDBRANCH   5   6
ENDBRANCH   4   5
ENDBRANCH   3   4
BRANCH   3  13
HETATM   13  C   UNL     1     -11.944  13.817  67.127  1.00  0.00    -0.405 C  
BRANCH  13  14
HETATM   14  C   UNL     1     -12.157  13.829  68.641  1.00  0.00    -0.333 C  
BRANCH  14  15
HETATM   15  C   UNL     1     -11.710  15.140  69.296  1.00  0.00    -0.352 C  
BRANCH  15  16
HETATM   16  C   UNL     1     -12.233  15.175  70.710  1.00  0.00    -0.392 A  
HETATM   17  C   UNL     1     -12.976  15.051  73.403  1.00  0.00    -0.622 A  
HETATM   18  C   UNL     1     -13.525  14.153  72.485  1.00  0.00    -0.634 A  
HETATM   19  C   UNL     1     -11.700  16.086  71.633  1.00  0.00    -0.583 A  
HETATM   20  C   UNL     1     -12.072  16.018  72.976  1.00  0.00    -0.628 A  
HETATM   21  C   UNL     1     -13.159  14.219  71.143  1.00  0.00    -0.412 A  
ENDBRANCH  15  16
ENDBRANCH  14  15
ENDBRANCH  13  14
ENDBRANCH   3  13
ENDBRANCH   2   3
TORSDOF 9
ENDMDL
MODEL        4
REMARK 921   NORMALIZED FREE ENERGY PREDICTED BY IDOCK:   -5.92 KCAL/MOL
REMARK 922        TOTAL FREE ENERGY PREDICTED BY IDOCK:  -10.56 KCAL/MOL
REMARK 923 INTER-LIGAND FREE ENERGY PREDICTED BY IDOCK:   -7.21 KCAL/MOL
REMARK 924 INTRA-LIGAND FREE ENERGY PREDICTED BY IDOCK:   -3.34 KCAL/MOL
REMARK 927      BINDING AFFINITY PREDICTED BY RF-SCORE:    0.00 PKD
ROOT
HETATM    1  C   UNL     1     -10.523  19.374  66.162  1.00  0.00    -0.600 C  
HETATM    2  C   UNL     1     -10.569  18.792  67.571  1.00  0.00    -0.435 C  
ENDROOT
BRANCH   2   3
HETATM    3  N   UNL     1     -10.447  17.319  67.665  1.00  0.00    -0.356 NA 
BRANCH   3   4
HETATM    4  C   UNL     1      -9.192  16.829  67.062  1.00  0.00    -0.225 C  
BRANCH   4   5
HETATM    5  C   UNL     1      -9.346  15.822  65.906  1.00  0.00    -0.356 C  
BRANCH   5   6
HETATM    6  C   UNL     1     -10.760  15.752  65.320  1.00  0.00    -0.446 C  
BRANCH   6   7
HETATM    7  C   UNL     1     -11.117  14.329  64.947  1.00  0.00    -0.396 A  
HETATM    8  C   UNL     1     -12.449  13.895  64.986  1.00  0.00    -0.447 A  
HETATM    9  C   UNL     1     -12.784  12.600  64.581  1.00  0.00    -0.458 A  
HETATM   10  C   UNL     1     -10.127  13.440  64.502  1.00  0.00    -0.220 A  
HETATM   11  C   UNL     1     -11.792  11.728  64.135  1.00  0.00    -0.350 A  
HETATM   12  C   UNL     1     -10.463  12.147  64.098  1.00  0.00    -0.395 A  
ENDBRANCH   6   7
ENDBRANCH   5   6
ENDBRANCH   4   5
ENDBRANCH   3   4
BRANCH   3  13
HETATM   13  C   UNL     1     -10.558  16.891  69.076  1.00  0.00    -0.338 C  
BRANCH  13  14
HETATM   14  C   UNL     1     -10.282  15.408  69.329  1.00  0.00    -0.250 C  
BRANCH  14  15
HETATM   15  C   UNL     1     -11.476  14.512  68.985  1.00  0.00    -0.318 C  
BRANCH  15  16
HETATM   16  C   UNL     1     -10.960  13.231  68.379  1.00  0.00    -0.289 A  
HETATM   17  C   UNL     1      -9.967  10.756  67.540  1.00  0.00    -0.203 A  
HETATM   18  C   UNL     1      -9.093  11.825  67.746  1.00  0.00    -0.178 A  
HETATM   19  C   UNL     1     -11.834  12.160  68.152  1.00  0.00    -0.362 A  
HETATM   20  C   UNL     1     -11.334  10.926  67.735  1.00  0.00    -0.366 A  
HETATM   21  C   UNL     1      -9.588  13.060  68.158  1.00  0.00    -0.227 A  
ENDBRANCH  15  16
ENDBRANCH  14  15
ENDBRANCH  13  14
ENDBRANCH   3  13
ENDBRANCH   2   3
TORSDOF 9
ENDMDL
MODEL        5
REMARK 921   NORMALIZED FREE ENERGY PREDICTED BY IDOCK:   -5.90 KCAL/MOL
REMARK 922        TOTAL FREE ENERGY PREDICTED BY IDOCK:  -10.53 KCAL/MOL
REMARK 923 INTER-LIGAND FREE ENERGY PREDICTED BY IDOCK:   -9.19 KCAL/MOL
REMARK 924 INTRA-LIGAND FREE ENERGY PREDICTED BY IDOCK:   -1.34 KCAL/MOL
REMARK 927      BINDING AFFINITY PREDICTED BY RF-SCORE:    0.00 PKD
ROOT
HETATM    1  C   UNL     1     -12.011  12.239  63.689  1.00  0.00    -0.633 C  
HETATM    2  C   UNL     1     -12.555  12.936  64.931  1.00  0.00    -0.458 C  
ENDROOT
BRANCH   2   3
HETATM    3  N   UNL     1     -11.579  13.172  66.020  1.00  0.00    -0.337 NA 
BRANCH   3   4
HETATM    4  C   UNL     1     -10.380  13.887  65.540  1.00  0.00    -0.333 C  
BRANCH   4   5
HETATM    5  C   UNL     1     -10.457  15.426  65.562  1.00  0.00    -0.402 C  
BRANCH   5   6
HETATM    6  C   UNL     1      -9.199  16.108  66.107  1.00  0.00    -0.382 C  
BRANCH   6   7
HETATM    7  C   UNL     1      -9.550  17.412  66.793  1.00  0.00    -0.283 A  
HETATM    8  C   UNL     1     -10.165  18.449  66.079  1.00  0.00    -0.354 A  
HETATM    9  C   UNL     1     -10.546  19.626  66.728  1.00  0.00    -0.602 A  
HETATM   10  C   UNL     1      -9.319  17.578  68.166  1.00  0.00    -0.276 A  
HETATM   11  C   UNL     1     -10.316  19.778  68.094  1.00  0.00    -0.561 A  
HETATM   12  C   UNL     1      -9.700  18.755  68.814  1.00  0.00    -0.432 A  
ENDBRANCH   6   7
ENDBRANCH   5   6
ENDBRANCH   4   5
ENDBRANCH   3   4
BRANCH   3  13
HETATM   13  C   UNL     1     -12.225  13.909  67.127  1.00  0.00    -0.318 C  
BRANCH  13  14
HETATM   14  C   UNL     1     -11.795  13.480  68.530  1.00  0.00    -0.398 C  
BRANCH  14  15
HETATM   15  C   UNL     1     -11.132  14.611  69.323  1.00  0.00    -0.290 C  
BRANCH  15  16
HETATM   16  C   UNL     1     -11.779  14.690  70.683  1.00  0.00    -0.339 A  
HETATM   17  C   UNL     1     -13.214  14.967  73.067  1.00  0.00    -0.596 A  
HETATM   18  C   UNL     1     -12.342  15.977  72.656  1.00  0.00    -0.594 A  
HETATM   19  C   UNL     1     -12.640  13.671  71.112  1.00  0.00    -0.452 A  
HETATM   20  C   UNL     1     -13.356  13.815  72.301  1.00  0.00    -0.617 A  
HETATM   21  C   UNL     1     -11.622  15.837  71.472  1.00  0.00    -0.531 A  
ENDBRANCH  15  16
ENDBRANCH  14  15
ENDBRANCH  13  14
ENDBRANCH   3  13
ENDBRANCH   2   3
TORSDOF 9
ENDMDL
MODEL        6
REMARK 921   NORMALIZED FREE ENERGY PREDICTED BY IDOCK:   -5.88 KCAL/MOL
REMARK 922        TOTAL FREE ENERGY PREDICTED BY IDOCK:  -10.49 KCAL/MOL
REMARK 923 INTER-LIGAND FREE ENERGY PREDICTED BY IDOCK:   -8.99 KCAL/MOL
REMARK 924 INTRA-LIGAND FREE ENERGY PREDICTED BY IDOCK:   -1.50 KCAL/MOL
REMARK 927      BINDING AFFINITY PREDICTED BY RF-SCORE:    0.00 PKD
ROOT
HETATM    1  C   UNL     1     -10.978  11.733  64.616  1.00  0.00    -0.368 C  
HETATM    2  C   UNL     1     -10.748  12.173  66.058  1.00  0.00    -0.273 C  
ENDROOT
BRANCH   2   3
HETATM    3  N   UNL     1     -11.008  13.602  66.347  1.00  0.00    -0.296 NA 
BRANCH   3   4
HETATM    4  C   UNL     1     -11.437  14.339  65.142  1.00  0.00    -0.351 C  
BRANCH   4   5
HETATM    5  C   UNL     1     -10.899  15.776  65.003  1.00  0.00    -0.461 C  
BRANCH   5   6
HETATM    6  C   UNL     1      -9.657  16.065  65.853  1.00  0.00    -0.370 C  
BRANCH   6   7
HETATM    7  C   UNL     1      -9.850  17.322  66.675  1.00  0.00    -0.299 A  
HETATM    8  C   UNL     1      -9.299  17.424  67.960  1.00  0.00    -0.276 A  
HETATM    9  C   UNL     1      -9.425  18.607  68.692  1.00  0.00    -0.396 A  
HETATM   10  C   UNL     1     -10.533  18.425  66.141  1.00  0.00    -0.422 A  
HETATM   11  C   UNL     1     -10.100  19.698  68.149  1.00  0.00    -0.556 A  
HETATM   12  C   UNL     1     -10.657  19.606  66.874  1.00  0.00    -0.603 A  
ENDBRANCH   6   7
ENDBRANCH   5   6
ENDBRANCH   4   5
ENDBRANCH   3   4
BRANCH   3  13
HETATM   13  C   UNL     1     -12.011  13.726  67.426  1.00  0.00    -0.388 C  
BRANCH  13  14
HETATM   14  C   UNL     1     -11.455  14.160  68.783  1.00  0.00    -0.333 C  
BRANCH  14  15
HETATM   15  C   UNL     1     -12.053  15.480  69.279  1.00  0.00    -0.284 C  
BRANCH  15  16
HETATM   16  C   UNL     1     -12.427  15.325  70.732  1.00  0.00    -0.457 A  
HETATM   17  C   UNL     1     -12.871  14.866  73.454  1.00  0.00    -0.638 A  
HETATM   18  C   UNL     1     -13.431  14.012  72.501  1.00  0.00    -0.661 A  
HETATM   19  C   UNL     1     -11.884  16.190  71.692  1.00  0.00    -0.557 A  
HETATM   20  C   UNL     1     -12.106  15.955  73.049  1.00  0.00    -0.615 A  
HETATM   21  C   UNL     1     -13.215  14.245  71.145  1.00  0.00    -0.387 A  
ENDBRANCH  15  16
ENDBRANCH  14  15
ENDBRANCH  13  14
ENDBRANCH   3  13
ENDBRANCH   2   3
TORSDOF 9
ENDMDL
MODEL        7
REMARK 921   NORMALIZED FREE ENERGY PREDICTED BY IDOCK:   -5.76 KCAL/MOL
REMARK 922        TOTAL FREE ENERGY PREDICTED BY IDOCK:  -10.30 KCAL/MOL
REMARK 923 INTER-LIGAND FREE ENERGY PREDICTED BY IDOCK:   -6.95 KCAL/MOL
REMARK 924 INTRA-LIGAND FREE ENERGY PREDICTED BY IDOCK:   -3.36 KCAL/MOL
REMARK 927      BINDING AFFINITY PREDICTED BY RF-SCORE:    0.00 PKD
ROOT
HETATM    1  C   UNL     1     -13.982  15.252  71.482  1.00  0.00    -0.627 C  
HETATM    2  C   UNL     1     -12.584  15.706  71.079  1.00  0.00    -0.459 C  
ENDROOT
BRANCH   2   3
HETATM    3  N   UNL     1     -11.668  14.640  70.612  1.00  0.00    -0.285 NA 
BRANCH   3   4
HETATM    4  C   UNL     1     -12.403  13.480  70.070  1.00  0.00    -0.249 C  
BRANCH   4   5
HETATM    5  C   UNL     1     -11.585  12.185  69.894  1.00  0.00    -0.297 C  
BRANCH   5   6
HETATM    6  C   UNL     1     -11.902  11.413  68.610  1.00  0.00    -0.377 C  
BRANCH   6   7
HETATM    7  C   UNL     1     -10.661  11.258  67.757  1.00  0.00    -0.239 A  
HETATM    8  C   UNL     1     -10.652  10.380  66.664  1.00  0.00    -0.245 A  
HETATM    9  C   UNL     1      -9.528  10.286  65.841  1.00  0.00    -0.241 A  
HETATM   10  C   UNL     1      -9.520  12.035  68.011  1.00  0.00    -0.199 A  
HETATM   11  C   UNL     1      -8.403  11.066  66.100  1.00  0.00    -0.163 A  
HETATM   12  C   UNL     1      -8.398  11.939  67.188  1.00  0.00    -0.174 A  
ENDBRANCH   6   7
ENDBRANCH   5   6
ENDBRANCH   4   5
ENDBRANCH   3   4
BRANCH   3  13
HETATM   13  C   UNL     1     -10.727  15.184  69.609  1.00  0.00    -0.278 C  
BRANCH  13  14
HETATM   14  C   UNL     1     -11.368  15.640  68.298  1.00  0.00    -0.357 C  
BRANCH  14  15
HETATM   15  C   UNL     1     -10.419  15.533  67.100  1.00  0.00    -0.286 C  
BRANCH  15  16
HETATM   16  C   UNL     1     -11.048  14.636  66.065  1.00  0.00    -0.332 A  
HETATM   17  C   UNL     1     -12.119  12.739  64.311  1.00  0.00    -0.497 A  
HETATM   18  C   UNL     1     -10.819  13.212  64.118  1.00  0.00    -0.407 A  
HETATM   19  C   UNL     1     -12.359  14.171  66.241  1.00  0.00    -0.451 A  
HETATM   20  C   UNL     1     -12.887  13.223  65.365  1.00  0.00    -0.340 A  
HETATM   21  C   UNL     1     -10.288  14.162  64.988  1.00  0.00    -0.443 A  
ENDBRANCH  15  16
ENDBRANCH  14  15
ENDBRANCH  13  14
ENDBRANCH   3  13
ENDBRANCH   2   3
TORSDOF 9
ENDMDL
MODEL        8
REMARK 921   NORMALIZED FREE ENERGY PREDICTED BY IDOCK:   -5.74 KCAL/MOL
REMARK 922        TOTAL FREE ENERGY PREDICTED BY IDOCK:  -10.27 KCAL/MOL
REMARK 923 INTER-LIGAND FREE ENERGY PREDICTED BY IDOCK:   -8.94 KCAL/MOL
REMARK 924 INTRA-LIGAND FREE ENERGY PREDICTED BY IDOCK:   -1.33 KCAL/MOL
REMARK 927      BINDING AFFINITY PREDICTED BY RF-SCORE:    0.00 PKD
ROOT
HETATM    1  C   UNL     1     -12.406  15.553  74.439  1.00  0.00    -0.798 C  
HETATM    2  C   UNL     1     -12.352  16.009  72.984  1.00  0.00    -0.520 C  
ENDROOT
BRANCH   2   3
HETATM    3  N   UNL     1     -12.556  14.951  71.968  1.00  0.00    -0.312 NA 
BRANCH   3   4
HETATM    4  C   UNL     1     -13.748  14.130  72.259  1.00  0.00    -0.526 C  
BRANCH   4   5
HETATM    5  C   UNL     1     -13.538  12.603  72.232  1.00  0.00    -0.508 C  
BRANCH   5   6
HETATM    6  C   UNL     1     -12.653  12.113  71.082  1.00  0.00    -0.360 C  
BRANCH   6   7
HETATM    7  C   UNL     1     -12.364  10.633  71.221  1.00  0.00    -0.488 A  
HETATM    8  C   UNL     1     -11.242  10.065  70.599  1.00  0.00    -0.425 A  
HETATM    9  C   UNL     1     -10.943   8.712  70.781  1.00  0.00    -0.286 A  
HETATM   10  C   UNL     1     -13.180   9.820  72.021  1.00  0.00    -0.557 A  
HETATM   11  C   UNL     1     -11.758   7.916  71.583  1.00  0.00    -0.320 A  
HETATM   12  C   UNL     1     -12.879   8.469  72.201  1.00  0.00    -0.413 A  
ENDBRANCH   6   7
ENDBRANCH   5   6
ENDBRANCH   4   5
ENDBRANCH   3   4
BRANCH   3  13
HETATM   13  C   UNL     1     -12.647  15.555  70.622  1.00  0.00    -0.443 C  
BRANCH  13  14
HETATM   14  C   UNL     1     -11.358  15.508  69.800  1.00  0.00    -0.325 C  
BRANCH  14  15
HETATM   15  C   UNL     1     -11.602  15.673  68.297  1.00  0.00    -0.326 C  
BRANCH  15  16
HETATM   16  C   UNL     1     -11.595  14.308  67.654  1.00  0.00    -0.396 A  
HETATM   17  C   UNL     1     -11.342  11.872  66.305  1.00  0.00    -0.394 A  
HETATM   18  C   UNL     1     -12.153  12.880  65.779  1.00  0.00    -0.513 A  
HETATM   19  C   UNL     1     -10.799  13.285  68.187  1.00  0.00    -0.270 A  
HETATM   20  C   UNL     1     -10.674  12.072  67.509  1.00  0.00    -0.262 A  
HETATM   21  C   UNL     1     -12.283  14.092  66.454  1.00  0.00    -0.492 A  
ENDBRANCH  15  16
ENDBRANCH  14  15
ENDBRANCH  13  14
ENDBRANCH   3  13
ENDBRANCH   2   3
TORSDOF 9
ENDMDL
MODEL        9
REMARK 921   NORMALIZED FREE ENERGY PREDICTED BY IDOCK:   -5.71 KCAL/MOL
REMARK 922        TOTAL FREE ENERGY PREDICTED BY IDOCK:  -10.23 KCAL/MOL
REMARK 923 INTER-LIGAND FREE ENERGY PREDICTED BY IDOCK:   -8.85 KCAL/MOL
REMARK 924 INTRA-LIGAND FREE ENERGY PREDICTED BY IDOCK:   -1.37 KCAL/MOL
REMARK 927      BINDING AFFINITY PREDICTED BY RF-SCORE:    0.00 PKD
ROOT
HETATM    1  C   UNL     1     -10.415  13.730  64.839  1.00  0.00    -0.437 C  
HETATM    2  C   UNL     1      -9.837  13.490  66.229  1.00  0.00    -0.299 C  
ENDROOT
BRANCH   2   3
HETATM    3  N   UNL     1     -10.822  13.388  67.330  1.00  0.00    -0.266 NA 
BRANCH   3   4
HETATM    4  C   UNL     1     -11.780  14.511  67.318  1.00  0.00    -0.406 C  
BRANCH   4   5
HETATM    5  C   UNL     1     -11.519  15.632  68.343  1.00  0.00    -0.374 C  
BRANCH   5   6
HETATM    6  C   UNL     1     -10.850  15.155  69.636  1.00  0.00    -0.297 C  
BRANCH   6   7
HETATM    7  C   UNL     1     -11.826  15.195  70.792  1.00  0.00    -0.371 A  
HETATM    8  C   UNL     1     -11.370  15.394  72.103  1.00  0.00    -0.447 A  
HETATM    9  C   UNL     1     -12.278  15.494  73.160  1.00  0.00    -0.580 A  
HETATM   10  C   UNL     1     -13.206  15.093  70.563  1.00  0.00    -0.268 A  
HETATM   11  C   UNL     1     -13.647  15.397  72.919  1.00  0.00    -0.609 A  
HETATM   12  C   UNL     1     -14.112  15.193  71.620  1.00  0.00    -0.645 A  
ENDBRANCH   6   7
ENDBRANCH   5   6
ENDBRANCH   4   5
ENDBRANCH   3   4
BRANCH   3  13
HETATM   13  C   UNL     1     -11.528  12.091  67.259  1.00  0.00    -0.335 C  
BRANCH  13  14
HETATM   14  C   UNL     1     -11.290  11.156  68.446  1.00  0.00    -0.357 C  
BRANCH  14  15
HETATM   15  C   UNL     1     -11.898  11.681  69.751  1.00  0.00    -0.428 C  
BRANCH  15  16
HETATM   16  C   UNL     1     -11.940  10.554  70.751  1.00  0.00    -0.472 A  
HETATM   17  C   UNL     1     -12.120   8.290  72.381  1.00  0.00    -0.430 A  
HETATM   18  C   UNL     1     -13.206   9.161  72.275  1.00  0.00    -0.528 A  
HETATM   19  C   UNL     1     -10.847   9.686  70.879  1.00  0.00    -0.409 A  
HETATM   20  C   UNL     1     -10.943   8.556  71.691  1.00  0.00    -0.362 A  
HETATM   21  C   UNL     1     -13.114  10.292  71.467  1.00  0.00    -0.534 A  
ENDBRANCH  15  16
ENDBRANCH  14  15
ENDBRANCH  13  14
ENDBRANCH   3  13
ENDBRANCH   2   3
TORSDOF 9
ENDMDL
MODEL       10
REMARK 921   NORMALIZED FREE ENERGY PREDICTED BY IDOCK:   -5.66 KCAL/MOL
REMARK 922        TOTAL FREE ENERGY PREDICTED BY IDOCK:  -10.15 KCAL/MOL
REMARK 923 INTER-LIGAND FREE ENERGY PREDICTED BY IDOCK:   -8.58 KCAL/MOL
REMARK 924 INTRA-LIGAND FREE ENERGY PREDICTED BY IDOCK:   -1.57 KCAL/MOL
REMARK 927      BINDING AFFINITY PREDICTED BY RF-SCORE:    0.00 PKD
ROOT
HETATM    1  C   UNL     1     -10.848  13.080  64.225  1.00  0.00    -0.430 C  
HETATM    2  C   UNL     1     -10.282  13.900  65.380  1.00  0.00    -0.337 C  
ENDROOT
BRANCH   2   3
HETATM    3  N   UNL     1     -10.704  13.482  66.736  1.00  0.00    -0.277 NA 
BRANCH   3   4
HETATM    4  C   UNL     1     -11.890  14.228  67.199  1.00  0.00    -0.425 C  
BRANCH   4   5
HETATM    5  C   UNL     1     -11.629  15.331  68.243  1.00  0.00    -0.357 C  
BRANCH   5   6
HETATM    6  C   UNL     1     -10.934  14.837  69.517  1.00  0.00    -0.287 C  
BRANCH   6   7
HETATM    7  C   UNL     1     -11.867  14.930  70.706  1.00  0.00    -0.368 A  
HETATM    8  C   UNL     1     -12.884  13.982  70.889  1.00  0.00    -0.389 A  
HETATM    9  C   UNL     1     -13.702  14.033  72.020  1.00  0.00    -0.569 A  
HETATM   10  C   UNL     1     -11.690  15.930  71.673  1.00  0.00    -0.563 A  
HETATM   11  C   UNL     1     -13.513  15.028  72.977  1.00  0.00    -0.520 A  
HETATM   12  C   UNL     1     -12.509  15.979  72.803  1.00  0.00    -0.582 A  
ENDBRANCH   6   7
ENDBRANCH   5   6
ENDBRANCH   4   5
ENDBRANCH   3   4
BRANCH   3  13
HETATM   13  C   UNL     1     -10.953  12.025  66.762  1.00  0.00    -0.285 C  
BRANCH  13  14
HETATM   14  C   UNL     1     -11.616  11.502  68.037  1.00  0.00    -0.370 C  
BRANCH  14  15
HETATM   15  C   UNL     1     -10.610  11.196  69.151  1.00  0.00    -0.238 C  
BRANCH  15  16
HETATM   16  C   UNL     1     -11.285  10.335  70.188  1.00  0.00    -0.387 A  
HETATM   17  C   UNL     1     -12.448   8.943  72.316  1.00  0.00    -0.440 A  
HETATM   18  C   UNL     1     -11.135   8.662  71.933  1.00  0.00    -0.416 A  
HETATM   19  C   UNL     1     -12.610  10.598  70.565  1.00  0.00    -0.433 A  
HETATM   20  C   UNL     1     -13.184   9.902  71.630  1.00  0.00    -0.519 A  
HETATM   21  C   UNL     1     -10.558   9.351  70.869  1.00  0.00    -0.390 A  
ENDBRANCH  15  16
ENDBRANCH  14  15
ENDBRANCH  13  14
ENDBRANCH   3  13
ENDBRANCH   2   3
TORSDOF 9
ENDMDL
MODEL       11
REMARK 921   NORMALIZED FREE ENERGY PREDICTED BY IDOCK:   -5.65 KCAL/MOL
REMARK 922        TOTAL FREE ENERGY PREDICTED BY IDOCK:  -10.14 KCAL/MOL
REMARK 923 INTER-LIGAND FREE ENERGY PREDICTED BY IDOCK:   -8.03 KCAL/MOL
REMARK 924 INTRA-LIGAND FREE ENERGY PREDICTED BY IDOCK:   -2.11 KCAL/MOL
REMARK 927      BINDING AFFINITY PREDICTED BY RF-SCORE:    0.00 PKD
ROOT
HETATM    1  C   UNL     1     -10.449  11.260  65.197  1.00  0.00    -0.351 C  
HETATM    2  C   UNL     1     -11.683  12.039  64.753  1.00  0.00    -0.275 C  
ENDROOT
BRANCH   2   3
HETATM    3  N   UNL     1     -12.364  12.825  65.807  1.00  0.00    -0.594 NA 
BRANCH   3   4
HETATM    4  C   UNL     1     -11.678  12.713  67.109  1.00  0.00    -0.371 C  
BRANCH   4   5
HETATM    5  C   UNL     1     -12.085  13.746  68.178  1.00  0.00    -0.316 C  
BRANCH   5   6
HETATM    6  C   UNL     1     -11.188  13.750  69.420  1.00  0.00    -0.259 C  
BRANCH   6   7
HETATM    7  C   UNL     1     -11.914  14.355  70.603  1.00  0.00    -0.393 A  
HETATM    8  C   UNL     1     -13.100  13.780  71.081  1.00  0.00    -0.324 A  
HETATM    9  C   UNL     1     -13.734  14.302  72.211  1.00  0.00    -0.592 A  
HETATM   10  C   UNL     1     -11.379  15.464  71.276  1.00  0.00    -0.441 A  
HETATM   11  C   UNL     1     -13.190  15.400  72.874  1.00  0.00    -0.622 A  
HETATM   12  C   UNL     1     -12.013  15.984  72.405  1.00  0.00    -0.644 A  
ENDBRANCH   6   7
ENDBRANCH   5   6
ENDBRANCH   4   5
ENDBRANCH   3   4
BRANCH   3  13
HETATM   13  C   UNL     1     -12.476  14.240  65.390  1.00  0.00    -0.425 C  
BRANCH  13  14
HETATM   14  C   UNL     1     -11.283  14.780  64.599  1.00  0.00    -0.350 C  
BRANCH  14  15
HETATM   15  C   UNL     1     -11.011  16.263  64.868  1.00  0.00    -0.321 C  
BRANCH  15  16
HETATM   16  C   UNL     1     -10.161  16.380  66.108  1.00  0.00    -0.364 A  
HETATM   17  C   UNL     1      -8.766  16.389  68.532  1.00  0.00    -0.223 A  
HETATM   18  C   UNL     1      -9.821  17.283  68.330  1.00  0.00    -0.304 A  
HETATM   19  C   UNL     1      -9.089  15.500  66.310  1.00  0.00    -0.369 A  
HETATM   20  C   UNL     1      -8.398  15.507  67.522  1.00  0.00    -0.190 A  
HETATM   21  C   UNL     1     -10.511  17.282  67.120  1.00  0.00    -0.297 A  
ENDBRANCH  15  16
ENDBRANCH  14  15
ENDBRANCH  13  14
ENDBRANCH   3  13
ENDBRANCH   2   3
TORSDOF 9
ENDMDL
MODEL       12
REMARK 921   NORMALIZED FREE ENERGY PREDICTED BY IDOCK:   -5.63 KCAL/MOL
REMARK 922        TOTAL FREE ENERGY PREDICTED BY IDOCK:  -10.11 KCAL/MOL
REMARK 923 INTER-LIGAND FREE ENERGY PREDICTED BY IDOCK:   -7.84 KCAL/MOL
REMARK 924 INTRA-LIGAND FREE ENERGY PREDICTED BY IDOCK:   -2.27 KCAL/MOL
REMARK 927      BINDING AFFINITY PREDICTED BY RF-SCORE:    0.00 PKD
ROOT
HETATM    1  C   UNL     1      -9.577  19.912  67.388  1.00  0.00    -0.499 C  
HETATM    2  C   UNL     1     -10.718  18.942  67.678  1.00  0.00    -0.394 C  
ENDROOT
BRANCH   2   3
HETATM    3  N   UNL     1     -10.387  17.503  67.558  1.00  0.00    -0.344 NA 
BRANCH   3   4
HETATM    4  C   UNL     1      -9.608  17.215  66.338  1.00  0.00    -0.278 C  
BRANCH   4   5
HETATM    5  C   UNL     1      -9.355  15.725  66.035  1.00  0.00    -0.384 C  
BRANCH   5   6
HETATM    6  C   UNL     1     -10.629  14.912  65.781  1.00  0.00    -0.342 C  
BRANCH   6   7
HETATM    7  C   UNL     1     -10.622  13.636  66.596  1.00  0.00    -0.277 A  
HETATM    8  C   UNL     1     -11.754  12.810  66.634  1.00  0.00    -0.459 A  
HETATM    9  C   UNL     1     -11.725  11.602  67.335  1.00  0.00    -0.278 A  
HETATM   10  C   UNL     1      -9.465  13.232  67.278  1.00  0.00    -0.233 A  
HETATM   11  C   UNL     1     -10.567  11.208  68.004  1.00  0.00    -0.233 A  
HETATM   12  C   UNL     1      -9.437  12.025  67.978  1.00  0.00    -0.199 A  
ENDBRANCH   6   7
ENDBRANCH   5   6
ENDBRANCH   4   5
ENDBRANCH   3   4
BRANCH   3  13
HETATM   13  C   UNL     1      -9.665  17.048  68.766  1.00  0.00    -0.273 C  
BRANCH  13  14
HETATM   14  C   UNL     1     -10.394  15.994  69.600  1.00  0.00    -0.283 C  
BRANCH  14  15
HETATM   15  C   UNL     1     -11.856  15.808  69.183  1.00  0.00    -0.367 C  
BRANCH  15  16
HETATM   16  C   UNL     1     -12.533  14.906  70.184  1.00  0.00    -0.353 A  
HETATM   17  C   UNL     1     -13.564  13.306  72.232  1.00  0.00    -0.703 A  
HETATM   18  C   UNL     1     -12.674  12.763  71.303  1.00  0.00    -0.364 A  
HETATM   19  C   UNL     1     -13.442  15.440  71.108  1.00  0.00    -0.565 A  
HETATM   20  C   UNL     1     -13.952  14.638  72.130  1.00  0.00    -0.591 A  
HETATM   21  C   UNL     1     -12.165  13.559  70.280  1.00  0.00    -0.417 A  
ENDBRANCH  15  16
ENDBRANCH  14  15
ENDBRANCH  13  14
ENDBRANCH   3  13
ENDBRANCH   2   3
TORSDOF 9
ENDMDL
MODEL       13
REMARK 921   NORMALIZED FREE ENERGY PREDICTED BY IDOCK:   -5.61 KCAL/MOL
REMARK 922        TOTAL FREE ENERGY PREDICTED BY IDOCK:  -10.08 KCAL/MOL
REMARK 923 INTER-LIGAND FREE ENERGY PREDICTED BY IDOCK:   -8.85 KCAL/MOL
REMARK 924 INTRA-LIGAND FREE ENERGY PREDICTED BY IDOCK:   -1.23 KCAL/MOL
REMARK 927      BINDING AFFINITY PREDICTED BY RF-SCORE:    0.00 PKD
ROOT
HETATM    1  C   UNL     1     -12.638  15.980  73.736  1.00  0.00    -0.724 C  
HETATM    2  C   UNL     1     -11.834  15.429  72.563  1.00  0.00    -0.462 C  
ENDROOT
BRANCH   2   3
HETATM    3  N   UNL     1     -12.330  15.787  71.215  1.00  0.00    -0.420 NA 
BRANCH   3   4
HETATM    4  C   UNL     1     -11.231  16.171  70.307  1.00  0.00    -0.381 C  
BRANCH   4   5
HETATM    5  C   UNL     1     -11.466  15.895  68.809  1.00  0.00    -0.393 C  
BRANCH   5   6
HETATM    6  C   UNL     1     -10.404  14.999  68.162  1.00  0.00    -0.239 C  
BRANCH   6   7
HETATM    7  C   UNL     1     -10.902  14.443  66.844  1.00  0.00    -0.301 A  
HETATM    8  C   UNL     1     -10.003  14.166  65.804  1.00  0.00    -0.331 A  
HETATM    9  C   UNL     1     -10.455  13.594  64.613  1.00  0.00    -0.442 A  
HETATM   10  C   UNL     1     -12.260  14.143  66.665  1.00  0.00    -0.450 A  
HETATM   11  C   UNL     1     -11.806  13.295  64.449  1.00  0.00    -0.448 A  
HETATM   12  C   UNL     1     -12.710  13.572  65.474  1.00  0.00    -0.493 A  
ENDBRANCH   6   7
ENDBRANCH   5   6
ENDBRANCH   4   5
ENDBRANCH   3   4
BRANCH   3  13
HETATM   13  C   UNL     1     -13.115  14.669  70.651  1.00  0.00    -0.271 C  
BRANCH  13  14
HETATM   14  C   UNL     1     -12.828  13.299  71.267  1.00  0.00    -0.398 C  
BRANCH  14  15
HETATM   15  C   UNL     1     -12.127  12.342  70.297  1.00  0.00    -0.377 C  
BRANCH  15  16
HETATM   16  C   UNL     1     -12.158  10.953  70.883  1.00  0.00    -0.455 A  
HETATM   17  C   UNL     1     -12.079   8.494  72.212  1.00  0.00    -0.455 A  
HETATM   18  C   UNL     1     -11.028   8.867  71.372  1.00  0.00    -0.380 A  
HETATM   19  C   UNL     1     -13.219  10.564  71.712  1.00  0.00    -0.522 A  
HETATM   20  C   UNL     1     -13.173   9.337  72.376  1.00  0.00    -0.501 A  
HETATM   21  C   UNL     1     -11.071  10.089  70.705  1.00  0.00    -0.408 A  
ENDBRANCH  15  16
ENDBRANCH  14  15
ENDBRANCH  13  14
ENDBRANCH   3  13
ENDBRANCH   2   3
TORSDOF 9
ENDMDL
MODEL       14
REMARK 921   NORMALIZED FREE ENERGY PREDICTED BY IDOCK:   -5.58 KCAL/MOL
REMARK 922        TOTAL FREE ENERGY PREDICTED BY IDOCK:  -10.03 KCAL/MOL
REMARK 923 INTER-LIGAND FREE ENERGY PREDICTED BY IDOCK:   -8.17 KCAL/MOL
REMARK 924 INTRA-LIGAND FREE ENERGY PREDICTED BY IDOCK:   -1.86 KCAL/MOL
REMARK 927      BINDING AFFINITY PREDICTED BY RF-SCORE:    0.00 PKD
ROOT
HETATM    1  C   UNL     1     -12.354  12.057  63.554  1.00  0.00    -0.661 C  
HETATM    2  C   UNL     1     -11.019  12.717  63.881  1.00  0.00    -0.424 C  
ENDROOT
BRANCH   2   3
HETATM    3  N   UNL     1     -10.928  13.366  65.209  1.00  0.00    -0.288 NA 
BRANCH   3   4
HETATM    4  C   UNL     1     -11.708  14.618  65.266  1.00  0.00    -0.346 C  
BRANCH   4   5
HETATM    5  C   UNL     1     -10.908  15.921  65.074  1.00  0.00    -0.444 C  
BRANCH   5   6
HETATM    6  C   UNL     1      -9.625  15.997  65.908  1.00  0.00    -0.370 C  
BRANCH   6   7
HETATM    7  C   UNL     1      -9.629  17.232  66.785  1.00  0.00    -0.279 A  
HETATM    8  C   UNL     1     -10.608  18.221  66.618  1.00  0.00    -0.324 A  
HETATM    9  C   UNL     1     -10.647  19.328  67.469  1.00  0.00    -0.581 A  
HETATM   10  C   UNL     1      -8.688  17.376  67.816  1.00  0.00    -0.232 A  
HETATM   11  C   UNL     1      -9.711  19.457  68.493  1.00  0.00    -0.497 A  
HETATM   12  C   UNL     1      -8.729  18.483  68.666  1.00  0.00    -0.325 A  
ENDBRANCH   6   7
ENDBRANCH   5   6
ENDBRANCH   4   5
ENDBRANCH   3   4
BRANCH   3  13
HETATM   13  C   UNL     1     -11.362  12.425  66.263  1.00  0.00    -0.340 C  
BRANCH  13  14
HETATM   14  C   UNL     1     -10.763  12.679  67.648  1.00  0.00    -0.239 C  
BRANCH  14  15
HETATM   15  C   UNL     1     -11.749  12.398  68.785  1.00  0.00    -0.379 C  
BRANCH  15  16
HETATM   16  C   UNL     1     -11.860  13.632  69.645  1.00  0.00    -0.396 A  
HETATM   17  C   UNL     1     -11.794  15.846  71.351  1.00  0.00    -0.524 A  
HETATM   18  C   UNL     1     -12.373  14.650  71.782  1.00  0.00    -0.415 A  
HETATM   19  C   UNL     1     -11.299  14.842  69.212  1.00  0.00    -0.317 A  
HETATM   20  C   UNL     1     -11.266  15.943  70.068  1.00  0.00    -0.354 A  
HETATM   21  C   UNL     1     -12.411  13.549  70.929  1.00  0.00    -0.437 A  
ENDBRANCH  15  16
ENDBRANCH  14  15
ENDBRANCH  13  14
ENDBRANCH   3  13
ENDBRANCH   2   3
TORSDOF 9
ENDMDL
MODEL       15
REMARK 921   NORMALIZED FREE ENERGY PREDICTED BY IDOCK:   -5.57 KCAL/MOL
REMARK 922        TOTAL FREE ENERGY PREDICTED BY IDOCK:  -10.01 KCAL/MOL
REMARK 923 INTER-LIGAND FREE ENERGY PREDICTED BY IDOCK:   -8.40 KCAL/MOL
REMARK 924 INTRA-LIGAND FREE ENERGY PREDICTED BY IDOCK:   -1.62 KCAL/MOL
REMARK 927      BINDING AFFINITY PREDICTED BY RF-SCORE:    0.00 PKD
ROOT
HETATM    1  C   UNL     1     -10.428  12.070  63.406  1.00  0.00    -0.474 C  
HETATM    2  C   UNL     1     -11.790  12.700  63.675  1.00  0.00    -0.530 C  
ENDROOT
BRANCH   2   3
HETATM    3  N   UNL     1     -11.835  13.702  64.765  1.00  0.00    -0.369 NA 
BRANCH   3   4
HETATM    4  C   UNL     1     -12.394  13.138  66.009  1.00  0.00    -0.359 C  
BRANCH   4   5
HETATM    5  C   UNL     1     -11.367  12.643  67.046  1.00  0.00    -0.377 C  
BRANCH   5   6
HETATM    6  C   UNL     1     -11.966  12.336  68.423  1.00  0.00    -0.266 C  
BRANCH   6   7
HETATM    7  C   UNL     1     -11.901  13.555  69.320  1.00  0.00    -0.392 A  
HETATM    8  C   UNL     1     -12.365  13.492  70.641  1.00  0.00    -0.432 A  
HETATM    9  C   UNL     1     -12.247  14.598  71.486  1.00  0.00    -0.416 A  
HETATM   10  C   UNL     1     -11.324  14.748  68.860  1.00  0.00    -0.302 A  
HETATM   11  C   UNL     1     -11.666  15.776  71.020  1.00  0.00    -0.462 A  
HETATM   12  C   UNL     1     -11.206  15.852  69.706  1.00  0.00    -0.339 A  
ENDBRANCH   6   7
ENDBRANCH   5   6
ENDBRANCH   4   5
ENDBRANCH   3   4
BRANCH   3  13
HETATM   13  C   UNL     1     -10.484  14.258  64.997  1.00  0.00    -0.435 C  
BRANCH  13  14
HETATM   14  C   UNL     1     -10.443  15.753  65.315  1.00  0.00    -0.427 C  
BRANCH  14  15
HETATM   15  C   UNL     1      -9.142  16.181  66.001  1.00  0.00    -0.354 C  
BRANCH  15  16
HETATM   16  C   UNL     1      -9.367  17.512  66.675  1.00  0.00    -0.275 A  
HETATM   17  C   UNL     1      -9.968  19.831  68.115  1.00  0.00    -0.557 A  
HETATM   18  C   UNL     1     -10.742  19.477  67.008  1.00  0.00    -0.592 A  
HETATM   19  C   UNL     1      -8.582  17.884  67.774  1.00  0.00    -0.242 A  
HETATM   20  C   UNL     1      -8.887  19.041  68.492  1.00  0.00    -0.398 A  
HETATM   21  C   UNL     1     -10.439  18.325  66.287  1.00  0.00    -0.397 A  
ENDBRANCH  15  16
ENDBRANCH  14  15
ENDBRANCH  13  14
ENDBRANCH   3  13
ENDBRANCH   2   3
TORSDOF 9
ENDMDL
MODEL       16
REMARK 921   NORMALIZED FREE ENERGY PREDICTED BY IDOCK:   -5.54 KCAL/MOL
REMARK 922        TOTAL FREE ENERGY PREDICTED BY IDOCK:   -9.97 KCAL/MOL
REMARK 923 INTER-LIGAND FREE ENERGY PREDICTED BY IDOCK:   -8.51 KCAL/MOL
REMARK 924 INTRA-LIGAND FREE ENERGY PREDICTED BY IDOCK:   -1.47 KCAL/MOL
REMARK 927      BINDING AFFINITY PREDICTED BY RF-SCORE:    0.00 PKD
ROOT
HETATM    1  C   UNL     1     -12.498  15.794  74.284  1.00  0.00    -0.800 C  
HETATM    2  C   UNL     1     -12.200  15.246  72.892  1.00  0.00    -0.408 C  
ENDROOT
BRANCH   2   3
HETATM    3  N   UNL     1     -13.308  15.331  71.913  1.00  0.00    -0.393 NA 
BRANCH   3   4
HETATM    4  C   UNL     1     -12.816  15.573  70.543  1.00  0.00    -0.353 C  
BRANCH   4   5
HETATM    5  C   UNL     1     -11.286  15.655  70.380  1.00  0.00    -0.374 C  
BRANCH   5   6
HETATM    6  C   UNL     1     -10.817  15.798  68.928  1.00  0.00    -0.260 C  
BRANCH   6   7
HETATM    7  C   UNL     1     -11.183  14.568  68.123  1.00  0.00    -0.301 A  
HETATM    8  C   UNL     1     -12.000  14.677  66.989  1.00  0.00    -0.301 A  
HETATM    9  C   UNL     1     -12.284  13.552  66.212  1.00  0.00    -0.468 A  
HETATM   10  C   UNL     1     -10.662  13.312  68.466  1.00  0.00    -0.280 A  
HETATM   11  C   UNL     1     -11.756  12.310  66.559  1.00  0.00    -0.420 A  
HETATM   12  C   UNL     1     -10.947  12.189  67.688  1.00  0.00    -0.289 A  
ENDBRANCH   6   7
ENDBRANCH   5   6
ENDBRANCH   4   5
ENDBRANCH   3   4
BRANCH   3  13
HETATM   13  C   UNL     1     -14.128  14.102  71.970  1.00  0.00    -0.528 C  
BRANCH  13  14
HETATM   14  C   UNL     1     -13.348  12.811  72.219  1.00  0.00    -0.563 C  
BRANCH  14  15
HETATM   15  C   UNL     1     -12.851  12.155  70.927  1.00  0.00    -0.190 C  
BRANCH  15  16
HETATM   16  C   UNL     1     -12.523  10.711  71.213  1.00  0.00    -0.515 A  
HETATM   17  C   UNL     1     -11.793   8.131  72.005  1.00  0.00    -0.392 A  
HETATM   18  C   UNL     1     -10.915   8.900  71.238  1.00  0.00    -0.363 A  
HETATM   19  C   UNL     1     -13.407   9.926  71.966  1.00  0.00    -0.532 A  
HETATM   20  C   UNL     1     -13.037   8.640  72.361  1.00  0.00    -0.396 A  
HETATM   21  C   UNL     1     -11.282  10.183  70.839  1.00  0.00    -0.383 A  
ENDBRANCH  15  16
ENDBRANCH  14  15
ENDBRANCH  13  14
ENDBRANCH   3  13
ENDBRANCH   2   3
TORSDOF 9
ENDMDL
MODEL       17
REMARK 921   NORMALIZED FREE ENERGY PREDICTED BY IDOCK:   -5.54 KCAL/MOL
REMARK 922        TOTAL FREE ENERGY PREDICTED BY IDOCK:   -9.97 KCAL/MOL
REMARK 923 INTER-LIGAND FREE ENERGY PREDICTED BY IDOCK:   -7.95 KCAL/MOL
REMARK 924 INTRA-LIGAND FREE ENERGY PREDICTED BY IDOCK:   -2.02 KCAL/MOL
REMARK 927      BINDING AFFINITY PREDICTED BY RF-SCORE:    0.00 PKD
ROOT
HETATM    1  C   UNL     1     -10.943   7.541  72.794  1.00  0.00    -0.410 C  
HETATM    2  C   UNL     1     -10.029   8.576  72.147  1.00  0.00    -0.317 C  
ENDROOT
BRANCH   2   3
HETATM    3  N   UNL     1     -10.669   9.477  71.161  1.00  0.00    -0.338 NA 
BRANCH   3   4
HETATM    4  C   UNL     1     -10.111   9.297  69.806  1.00  0.00    -0.204 C  
BRANCH   4   5
HETATM    5  C   UNL     1      -9.864  10.588  69.001  1.00  0.00    -0.224 C  
BRANCH   5   6
HETATM    6  C   UNL     1     -10.793  10.762  67.796  1.00  0.00    -0.320 C  
BRANCH   6   7
HETATM    7  C   UNL     1     -10.822  12.208  67.346  1.00  0.00    -0.286 A  
HETATM    8  C   UNL     1     -11.936  12.720  66.666  1.00  0.00    -0.411 A  
HETATM    9  C   UNL     1     -11.988  14.069  66.308  1.00  0.00    -0.454 A  
HETATM   10  C   UNL     1      -9.760  13.071  67.654  1.00  0.00    -0.212 A  
HETATM   11  C   UNL     1     -10.929  14.918  66.624  1.00  0.00    -0.325 A  
HETATM   12  C   UNL     1      -9.813  14.419  67.295  1.00  0.00    -0.247 A  
ENDBRANCH   6   7
ENDBRANCH   5   6
ENDBRANCH   4   5
ENDBRANCH   3   4
BRANCH   3  13
HETATM   13  C   UNL     1     -12.132   9.269  71.161  1.00  0.00    -0.316 C  
BRANCH  13  14
HETATM   14  C   UNL     1     -12.965  10.510  70.837  1.00  0.00    -0.455 C  
BRANCH  14  15
HETATM   15  C   UNL     1     -13.162  11.429  72.047  1.00  0.00    -0.432 C  
BRANCH  15  16
HETATM   16  C   UNL     1     -13.143  12.860  71.574  1.00  0.00    -0.390 A  
HETATM   17  C   UNL     1     -12.886  15.562  70.899  1.00  0.00    -0.535 A  
HETATM   18  C   UNL     1     -13.795  15.172  71.885  1.00  0.00    -0.607 A  
HETATM   19  C   UNL     1     -12.247  13.256  70.571  1.00  0.00    -0.416 A  
HETATM   20  C   UNL     1     -12.121  14.606  70.239  1.00  0.00    -0.380 A  
HETATM   21  C   UNL     1     -13.927  13.826  72.217  1.00  0.00    -0.672 A  
ENDBRANCH  15  16
ENDBRANCH  14  15
ENDBRANCH  13  14
ENDBRANCH   3  13
ENDBRANCH   2   3
TORSDOF 9
ENDMDL
MODEL       18
REMARK 921   NORMALIZED FREE ENERGY PREDICTED BY IDOCK:   -5.52 KCAL/MOL
REMARK 922        TOTAL FREE ENERGY PREDICTED BY IDOCK:   -9.94 KCAL/MOL
REMARK 923 INTER-LIGAND FREE ENERGY PREDICTED BY IDOCK:   -8.36 KCAL/MOL
REMARK 924 INTRA-LIGAND FREE ENERGY PREDICTED BY IDOCK:   -1.58 KCAL/MOL
REMARK 927      BINDING AFFINITY PREDICTED BY RF-SCORE:    0.00 PKD
ROOT
HETATM    1  C   UNL     1     -10.615  12.026  63.535  1.00  0.00    -0.514 C  
HETATM    2  C   UNL     1     -11.912  12.818  63.661  1.00  0.00    -0.539 C  
ENDROOT
BRANCH   2   3
HETATM    3  N   UNL     1     -11.955  13.816  64.754  1.00  0.00    -0.384 NA 
BRANCH   3   4
HETATM    4  C   UNL     1     -12.404  13.221  66.028  1.00  0.00    -0.386 C  
BRANCH   4   5
HETATM    5  C   UNL     1     -11.292  12.684  66.950  1.00  0.00    -0.373 C  
BRANCH   5   6
HETATM    6  C   UNL     1     -11.729  12.479  68.404  1.00  0.00    -0.375 C  
BRANCH   6   7
HETATM    7  C   UNL     1     -11.557  13.756  69.201  1.00  0.00    -0.363 A  
HETATM    8  C   UNL     1     -10.368  14.493  69.115  1.00  0.00    -0.197 A  
HETATM    9  C   UNL     1     -10.235  15.703  69.801  1.00  0.00    -0.303 A  
HETATM   10  C   UNL     1     -12.606  14.250  69.990  1.00  0.00    -0.277 A  
HETATM   11  C   UNL     1     -11.286  16.187  70.577  1.00  0.00    -0.392 A  
HETATM   12  C   UNL     1     -12.471  15.459  70.674  1.00  0.00    -0.478 A  
ENDBRANCH   6   7
ENDBRANCH   5   6
ENDBRANCH   4   5
ENDBRANCH   3   4
BRANCH   3  13
HETATM   13  C   UNL     1     -10.631  14.455  64.908  1.00  0.00    -0.434 C  
BRANCH  13  14
HETATM   14  C   UNL     1     -10.660  15.896  65.420  1.00  0.00    -0.439 C  
BRANCH  14  15
HETATM   15  C   UNL     1      -9.372  16.299  66.144  1.00  0.00    -0.374 C  
BRANCH  15  16
HETATM   16  C   UNL     1      -9.513  17.722  66.624  1.00  0.00    -0.299 A  
HETATM   17  C   UNL     1      -9.577  20.435  67.297  1.00  0.00    -0.592 A  
HETATM   18  C   UNL     1      -8.661  19.583  67.918  1.00  0.00    -0.357 A  
HETATM   19  C   UNL     1     -10.444  18.578  66.020  1.00  0.00    -0.433 A  
HETATM   20  C   UNL     1     -10.470  19.932  66.357  1.00  0.00    -0.589 A  
HETATM   21  C   UNL     1      -8.633  18.231  67.587  1.00  0.00    -0.261 A  
ENDBRANCH  15  16
ENDBRANCH  14  15
ENDBRANCH  13  14
ENDBRANCH   3  13
ENDBRANCH   2   3
TORSDOF 9
ENDMDL
MODEL       19
REMARK 921   NORMALIZED FREE ENERGY PREDICTED BY IDOCK:   -5.49 KCAL/MOL
REMARK 922        TOTAL FREE ENERGY PREDICTED BY IDOCK:   -9.89 KCAL/MOL
REMARK 923 INTER-LIGAND FREE ENERGY PREDICTED BY IDOCK:   -6.83 KCAL/MOL
REMARK 924 INTRA-LIGAND FREE ENERGY PREDICTED BY IDOCK:   -3.06 KCAL/MOL
REMARK 927      BINDING AFFINITY PREDICTED BY RF-SCORE:    0.00 PKD
ROOT
HETATM    1  C   UNL     1     -13.731  15.354  72.643  1.00  0.00    -0.640 C  
HETATM    2  C   UNL     1     -13.897  13.938  72.100  1.00  0.00    -0.541 C  
ENDROOT
BRANCH   2   3
HETATM    3  N   UNL     1     -13.050  13.590  70.936  1.00  0.00    -0.143 NA 
BRANCH   3   4
HETATM    4  C   UNL     1     -11.826  14.413  70.878  1.00  0.00    -0.283 C  
BRANCH   4   5
HETATM    5  C   UNL     1     -11.650  15.272  69.611  1.00  0.00    -0.340 C  
BRANCH   5   6
HETATM    6  C   UNL     1     -10.505  14.818  68.700  1.00  0.00    -0.250 C  
BRANCH   6   7
HETATM    7  C   UNL     1     -10.983  14.674  67.270  1.00  0.00    -0.317 A  
HETATM    8  C   UNL     1     -10.155  15.049  66.202  1.00  0.00    -0.312 A  
HETATM    9  C   UNL     1     -10.573  14.856  64.883  1.00  0.00    -0.417 A  
HETATM   10  C   UNL     1     -12.236  14.109  66.991  1.00  0.00    -0.374 A  
HETATM   11  C   UNL     1     -11.818  14.288  64.618  1.00  0.00    -0.459 A  
HETATM   12  C   UNL     1     -12.651  13.917  65.672  1.00  0.00    -0.553 A  
ENDBRANCH   6   7
ENDBRANCH   5   6
ENDBRANCH   4   5
ENDBRANCH   3   4
BRANCH   3  13
HETATM   13  C   UNL     1     -12.717  12.150  70.966  1.00  0.00    -0.228 C  
BRANCH  13  14
HETATM   14  C   UNL     1     -12.259  11.560  69.631  1.00  0.00    -0.296 C  
BRANCH  14  15
HETATM   15  C   UNL     1     -10.913  10.837  69.728  1.00  0.00    -0.314 C  
BRANCH  15  16
HETATM   16  C   UNL     1     -10.181  11.002  68.420  1.00  0.00    -0.198 A  
HETATM   17  C   UNL     1      -8.942  11.587  65.983  1.00  0.00    -0.181 A  
HETATM   18  C   UNL     1     -10.207  10.998  65.998  1.00  0.00    -0.305 A  
HETATM   19  C   UNL     1      -8.902  11.575  68.397  1.00  0.00    -0.163 A  
HETATM   20  C   UNL     1      -8.289  11.868  67.178  1.00  0.00    -0.174 A  
HETATM   21  C   UNL     1     -10.822  10.701  67.212  1.00  0.00    -0.345 A  
ENDBRANCH  15  16
ENDBRANCH  14  15
ENDBRANCH  13  14
ENDBRANCH   3  13
ENDBRANCH   2   3
TORSDOF 9
ENDMDL
MODEL       20
REMARK 921   NORMALIZED FREE ENERGY PREDICTED BY IDOCK:   -5.42 KCAL/MOL
REMARK 922        TOTAL FREE ENERGY PREDICTED BY IDOCK:   -9.79 KCAL/MOL
REMARK 923 INTER-LIGAND FREE ENERGY PREDICTED BY IDOCK:   -8.10 KCAL/MOL
REMARK 924 INTRA-LIGAND FREE ENERGY PREDICTED BY IDOCK:   -1.69 KCAL/MOL
REMARK 927      BINDING AFFINITY PREDICTED BY RF-SCORE:    0.00 PKD
ROOT
HETATM    1  C   UNL     1     -13.699  13.898  72.415  1.00  0.00    -0.678 C  
HETATM    2  C   UNL     1     -13.237  15.045  71.523  1.00  0.00    -0.402 C  
ENDROOT
BRANCH   2   3
HETATM    3  N   UNL     1     -11.996  14.805  70.752  1.00  0.00    -0.291 NA 
BRANCH   3   4
HETATM    4  C   UNL     1     -12.272  14.184  69.442  1.00  0.00    -0.287 C  
BRANCH   4   5
HETATM    5  C   UNL     1     -11.607  12.816  69.191  1.00  0.00    -0.373 C  
BRANCH   5   6
HETATM    6  C   UNL     1     -11.852  12.248  67.789  1.00  0.00    -0.341 C  
BRANCH   6   7
HETATM    7  C   UNL     1     -11.448  13.249  66.727  1.00  0.00    -0.387 A  
HETATM    8  C   UNL     1     -12.375  13.684  65.768  1.00  0.00    -0.524 A  
HETATM    9  C   UNL     1     -12.019  14.654  64.829  1.00  0.00    -0.439 A  
HETATM   10  C   UNL     1     -10.158  13.801  66.721  1.00  0.00    -0.265 A  
HETATM   11  C   UNL     1     -10.736  15.198  64.837  1.00  0.00    -0.421 A  
HETATM   12  C   UNL     1      -9.804  14.770  65.781  1.00  0.00    -0.373 A  
ENDBRANCH   6   7
ENDBRANCH   5   6
ENDBRANCH   4   5
ENDBRANCH   3   4
BRANCH   3  13
HETATM   13  C   UNL     1     -11.249  16.071  70.589  1.00  0.00    -0.372 C  
BRANCH  13  14
HETATM   14  C   UNL     1     -11.008  16.501  69.141  1.00  0.00    -0.303 C  
BRANCH  14  15
HETATM   15  C   UNL     1      -9.559  16.925  68.878  1.00  0.00    -0.251 C  
BRANCH  15  16
HETATM   16  C   UNL     1      -9.566  18.130  67.972  1.00  0.00    -0.304 A  
HETATM   17  C   UNL     1      -9.413  20.200  66.098  1.00  0.00    -0.403 A  
HETATM   18  C   UNL     1      -8.452  20.099  67.107  1.00  0.00    -0.403 A  
HETATM   19  C   UNL     1     -10.538  18.249  66.968  1.00  0.00    -0.375 A  
HETATM   20  C   UNL     1     -10.455  19.281  66.034  1.00  0.00    -0.573 A  
HETATM   21  C   UNL     1      -8.533  19.072  68.044  1.00  0.00    -0.336 A  
ENDBRANCH  15  16
ENDBRANCH  14  15
ENDBRANCH  13  14
ENDBRANCH   3  13
ENDBRANCH   2   3
TORSDOF 9
ENDMDL
MODEL       21
REMARK 921   NORMALIZED FREE ENERGY PREDICTED BY IDOCK:   -5.42 KCAL/MOL
REMARK 922        TOTAL FREE ENERGY PREDICTED BY IDOCK:   -9.78 KCAL/MOL
REMARK 923 INTER-LIGAND FREE ENERGY PREDICTED BY IDOCK:   -8.89 KCAL/MOL
REMARK 924 INTRA-LIGAND FREE ENERGY PREDICTED BY IDOCK:   -0.89 KCAL/MOL
REMARK 927      BINDING AFFINITY PREDICTED BY RF-SCORE:    0.00 PKD
ROOT
HETATM    1  C   UNL     1     -10.115  19.948  66.257  1.00  0.00    -0.613 C  
HETATM    2  C   UNL     1     -10.386  19.169  67.539  1.00  0.00    -0.432 C  
ENDROOT
BRANCH   2   3
HETATM    3  N   UNL     1     -10.431  17.695  67.403  1.00  0.00    -0.362 NA 
BRANCH   3   4
HETATM    4  C   UNL     1      -9.219  17.165  66.747  1.00  0.00    -0.254 C  
BRANCH   4   5
HETATM    5  C   UNL     1      -9.427  15.940  65.835  1.00  0.00    -0.372 C  
BRANCH   5   6
HETATM    6  C   UNL     1     -10.854  15.793  65.298  1.00  0.00    -0.409 C  
BRANCH   6   7
HETATM    7  C   UNL     1     -11.107  14.377  64.825  1.00  0.00    -0.402 A  
HETATM    8  C   UNL     1     -10.355  13.310  65.339  1.00  0.00    -0.316 A  
HETATM    9  C   UNL     1     -10.632  11.998  64.950  1.00  0.00    -0.334 A  
HETATM   10  C   UNL     1     -12.134  14.103  63.911  1.00  0.00    -0.301 A  
HETATM   11  C   UNL     1     -11.660  11.738  64.045  1.00  0.00    -0.428 A  
HETATM   12  C   UNL     1     -12.410  12.791  63.523  1.00  0.00    -0.559 A  
ENDBRANCH   6   7
ENDBRANCH   5   6
ENDBRANCH   4   5
ENDBRANCH   3   4
BRANCH   3  13
HETATM   13  C   UNL     1     -10.630  17.070  68.728  1.00  0.00    -0.346 C  
BRANCH  13  14
HETATM   14  C   UNL     1     -11.487  15.803  68.726  1.00  0.00    -0.391 C  
BRANCH  14  15
HETATM   15  C   UNL     1     -10.973  14.734  69.695  1.00  0.00    -0.285 C  
BRANCH  15  16
HETATM   16  C   UNL     1     -11.787  14.799  70.962  1.00  0.00    -0.383 A  
HETATM   17  C   UNL     1     -13.510  15.061  73.149  1.00  0.00    -0.429 A  
HETATM   18  C   UNL     1     -12.566  16.054  72.882  1.00  0.00    -0.577 A  
HETATM   19  C   UNL     1     -12.724  13.796  71.248  1.00  0.00    -0.450 A  
HETATM   20  C   UNL     1     -13.584  13.933  72.338  1.00  0.00    -0.676 A  
HETATM   21  C   UNL     1     -11.704  15.921  71.796  1.00  0.00    -0.575 A  
ENDBRANCH  15  16
ENDBRANCH  14  15
ENDBRANCH  13  14
ENDBRANCH   3  13
ENDBRANCH   2   3
TORSDOF 9
ENDMDL
MODEL       22
REMARK 921   NORMALIZED FREE ENERGY PREDICTED BY IDOCK:   -5.40 KCAL/MOL
REMARK 922        TOTAL FREE ENERGY PREDICTED BY IDOCK:   -9.75 KCAL/MOL
REMARK 923 INTER-LIGAND FREE ENERGY PREDICTED BY IDOCK:   -8.50 KCAL/MOL
REMARK 924 INTRA-LIGAND FREE ENERGY PREDICTED BY IDOCK:   -1.25 KCAL/MOL
REMARK 927      BINDING AFFINITY PREDICTED BY RF-SCORE:    0.00 PKD
ROOT
HETATM    1  C   UNL     1      -9.966   8.485  72.440  1.00  0.00    -0.365 C  
HETATM    2  C   UNL     1      -9.332   9.041  71.170  1.00  0.00    -0.266 C  
ENDROOT
BRANCH   2   3
HETATM    3  N   UNL     1     -10.275   9.535  70.140  1.00  0.00    -0.228 NA 
BRANCH   3   4
HETATM    4  C   UNL     1     -10.035   8.907  68.826  1.00  0.00    -0.184 C  
BRANCH   4   5
HETATM    5  C   UNL     1     -10.742   9.565  67.625  1.00  0.00    -0.314 C  
BRANCH   5   6
HETATM    6  C   UNL     1     -10.073  10.853  67.132  1.00  0.00    -0.235 C  
BRANCH   6   7
HETATM    7  C   UNL     1     -10.865  11.468  65.998  1.00  0.00    -0.330 A  
HETATM    8  C   UNL     1     -11.846  12.436  66.257  1.00  0.00    -0.431 A  
HETATM    9  C   UNL     1     -12.531  13.049  65.205  1.00  0.00    -0.555 A  
HETATM   10  C   UNL     1     -10.589  11.122  64.667  1.00  0.00    -0.386 A  
HETATM   11  C   UNL     1     -12.244  12.701  63.887  1.00  0.00    -0.565 A  
HETATM   12  C   UNL     1     -11.275  11.735  63.617  1.00  0.00    -0.519 A  
ENDBRANCH   6   7
ENDBRANCH   5   6
ENDBRANCH   4   5
ENDBRANCH   3   4
BRANCH   3  13
HETATM   13  C   UNL     1     -11.669   9.314  70.583  1.00  0.00    -0.222 C  
BRANCH  13  14
HETATM   14  C   UNL     1     -12.516  10.581  70.717  1.00  0.00    -0.472 C  
BRANCH  14  15
HETATM   15  C   UNL     1     -11.804  11.833  70.195  1.00  0.00    -0.408 C  
BRANCH  15  16
HETATM   16  C   UNL     1     -12.506  13.050  70.742  1.00  0.00    -0.384 A  
HETATM   17  C   UNL     1     -13.563  15.349  71.932  1.00  0.00    -0.590 A  
HETATM   18  C   UNL     1     -13.821  14.094  72.488  1.00  0.00    -0.590 A  
HETATM   19  C   UNL     1     -12.269  14.311  70.178  1.00  0.00    -0.407 A  
HETATM   20  C   UNL     1     -12.796  15.455  70.777  1.00  0.00    -0.524 A  
HETATM   21  C   UNL     1     -13.299  12.949  71.892  1.00  0.00    -0.530 A  
ENDBRANCH  15  16
ENDBRANCH  14  15
ENDBRANCH  13  14
ENDBRANCH   3  13
ENDBRANCH   2   3
TORSDOF 9
ENDMDL
MODEL       23
REMARK 921   NORMALIZED FREE ENERGY PREDICTED BY IDOCK:   -5.38 KCAL/MOL
REMARK 922        TOTAL FREE ENERGY PREDICTED BY IDOCK:   -9.73 KCAL/MOL
REMARK 923 INTER-LIGAND FREE ENERGY PREDICTED BY IDOCK:   -7.88 KCAL/MOL
REMARK 924 INTRA-LIGAND FREE ENERGY PREDICTED BY IDOCK:   -1.85 KCAL/MOL
REMARK 927      BINDING AFFINITY PREDICTED BY RF-SCORE:    0.00 PKD
ROOT
HETATM    1  C   UNL     1     -12.492   7.763  71.935  1.00  0.00    -0.343 C  
HETATM    2  C   UNL     1     -11.089   8.361  71.961  1.00  0.00    -0.327 C  
ENDROOT
BRANCH   2   3
HETATM    3  N   UNL     1     -10.941   9.686  71.317  1.00  0.00    -0.359 NA 
BRANCH   3   4
HETATM    4  C   UNL     1      -9.937   9.664  70.235  1.00  0.00    -0.270 C  
BRANCH   4   5
HETATM    5  C   UNL     1     -10.398  10.224  68.875  1.00  0.00    -0.221 C  
BRANCH   5   6
HETATM    6  C   UNL     1      -9.524  11.361  68.336  1.00  0.00    -0.194 C  
BRANCH   6   7
HETATM    7  C   UNL     1     -10.377  12.444  67.710  1.00  0.00    -0.222 A  
HETATM    8  C   UNL     1     -10.058  13.797  67.893  1.00  0.00    -0.246 A  
HETATM    9  C   UNL     1     -10.810  14.792  67.263  1.00  0.00    -0.309 A  
HETATM   10  C   UNL     1     -11.465  12.108  66.890  1.00  0.00    -0.414 A  
HETATM   11  C   UNL     1     -11.884  14.446  66.446  1.00  0.00    -0.402 A  
HETATM   12  C   UNL     1     -12.214  13.104  66.261  1.00  0.00    -0.423 A  
ENDBRANCH   6   7
ENDBRANCH   5   6
ENDBRANCH   4   5
ENDBRANCH   3   4
BRANCH   3  13
HETATM   13  C   UNL     1     -12.250  10.153  70.813  1.00  0.00    -0.338 C  
BRANCH  13  14
HETATM   14  C   UNL     1     -12.748  11.466  71.419  1.00  0.00    -0.489 C  
BRANCH  14  15
HETATM   15  C   UNL     1     -12.654  12.646  70.447  1.00  0.00    -0.115 C  
BRANCH  15  16
HETATM   16  C   UNL     1     -12.627  13.926  71.244  1.00  0.00    -0.450 A  
HETATM   17  C   UNL     1     -12.323  16.195  72.850  1.00  0.00    -0.607 A  
HETATM   18  C   UNL     1     -13.077  15.112  73.308  1.00  0.00    -0.622 A  
HETATM   19  C   UNL     1     -11.889  15.025  70.783  1.00  0.00    -0.372 A  
HETATM   20  C   UNL     1     -11.738  16.153  71.589  1.00  0.00    -0.558 A  
HETATM   21  C   UNL     1     -13.233  13.984  72.505  1.00  0.00    -0.602 A  
ENDBRANCH  15  16
ENDBRANCH  14  15
ENDBRANCH  13  14
ENDBRANCH   3  13
ENDBRANCH   2   3
TORSDOF 9
ENDMDL
MODEL       24
REMARK 921   NORMALIZED FREE ENERGY PREDICTED BY IDOCK:   -5.36 KCAL/MOL
REMARK 922        TOTAL FREE ENERGY PREDICTED BY IDOCK:   -9.70 KCAL/MOL
REMARK 923 INTER-LIGAND FREE ENERGY PREDICTED BY IDOCK:   -8.71 KCAL/MOL
REMARK 924 INTRA-LIGAND FREE ENERGY PREDICTED BY IDOCK:   -0.99 KCAL/MOL
REMARK 927      BINDING AFFINITY PREDICTED BY RF-SCORE:    0.00 PKD
ROOT
HETATM    1  C   UNL     1     -12.470  15.348  74.141  1.00  0.00    -0.785 C  
HETATM    2  C   UNL     1     -12.039  16.081  72.875  1.00  0.00    -0.520 C  
ENDROOT
BRANCH   2   3
HETATM    3  N   UNL     1     -11.882  15.243  71.664  1.00  0.00    -0.352 NA 
BRANCH   3   4
HETATM    4  C   UNL     1     -13.157  14.623  71.253  1.00  0.00    -0.359 C  
BRANCH   4   5
HETATM    5  C   UNL     1     -13.267  13.101  71.469  1.00  0.00    -0.368 C  
BRANCH   5   6
HETATM    6  C   UNL     1     -12.292  12.276  70.623  1.00  0.00    -0.375 C  
BRANCH   6   7
HETATM    7  C   UNL     1     -12.227  10.847  71.120  1.00  0.00    -0.441 A  
HETATM    8  C   UNL     1     -11.094  10.059  70.875  1.00  0.00    -0.385 A  
HETATM    9  C   UNL     1     -11.010   8.762  71.388  1.00  0.00    -0.360 A  
HETATM   10  C   UNL     1     -13.275  10.310  71.882  1.00  0.00    -0.550 A  
HETATM   11  C   UNL     1     -12.055   8.242  72.149  1.00  0.00    -0.425 A  
HETATM   12  C   UNL     1     -13.189   9.014  72.394  1.00  0.00    -0.507 A  
ENDBRANCH   6   7
ENDBRANCH   5   6
ENDBRANCH   4   5
ENDBRANCH   3   4
BRANCH   3  13
HETATM   13  C   UNL     1     -11.307  16.047  70.565  1.00  0.00    -0.401 C  
BRANCH  13  14
HETATM   14  C   UNL     1     -10.547  15.248  69.505  1.00  0.00    -0.272 C  
BRANCH  14  15
HETATM   15  C   UNL     1     -10.194  16.080  68.269  1.00  0.00    -0.237 C  
BRANCH  15  16
HETATM   16  C   UNL     1     -10.916  15.505  67.076  1.00  0.00    -0.283 A  
HETATM   17  C   UNL     1     -12.026  14.242  64.842  1.00  0.00    -0.430 A  
HETATM   18  C   UNL     1     -11.183  15.342  64.675  1.00  0.00    -0.374 A  
HETATM   19  C   UNL     1     -11.779  14.412  67.238  1.00  0.00    -0.429 A  
HETATM   20  C   UNL     1     -12.328  13.784  66.120  1.00  0.00    -0.496 A  
HETATM   21  C   UNL     1     -10.635  15.975  65.788  1.00  0.00    -0.366 A  
ENDBRANCH  15  16
ENDBRANCH  14  15
ENDBRANCH  13  14
ENDBRANCH   3  13
ENDBRANCH   2   3
TORSDOF 9
ENDMDL
MODEL       25
REMARK 921   NORMALIZED FREE ENERGY PREDICTED BY IDOCK:   -5.36 KCAL/MOL
REMARK 922        TOTAL FREE ENERGY PREDICTED BY IDOCK:   -9.69 KCAL/MOL
REMARK 923 INTER-LIGAND FREE ENERGY PREDICTED BY IDOCK:   -8.86 KCAL/MOL
REMARK 924 INTRA-LIGAND FREE ENERGY PREDICTED BY IDOCK:   -0.84 KCAL/MOL
REMARK 927      BINDING AFFINITY PREDICTED BY RF-SCORE:    0.00 PKD
ROOT
HETATM    1  C   UNL     1     -12.643  16.102  73.615  1.00  0.00    -0.684 C  
HETATM    2  C   UNL     1     -11.993  16.162  72.237  1.00  0.00    -0.546 C  
ENDROOT
BRANCH   2   3
HETATM    3  N   UNL     1     -12.834  15.711  71.105  1.00  0.00    -0.484 NA 
BRANCH   3   4
HETATM    4  C   UNL     1     -12.039  15.486  69.882  1.00  0.00    -0.355 C  
BRANCH   4   5
HETATM    5  C   UNL     1     -10.528  15.767  69.998  1.00  0.00    -0.313 C  
BRANCH   5   6
HETATM    6  C   UNL     1      -9.807  15.882  68.651  1.00  0.00    -0.212 C  
BRANCH   6   7
HETATM    7  C   UNL     1      -9.934  17.284  68.092  1.00  0.00    -0.303 A  
HETATM    8  C   UNL     1     -10.038  17.492  66.710  1.00  0.00    -0.320 A  
HETATM    9  C   UNL     1     -10.219  18.781  66.201  1.00  0.00    -0.462 A  
HETATM   10  C   UNL     1     -10.009  18.389  68.952  1.00  0.00    -0.374 A  
HETATM   11  C   UNL     1     -10.297  19.871  67.065  1.00  0.00    -0.592 A  
HETATM   12  C   UNL     1     -10.189  19.676  68.442  1.00  0.00    -0.553 A  
ENDBRANCH   6   7
ENDBRANCH   5   6
ENDBRANCH   4   5
ENDBRANCH   3   4
BRANCH   3  13
HETATM   13  C   UNL     1     -13.578  14.490  71.483  1.00  0.00    -0.390 C  
BRANCH  13  14
HETATM   14  C   UNL     1     -12.826  13.177  71.262  1.00  0.00    -0.384 C  
BRANCH  14  15
HETATM   15  C   UNL     1     -13.452  11.997  72.012  1.00  0.00    -0.364 C  
BRANCH  15  16
HETATM   16  C   UNL     1     -12.834  10.719  71.504  1.00  0.00    -0.567 A  
HETATM   17  C   UNL     1     -11.478   8.384  70.778  1.00  0.00    -0.277 A  
HETATM   18  C   UNL     1     -11.142   9.600  70.180  1.00  0.00    -0.314 A  
HETATM   19  C   UNL     1     -13.180   9.492  72.085  1.00  0.00    -0.539 A  
HETATM   20  C   UNL     1     -12.499   8.330  71.721  1.00  0.00    -0.367 A  
HETATM   21  C   UNL     1     -11.821  10.762  70.537  1.00  0.00    -0.453 A  
ENDBRANCH  15  16
ENDBRANCH  14  15
ENDBRANCH  13  14
ENDBRANCH   3  13
ENDBRANCH   2   3
TORSDOF 9
ENDMDL
MODEL       26
REMARK 921   NORMALIZED FREE ENERGY PREDICTED BY IDOCK:   -5.35 KCAL/MOL
REMARK 922        TOTAL FREE ENERGY PREDICTED BY IDOCK:   -9.68 KCAL/MOL
REMARK 923 INTER-LIGAND FREE ENERGY PREDICTED BY IDOCK:   -8.00 KCAL/MOL
REMARK 924 INTRA-LIGAND FREE ENERGY PREDICTED BY IDOCK:   -1.68 KCAL/MOL
REMARK 927      BINDING AFFINITY PREDICTED BY RF-SCORE:    0.00 PKD
ROOT
HETATM    1  C   UNL     1      -8.371  13.322  67.646  1.00  0.00    -0.181 C  
HETATM    2  C   UNL     1      -8.531  14.744  67.118  1.00  0.00    -0.223 C  
ENDROOT
BRANCH   2   3
HETATM    3  N   UNL     1      -9.921  15.185  66.862  1.00  0.00    -0.236 NA 
BRANCH   3   4
HETATM    4  C   UNL     1     -10.202  16.502  67.467  1.00  0.00    -0.283 C  
BRANCH   4   5
HETATM    5  C   UNL     1     -10.884  16.478  68.848  1.00  0.00    -0.336 C  
BRANCH   5   6
HETATM    6  C   UNL     1     -11.314  15.082  69.311  1.00  0.00    -0.311 C  
BRANCH   6   7
HETATM    7  C   UNL     1     -12.031  15.156  70.643  1.00  0.00    -0.371 A  
HETATM    8  C   UNL     1     -13.151  14.350  70.894  1.00  0.00    -0.390 A  
HETATM    9  C   UNL     1     -13.773  14.373  72.144  1.00  0.00    -0.557 A  
HETATM   10  C   UNL     1     -11.553  15.989  71.665  1.00  0.00    -0.538 A  
HETATM   11  C   UNL     1     -13.284  15.200  73.154  1.00  0.00    -0.603 A  
HETATM   12  C   UNL     1     -12.176  16.011  72.914  1.00  0.00    -0.621 A  
ENDBRANCH   6   7
ENDBRANCH   5   6
ENDBRANCH   4   5
ENDBRANCH   3   4
BRANCH   3  13
HETATM   13  C   UNL     1     -10.186  15.205  65.407  1.00  0.00    -0.372 C  
BRANCH  13  14
HETATM   14  C   UNL     1     -11.212  14.181  64.920  1.00  0.00    -0.373 C  
BRANCH  14  15
HETATM   15  C   UNL     1     -11.969  13.503  66.066  1.00  0.00    -0.449 C  
BRANCH  15  16
HETATM   16  C   UNL     1     -11.434  12.104  66.237  1.00  0.00    -0.433 A  
HETATM   17  C   UNL     1     -10.181   9.637  66.640  1.00  0.00    -0.302 A  
HETATM   18  C   UNL     1     -10.135  10.246  65.384  1.00  0.00    -0.354 A  
HETATM   19  C   UNL     1     -11.494  11.477  67.489  1.00  0.00    -0.355 A  
HETATM   20  C   UNL     1     -10.865  10.247  67.686  1.00  0.00    -0.363 A  
HETATM   21  C   UNL     1     -10.764  11.472  65.182  1.00  0.00    -0.348 A  
ENDBRANCH  15  16
ENDBRANCH  14  15
ENDBRANCH  13  14
ENDBRANCH   3  13
ENDBRANCH   2   3
TORSDOF 9
ENDMDL
MODEL       27
REMARK 921   NORMALIZED FREE ENERGY PREDICTED BY IDOCK:   -5.32 KCAL/MOL
REMARK 922        TOTAL FREE ENERGY PREDICTED BY IDOCK:   -9.64 KCAL/MOL
REMARK 923 INTER-LIGAND FREE ENERGY PREDICTED BY IDOCK:   -7.62 KCAL/MOL
REMARK 924 INTRA-LIGAND FREE ENERGY PREDICTED BY IDOCK:   -2.01 KCAL/MOL
REMARK 927      BINDING AFFINITY PREDICTED BY RF-SCORE:    0.00 PKD
ROOT
HETATM    1  C   UNL     1     -11.345   6.439  69.316  1.00  0.00    -0.405 C  
HETATM    2  C   UNL     1     -11.575   7.118  70.662  1.00  0.00    -0.314 C  
ENDROOT
BRANCH   2   3
HETATM    3  N   UNL     1     -11.211   8.552  70.732  1.00  0.00    -0.255 NA 
BRANCH   3   4
HETATM    4  C   UNL     1     -11.888   9.239  71.850  1.00  0.00    -0.356 C  
BRANCH   4   5
HETATM    5  C   UNL     1     -12.822  10.401  71.462  1.00  0.00    -0.569 C  
BRANCH   5   6
HETATM    6  C   UNL     1     -12.163  11.467  70.580  1.00  0.00    -0.484 C  
BRANCH   6   7
HETATM    7  C   UNL     1     -12.625  12.853  70.978  1.00  0.00    -0.376 A  
HETATM    8  C   UNL     1     -13.517  13.027  72.045  1.00  0.00    -0.584 A  
HETATM    9  C   UNL     1     -13.893  14.310  72.451  1.00  0.00    -0.619 A  
HETATM   10  C   UNL     1     -12.122  13.987  70.323  1.00  0.00    -0.425 A  
HETATM   11  C   UNL     1     -13.382  15.429  71.796  1.00  0.00    -0.567 A  
HETATM   12  C   UNL     1     -12.499  15.268  70.730  1.00  0.00    -0.457 A  
ENDBRANCH   6   7
ENDBRANCH   5   6
ENDBRANCH   4   5
ENDBRANCH   3   4
BRANCH   3  13
HETATM   13  C   UNL     1      -9.743   8.698  70.834  1.00  0.00    -0.204 C  
BRANCH  13  14
HETATM   14  C   UNL     1      -9.128   9.742  69.902  1.00  0.00    -0.257 C  
BRANCH  14  15
HETATM   15  C   UNL     1      -9.495   9.521  68.432  1.00  0.00    -0.144 C  
BRANCH  15  16
HETATM   16  C   UNL     1      -9.912  10.842  67.835  1.00  0.00    -0.196 A  
HETATM   17  C   UNL     1     -10.842  13.337  66.982  1.00  0.00    -0.278 A  
HETATM   18  C   UNL     1     -11.564  12.181  66.676  1.00  0.00    -0.416 A  
HETATM   19  C   UNL     1      -9.182  12.004  68.121  1.00  0.00    -0.195 A  
HETATM   20  C   UNL     1      -9.652  13.247  67.696  1.00  0.00    -0.213 A  
HETATM   21  C   UNL     1     -11.097  10.938  67.095  1.00  0.00    -0.308 A  
ENDBRANCH  15  16
ENDBRANCH  14  15
ENDBRANCH  13  14
ENDBRANCH   3  13
ENDBRANCH   2   3
TORSDOF 9
ENDMDL
MODEL       28
REMARK 921   NORMALIZED FREE ENERGY PREDICTED BY IDOCK:   -5.32 KCAL/MOL
REMARK 922        TOTAL FREE ENERGY PREDICTED BY IDOCK:   -9.64 KCAL/MOL
REMARK 923 INTER-LIGAND FREE ENERGY PREDICTED BY IDOCK:   -8.39 KCAL/MOL
REMARK 924 INTRA-LIGAND FREE ENERGY PREDICTED BY IDOCK:   -1.25 KCAL/MOL
REMARK 927      BINDING AFFINITY PREDICTED BY RF-SCORE:    0.00 PKD
ROOT
HETATM    1  C   UNL     1     -11.065   6.273  69.853  1.00  0.00    -0.469 C  
HETATM    2  C   UNL     1     -10.250   7.554  69.986  1.00  0.00    -0.215 C  
ENDROOT
BRANCH   2   3
HETATM    3  N   UNL     1     -10.896   8.787  69.480  1.00  0.00    -0.190 NA 
BRANCH   3   4
HETATM    4  C   UNL     1     -11.176   9.748  70.565  1.00  0.00    -0.315 C  
BRANCH   4   5
HETATM    5  C   UNL     1     -12.344  10.723  70.318  1.00  0.00    -0.423 C  
BRANCH   5   6
HETATM    6  C   UNL     1     -12.951  11.310  71.596  1.00  0.00    -0.537 C  
BRANCH   6   7
HETATM    7  C   UNL     1     -13.071  12.816  71.490  1.00  0.00    -0.380 A  
HETATM    8  C   UNL     1     -12.364  13.519  70.504  1.00  0.00    -0.412 A  
HETATM    9  C   UNL     1     -12.524  14.900  70.367  1.00  0.00    -0.403 A  
HETATM   10  C   UNL     1     -13.936  13.523  72.338  1.00  0.00    -0.638 A  
HETATM   11  C   UNL     1     -13.391  15.591  71.212  1.00  0.00    -0.588 A  
HETATM   12  C   UNL     1     -14.095  14.903  72.200  1.00  0.00    -0.616 A  
ENDBRANCH   6   7
ENDBRANCH   5   6
ENDBRANCH   4   5
ENDBRANCH   3   4
BRANCH   3  13
HETATM   13  C   UNL     1     -10.057   9.404  68.431  1.00  0.00    -0.185 C  
BRANCH  13  14
HETATM   14  C   UNL     1     -10.767   9.667  67.102  1.00  0.00    -0.258 C  
BRANCH  14  15
HETATM   15  C   UNL     1      -9.981  10.603  66.180  1.00  0.00    -0.283 C  
BRANCH  15  16
HETATM   16  C   UNL     1     -10.822  11.823  65.899  1.00  0.00    -0.339 A  
HETATM   17  C   UNL     1     -12.616  13.895  65.349  1.00  0.00    -0.538 A  
HETATM   18  C   UNL     1     -11.915  13.285  64.307  1.00  0.00    -0.477 A  
HETATM   19  C   UNL     1     -11.515  12.453  66.942  1.00  0.00    -0.423 A  
HETATM   20  C   UNL     1     -12.411  13.485  66.662  1.00  0.00    -0.351 A  
HETATM   21  C   UNL     1     -11.016  12.257  64.582  1.00  0.00    -0.349 A  
ENDBRANCH  15  16
ENDBRANCH  14  15
ENDBRANCH  13  14
ENDBRANCH   3  13
ENDBRANCH   2   3
TORSDOF 9
ENDMDL
MODEL       29
REMARK 921   NORMALIZED FREE ENERGY PREDICTED BY IDOCK:   -5.32 KCAL/MOL
REMARK 922        TOTAL FREE ENERGY PREDICTED BY IDOCK:   -9.63 KCAL/MOL
REMARK 923 INTER-LIGAND FREE ENERGY PREDICTED BY IDOCK:   -8.47 KCAL/MOL
REMARK 924 INTRA-LIGAND FREE ENERGY PREDICTED BY IDOCK:   -1.16 KCAL/MOL
REMARK 927      BINDING AFFINITY PREDICTED BY RF-SCORE:    0.00 PKD
ROOT
HETATM    1  C   UNL     1     -14.167  14.864  71.638  1.00  0.00    -0.633 C  
HETATM    2  C   UNL     1     -13.168  13.731  71.423  1.00  0.00    -0.305 C  
ENDROOT
BRANCH   2   3
HETATM    3  N   UNL     1     -12.429  13.757  70.140  1.00  0.00    -0.303 NA 
BRANCH   3   4
HETATM    4  C   UNL     1     -11.411  14.826  70.111  1.00  0.00    -0.266 C  
BRANCH   4   5
HETATM    5  C   UNL     1     -11.646  15.954  69.087  1.00  0.00    -0.382 C  
BRANCH   5   6
HETATM    6  C   UNL     1     -10.540  16.083  68.034  1.00  0.00    -0.295 C  
BRANCH   6   7
HETATM    7  C   UNL     1     -10.306  17.537  67.679  1.00  0.00    -0.360 A  
HETATM    8  C   UNL     1     -10.396  17.968  66.348  1.00  0.00    -0.382 A  
HETATM    9  C   UNL     1     -10.242  19.320  66.031  1.00  0.00    -0.512 A  
HETATM   10  C   UNL     1     -10.053  18.483  68.683  1.00  0.00    -0.406 A  
HETATM   11  C   UNL     1      -9.997  20.252  67.038  1.00  0.00    -0.601 A  
HETATM   12  C   UNL     1      -9.900  19.834  68.364  1.00  0.00    -0.522 A  
ENDBRANCH   6   7
ENDBRANCH   5   6
ENDBRANCH   4   5
ENDBRANCH   3   4
BRANCH   3  13
HETATM   13  C   UNL     1     -11.815  12.437  69.884  1.00  0.00    -0.305 C  
BRANCH  13  14
HETATM   14  C   UNL     1     -12.026  11.885  68.473  1.00  0.00    -0.273 C  
BRANCH  14  15
HETATM   15  C   UNL     1     -10.806  12.080  67.567  1.00  0.00    -0.284 C  
BRANCH  15  16
HETATM   16  C   UNL     1     -11.281  12.223  66.143  1.00  0.00    -0.372 A  
HETATM   17  C   UNL     1     -11.916  12.659  63.455  1.00  0.00    -0.613 A  
HETATM   18  C   UNL     1     -12.408  13.522  64.437  1.00  0.00    -0.391 A  
HETATM   19  C   UNL     1     -10.808  11.349  65.154  1.00  0.00    -0.302 A  
HETATM   20  C   UNL     1     -11.125  11.573  63.814  1.00  0.00    -0.471 A  
HETATM   21  C   UNL     1     -12.096  13.301  65.776  1.00  0.00    -0.491 A  
ENDBRANCH  15  16
ENDBRANCH  14  15
ENDBRANCH  13  14
ENDBRANCH   3  13
ENDBRANCH   2   3
TORSDOF 9
ENDMDL
MODEL       30
REMARK 921   NORMALIZED FREE ENERGY PREDICTED BY IDOCK:   -5.32 KCAL/MOL
REMARK 922        TOTAL FREE ENERGY PREDICTED BY IDOCK:   -9.63 KCAL/MOL
REMARK 923 INTER-LIGAND FREE ENERGY PREDICTED BY IDOCK:   -8.24 KCAL/MOL
REMARK 924 INTRA-LIGAND FREE ENERGY PREDICTED BY IDOCK:   -1.39 KCAL/MOL
REMARK 927      BINDING AFFINITY PREDICTED BY RF-SCORE:    0.00 PKD
ROOT
HETATM    1  C   UNL     1      -9.141  15.486  66.222  1.00  0.00    -0.369 C  
HETATM    2  C   UNL     1      -9.586  14.104  66.689  1.00  0.00    -0.289 C  
ENDROOT
BRANCH   2   3
HETATM    3  N   UNL     1     -10.919  13.662  66.221  1.00  0.00    -0.298 NA 
BRANCH   3   4
HETATM    4  C   UNL     1     -11.046  12.192  66.226  1.00  0.00    -0.310 C  
BRANCH   4   5
HETATM    5  C   UNL     1     -10.132  11.439  67.212  1.00  0.00    -0.218 C  
BRANCH   5   6
HETATM    6  C   UNL     1     -10.577  10.003  67.508  1.00  0.00    -0.336 C  
BRANCH   6   7
HETATM    7  C   UNL     1     -11.048   9.872  68.942  1.00  0.00    -0.181 A  
HETATM    8  C   UNL     1     -10.522   8.875  69.775  1.00  0.00    -0.217 A  
HETATM    9  C   UNL     1     -10.910   8.795  71.115  1.00  0.00    -0.335 A  
HETATM   10  C   UNL     1     -11.972  10.783  69.474  1.00  0.00    -0.364 A  
HETATM   11  C   UNL     1     -11.825   9.709  71.634  1.00  0.00    -0.457 A  
HETATM   12  C   UNL     1     -12.359  10.702  70.813  1.00  0.00    -0.472 A  
ENDBRANCH   6   7
ENDBRANCH   5   6
ENDBRANCH   4   5
ENDBRANCH   3   4
BRANCH   3  13
HETATM   13  C   UNL     1     -11.977  14.286  67.044  1.00  0.00    -0.433 C  
BRANCH  13  14
HETATM   14  C   UNL     1     -11.749  14.219  68.555  1.00  0.00    -0.376 C  
BRANCH  14  15
HETATM   15  C   UNL     1     -11.904  15.579  69.243  1.00  0.00    -0.372 C  
BRANCH  15  16
HETATM   16  C   UNL     1     -12.371  15.353  70.658  1.00  0.00    -0.451 A  
HETATM   17  C   UNL     1     -12.992  14.764  73.320  1.00  0.00    -0.608 A  
HETATM   18  C   UNL     1     -13.475  13.949  72.294  1.00  0.00    -0.623 A  
HETATM   19  C   UNL     1     -11.907  16.178  71.692  1.00  0.00    -0.557 A  
HETATM   20  C   UNL     1     -12.217  15.878  73.019  1.00  0.00    -0.609 A  
HETATM   21  C   UNL     1     -13.171  14.246  70.968  1.00  0.00    -0.367 A  
ENDBRANCH  15  16
ENDBRANCH  14  15
ENDBRANCH  13  14
ENDBRANCH   3  13
ENDBRANCH   2   3
TORSDOF 9
ENDMDL
MODEL       31
REMARK 921   NORMALIZED FREE ENERGY PREDICTED BY IDOCK:   -5.31 KCAL/MOL
REMARK 922        TOTAL FREE ENERGY PREDICTED BY IDOCK:   -9.62 KCAL/MOL
REMARK 923 INTER-LIGAND FREE ENERGY PREDICTED BY IDOCK:   -6.80 KCAL/MOL
REMARK 924 INTRA-LIGAND FREE ENERGY PREDICTED BY IDOCK:   -2.82 KCAL/MOL
REMARK 927      BINDING AFFINITY PREDICTED BY RF-SCORE:    0.00 PKD
ROOT
HETATM    1  C   UNL     1     -13.368  14.209  72.838  1.00  0.00    -0.532 C  
HETATM    2  C   UNL     1     -13.476  13.038  71.868  1.00  0.00    -0.408 C  
ENDROOT
BRANCH   2   3
HETATM    3  N   UNL     1     -12.633  13.126  70.653  1.00  0.00    -0.257 NA 
BRANCH   3   4
HETATM    4  C   UNL     1     -11.656  14.230  70.739  1.00  0.00    -0.120 C  
BRANCH   4   5
HETATM    5  C   UNL     1     -12.020  15.513  69.967  1.00  0.00    -0.385 C  
BRANCH   5   6
HETATM    6  C   UNL     1     -10.825  16.423  69.666  1.00  0.00    -0.346 C  
BRANCH   6   7
HETATM    7  C   UNL     1     -10.289  16.160  68.274  1.00  0.00    -0.266 A  
HETATM    8  C   UNL     1     -10.815  16.843  67.168  1.00  0.00    -0.088 A  
HETATM    9  C   UNL     1     -10.276  16.646  65.894  1.00  0.00    -0.358 A  
HETATM   10  C   UNL     1      -9.219  15.274  68.078  1.00  0.00    -0.188 A  
HETATM   11  C   UNL     1      -9.210  15.767  65.713  1.00  0.00    -0.255 A  
HETATM   12  C   UNL     1      -8.682  15.079  66.805  1.00  0.00    -0.293 A  
ENDBRANCH   6   7
ENDBRANCH   5   6
ENDBRANCH   4   5
ENDBRANCH   3   4
BRANCH   3  13
HETATM   13  C   UNL     1     -11.951  11.835  70.416  1.00  0.00    -0.332 C  
BRANCH  13  14
HETATM   14  C   UNL     1     -11.891  11.392  68.954  1.00  0.00    -0.413 C  
BRANCH  14  15
HETATM   15  C   UNL     1     -10.730  12.030  68.184  1.00  0.00    -0.246 C  
BRANCH  15  16
HETATM   16  C   UNL     1     -11.243  12.512  66.851  1.00  0.00    -0.354 A  
HETATM   17  C   UNL     1     -11.998  13.636  64.404  1.00  0.00    -0.476 A  
HETATM   18  C   UNL     1     -12.666  14.001  65.575  1.00  0.00    -0.517 A  
HETATM   19  C   UNL     1     -10.591  12.135  65.669  1.00  0.00    -0.297 A  
HETATM   20  C   UNL     1     -10.969  12.701  64.451  1.00  0.00    -0.386 A  
HETATM   21  C   UNL     1     -12.294  13.437  66.793  1.00  0.00    -0.287 A  
ENDBRANCH  15  16
ENDBRANCH  14  15
ENDBRANCH  13  14
ENDBRANCH   3  13
ENDBRANCH   2   3
TORSDOF 9
ENDMDL
MODEL       32
REMARK 921   NORMALIZED FREE ENERGY PREDICTED BY IDOCK:   -5.30 KCAL/MOL
REMARK 922        TOTAL FREE ENERGY PREDICTED BY IDOCK:   -9.61 KCAL/MOL
REMARK 923 INTER-LIGAND FREE ENERGY PREDICTED BY IDOCK:   -8.52 KCAL/MOL
REMARK 924 INTRA-LIGAND FREE ENERGY PREDICTED BY IDOCK:   -1.09 KCAL/MOL
REMARK 927      BINDING AFFINITY PREDICTED BY RF-SCORE:    0.00 PKD
ROOT
HETATM    1  C   UNL     1     -10.175  20.270  67.528  1.00  0.00    -0.486 C  
HETATM    2  C   UNL     1     -10.672  18.939  66.972  1.00  0.00    -0.402 C  
ENDROOT
BRANCH   2   3
HETATM    3  N   UNL     1     -10.057  17.725  67.557  1.00  0.00    -0.325 NA 
BRANCH   3   4
HETATM    4  C   UNL     1     -11.069  16.817  68.133  1.00  0.00    -0.254 C  
BRANCH   4   5
HETATM    5  C   UNL     1     -10.599  15.944  69.312  1.00  0.00    -0.252 C  
BRANCH   5   6
HETATM    6  C   UNL     1     -11.120  14.504  69.272  1.00  0.00    -0.296 C  
BRANCH   6   7
HETATM    7  C   UNL     1     -12.199  14.295  70.314  1.00  0.00    -0.407 A  
HETATM    8  C   UNL     1     -12.415  13.026  70.871  1.00  0.00    -0.396 A  
HETATM    9  C   UNL     1     -13.368  12.849  71.877  1.00  0.00    -0.530 A  
HETATM   10  C   UNL     1     -12.958  15.378  70.780  1.00  0.00    -0.510 A  
HETATM   11  C   UNL     1     -14.112  13.934  72.336  1.00  0.00    -0.586 A  
HETATM   12  C   UNL     1     -13.909  15.199  71.786  1.00  0.00    -0.605 A  
ENDBRANCH   6   7
ENDBRANCH   5   6
ENDBRANCH   4   5
ENDBRANCH   3   4
BRANCH   3  13
HETATM   13  C   UNL     1      -9.242  17.030  66.538  1.00  0.00    -0.271 C  
BRANCH  13  14
HETATM   14  C   UNL     1     -10.005  16.027  65.670  1.00  0.00    -0.346 C  
BRANCH  14  15
HETATM   15  C   UNL     1      -9.584  14.577  65.924  1.00  0.00    -0.281 C  
BRANCH  15  16
HETATM   16  C   UNL     1     -10.575  13.661  65.251  1.00  0.00    -0.354 A  
HETATM   17  C   UNL     1     -12.476  12.195  63.817  1.00  0.00    -0.620 A  
HETATM   18  C   UNL     1     -12.862  12.926  64.943  1.00  0.00    -0.370 A  
HETATM   19  C   UNL     1     -10.191  12.910  64.132  1.00  0.00    -0.311 A  
HETATM   20  C   UNL     1     -11.143  12.182  63.419  1.00  0.00    -0.495 A  
HETATM   21  C   UNL     1     -11.915  13.651  65.660  1.00  0.00    -0.422 A  
ENDBRANCH  15  16
ENDBRANCH  14  15
ENDBRANCH  13  14
ENDBRANCH   3  13
ENDBRANCH   2   3
TORSDOF 9
ENDMDL
MODEL       33
REMARK 921   NORMALIZED FREE ENERGY PREDICTED BY IDOCK:   -5.30 KCAL/MOL
REMARK 922        TOTAL FREE ENERGY PREDICTED BY IDOCK:   -9.61 KCAL/MOL
REMARK 923 INTER-LIGAND FREE ENERGY PREDICTED BY IDOCK:   -8.68 KCAL/MOL
REMARK 924 INTRA-LIGAND FREE ENERGY PREDICTED BY IDOCK:   -0.93 KCAL/MOL
REMARK 927      BINDING AFFINITY PREDICTED BY RF-SCORE:    0.00 PKD
ROOT
HETATM    1  C   UNL     1     -11.127  11.720  64.205  1.00  0.00    -0.420 C  
HETATM    2  C   UNL     1     -12.137  12.389  65.131  1.00  0.00    -0.405 C  
ENDROOT
BRANCH   2   3
HETATM    3  N   UNL     1     -11.884  12.235  66.582  1.00  0.00    -0.594 NA 
BRANCH   3   4
HETATM    4  C   UNL     1     -10.761  11.315  66.852  1.00  0.00    -0.273 C  
BRANCH   4   5
HETATM    5  C   UNL     1     -11.069  10.131  67.789  1.00  0.00    -0.293 C  
BRANCH   5   6
HETATM    6  C   UNL     1     -10.564  10.319  69.223  1.00  0.00    -0.254 C  
BRANCH   6   7
HETATM    7  C   UNL     1     -11.011   9.171  70.104  1.00  0.00    -0.267 A  
HETATM    8  C   UNL     1     -10.770   7.844  69.720  1.00  0.00    -0.233 A  
HETATM    9  C   UNL     1     -11.127   6.789  70.563  1.00  0.00    -0.346 A  
HETATM   10  C   UNL     1     -11.619   9.419  71.343  1.00  0.00    -0.451 A  
HETATM   11  C   UNL     1     -11.725   7.048  71.795  1.00  0.00    -0.333 A  
HETATM   12  C   UNL     1     -11.975   8.363  72.184  1.00  0.00    -0.438 A  
ENDBRANCH   6   7
ENDBRANCH   5   6
ENDBRANCH   4   5
ENDBRANCH   3   4
BRANCH   3  13
HETATM   13  C   UNL     1     -11.643  13.557  67.197  1.00  0.00    -0.357 C  
BRANCH  13  14
HETATM   14  C   UNL     1     -12.010  13.662  68.678  1.00  0.00    -0.395 C  
BRANCH  14  15
HETATM   15  C   UNL     1     -11.847  15.080  69.235  1.00  0.00    -0.344 C  
BRANCH  15  16
HETATM   16  C   UNL     1     -12.121  15.050  70.717  1.00  0.00    -0.377 A  
HETATM   17  C   UNL     1     -12.882  15.149  73.406  1.00  0.00    -0.661 A  
HETATM   18  C   UNL     1     -12.077  16.157  72.871  1.00  0.00    -0.643 A  
HETATM   19  C   UNL     1     -12.913  14.032  71.266  1.00  0.00    -0.418 A  
HETATM   20  C   UNL     1     -13.292  14.087  72.607  1.00  0.00    -0.643 A  
HETATM   21  C   UNL     1     -11.692  16.104  71.534  1.00  0.00    -0.533 A  
ENDBRANCH  15  16
ENDBRANCH  14  15
ENDBRANCH  13  14
ENDBRANCH   3  13
ENDBRANCH   2   3
TORSDOF 9
ENDMDL
MODEL       34
REMARK 921   NORMALIZED FREE ENERGY PREDICTED BY IDOCK:   -5.28 KCAL/MOL
REMARK 922        TOTAL FREE ENERGY PREDICTED BY IDOCK:   -9.58 KCAL/MOL
REMARK 923 INTER-LIGAND FREE ENERGY PREDICTED BY IDOCK:   -7.97 KCAL/MOL
REMARK 924 INTRA-LIGAND FREE ENERGY PREDICTED BY IDOCK:   -1.61 KCAL/MOL
REMARK 927      BINDING AFFINITY PREDICTED BY RF-SCORE:    0.00 PKD
ROOT
HETATM    1  C   UNL     1     -11.846  10.307  70.891  1.00  0.00    -0.473 C  
HETATM    2  C   UNL     1     -11.769  10.971  69.520  1.00  0.00    -0.329 C  
ENDROOT
BRANCH   2   3
HETATM    3  N   UNL     1     -10.437  11.487  69.126  1.00  0.00    -0.155 NA 
BRANCH   3   4
HETATM    4  C   UNL     1      -9.823  10.671  68.061  1.00  0.00    -0.160 C  
BRANCH   4   5
HETATM    5  C   UNL     1     -10.670  10.474  66.789  1.00  0.00    -0.252 C  
BRANCH   5   6
HETATM    6  C   UNL     1     -10.115  11.183  65.550  1.00  0.00    -0.309 C  
BRANCH   6   7
HETATM    7  C   UNL     1     -10.817  12.507  65.330  1.00  0.00    -0.316 A  
HETATM    8  C   UNL     1     -10.076  13.684  65.152  1.00  0.00    -0.298 A  
HETATM    9  C   UNL     1     -10.724  14.893  64.887  1.00  0.00    -0.426 A  
HETATM   10  C   UNL     1     -12.215  12.566  65.243  1.00  0.00    -0.493 A  
HETATM   11  C   UNL     1     -12.114  14.938  64.796  1.00  0.00    -0.335 A  
HETATM   12  C   UNL     1     -12.861  13.775  64.977  1.00  0.00    -0.319 A  
ENDBRANCH   6   7
ENDBRANCH   5   6
ENDBRANCH   4   5
ENDBRANCH   3   4
BRANCH   3  13
HETATM   13  C   UNL     1     -10.546  12.902  68.712  1.00  0.00    -0.190 C  
BRANCH  13  14
HETATM   14  C   UNL     1     -11.966  13.469  68.701  1.00  0.00    -0.378 C  
BRANCH  14  15
HETATM   15  C   UNL     1     -12.025  14.941  69.120  1.00  0.00    -0.313 C  
BRANCH  15  16
HETATM   16  C   UNL     1     -12.279  15.009  70.605  1.00  0.00    -0.381 A  
HETATM   17  C   UNL     1     -12.985  15.317  73.293  1.00  0.00    -0.645 A  
HETATM   18  C   UNL     1     -12.073  16.196  72.706  1.00  0.00    -0.653 A  
HETATM   19  C   UNL     1     -13.178  14.118  71.206  1.00  0.00    -0.399 A  
HETATM   20  C   UNL     1     -13.530  14.277  72.546  1.00  0.00    -0.613 A  
HETATM   21  C   UNL     1     -11.717  16.040  71.369  1.00  0.00    -0.536 A  
ENDBRANCH  15  16
ENDBRANCH  14  15
ENDBRANCH  13  14
ENDBRANCH   3  13
ENDBRANCH   2   3
TORSDOF 9
ENDMDL
MODEL       35
REMARK 921   NORMALIZED FREE ENERGY PREDICTED BY IDOCK:   -5.27 KCAL/MOL
REMARK 922        TOTAL FREE ENERGY PREDICTED BY IDOCK:   -9.56 KCAL/MOL
REMARK 923 INTER-LIGAND FREE ENERGY PREDICTED BY IDOCK:   -8.15 KCAL/MOL
REMARK 924 INTRA-LIGAND FREE ENERGY PREDICTED BY IDOCK:   -1.41 KCAL/MOL
REMARK 927      BINDING AFFINITY PREDICTED BY RF-SCORE:    0.00 PKD
ROOT
HETATM    1  C   UNL     1     -10.348   8.132  72.569  1.00  0.00    -0.401 C  
HETATM    2  C   UNL     1      -9.793   9.049  71.485  1.00  0.00    -0.310 C  
ENDROOT
BRANCH   2   3
HETATM    3  N   UNL     1     -10.724   9.385  70.383  1.00  0.00    -0.242 NA 
BRANCH   3   4
HETATM    4  C   UNL     1     -10.457   8.584  69.172  1.00  0.00    -0.205 C  
BRANCH   4   5
HETATM    5  C   UNL     1     -10.529   9.342  67.832  1.00  0.00    -0.290 C  
BRANCH   5   6
HETATM    6  C   UNL     1     -10.480  10.867  67.972  1.00  0.00    -0.222 C  
BRANCH   6   7
HETATM    7  C   UNL     1     -10.945  11.537  66.696  1.00  0.00    -0.349 A  
HETATM    8  C   UNL     1     -10.524  11.059  65.446  1.00  0.00    -0.306 A  
HETATM    9  C   UNL     1     -11.004  11.638  64.269  1.00  0.00    -0.418 A  
HETATM   10  C   UNL     1     -11.850  12.608  66.742  1.00  0.00    -0.440 A  
HETATM   11  C   UNL     1     -11.906  12.698  64.328  1.00  0.00    -0.462 A  
HETATM   12  C   UNL     1     -12.328  13.186  65.565  1.00  0.00    -0.529 A  
ENDBRANCH   6   7
ENDBRANCH   5   6
ENDBRANCH   4   5
ENDBRANCH   3   4
BRANCH   3  13
HETATM   13  C   UNL     1     -12.122   9.213  70.832  1.00  0.00    -0.214 C  
BRANCH  13  14
HETATM   14  C   UNL     1     -13.015  10.442  70.662  1.00  0.00    -0.357 C  
BRANCH  14  15
HETATM   15  C   UNL     1     -13.255  11.193  71.975  1.00  0.00    -0.428 C  
BRANCH  15  16
HETATM   16  C   UNL     1     -13.076  12.669  71.728  1.00  0.00    -0.461 A  
HETATM   17  C   UNL     1     -12.983  15.388  71.083  1.00  0.00    -0.545 A  
HETATM   18  C   UNL     1     -12.250  14.467  70.331  1.00  0.00    -0.394 A  
HETATM   19  C   UNL     1     -13.793  13.601  72.490  1.00  0.00    -0.620 A  
HETATM   20  C   UNL     1     -13.746  14.957  72.162  1.00  0.00    -0.550 A  
HETATM   21  C   UNL     1     -12.291  13.114  70.656  1.00  0.00    -0.405 A  
ENDBRANCH  15  16
ENDBRANCH  14  15
ENDBRANCH  13  14
ENDBRANCH   3  13
ENDBRANCH   2   3
TORSDOF 9
ENDMDL
MODEL       36
REMARK 921   NORMALIZED FREE ENERGY PREDICTED BY IDOCK:   -5.26 KCAL/MOL
REMARK 922        TOTAL FREE ENERGY PREDICTED BY IDOCK:   -9.55 KCAL/MOL
REMARK 923 INTER-LIGAND FREE ENERGY PREDICTED BY IDOCK:   -8.82 KCAL/MOL
REMARK 924 INTRA-LIGAND FREE ENERGY PREDICTED BY IDOCK:   -0.73 KCAL/MOL
REMARK 927      BINDING AFFINITY PREDICTED BY RF-SCORE:    0.00 PKD
ROOT
HETATM    1  C   UNL     1     -11.106  12.665  63.929  1.00  0.00    -0.476 C  
HETATM    2  C   UNL     1     -11.390  11.887  65.209  1.00  0.00    -0.275 C  
ENDROOT
BRANCH   2   3
HETATM    3  N   UNL     1     -11.973  12.669  66.324  1.00  0.00    -0.531 NA 
BRANCH   3   4
HETATM    4  C   UNL     1     -11.231  12.470  67.584  1.00  0.00    -0.282 C  
BRANCH   4   5
HETATM    5  C   UNL     1     -11.710  11.305  68.473  1.00  0.00    -0.378 C  
BRANCH   5   6
HETATM    6  C   UNL     1     -11.878  11.673  69.951  1.00  0.00    -0.434 C  
BRANCH   6   7
HETATM    7  C   UNL     1     -11.797  10.438  70.823  1.00  0.00    -0.466 A  
HETATM    8  C   UNL     1     -12.916  10.005  71.550  1.00  0.00    -0.535 A  
HETATM    9  C   UNL     1     -12.858   8.831  72.304  1.00  0.00    -0.465 A  
HETATM   10  C   UNL     1     -10.621   9.675  70.871  1.00  0.00    -0.386 A  
HETATM   11  C   UNL     1     -11.686   8.078  72.339  1.00  0.00    -0.444 A  
HETATM   12  C   UNL     1     -10.566   8.501  71.625  1.00  0.00    -0.353 A  
ENDBRANCH   6   7
ENDBRANCH   5   6
ENDBRANCH   4   5
ENDBRANCH   3   4
BRANCH   3  13
HETATM   13  C   UNL     1     -12.027  14.102  65.963  1.00  0.00    -0.413 C  
BRANCH  13  14
HETATM   14  C   UNL     1     -11.137  15.017  66.805  1.00  0.00    -0.326 C  
BRANCH  14  15
HETATM   15  C   UNL     1     -10.390  16.059  65.968  1.00  0.00    -0.366 C  
BRANCH  15  16
HETATM   16  C   UNL     1     -10.379  17.366  66.720  1.00  0.00    -0.305 A  
HETATM   17  C   UNL     1     -10.059  19.793  68.071  1.00  0.00    -0.571 A  
HETATM   18  C   UNL     1      -9.996  18.589  68.775  1.00  0.00    -0.417 A  
HETATM   19  C   UNL     1     -10.461  18.579  66.023  1.00  0.00    -0.433 A  
HETATM   20  C   UNL     1     -10.298  19.787  66.701  1.00  0.00    -0.614 A  
HETATM   21  C   UNL     1     -10.161  17.380  68.103  1.00  0.00    -0.350 A  
ENDBRANCH  15  16
ENDBRANCH  14  15
ENDBRANCH  13  14
ENDBRANCH   3  13
ENDBRANCH   2   3
TORSDOF 9
ENDMDL
MODEL       37
REMARK 921   NORMALIZED FREE ENERGY PREDICTED BY IDOCK:   -5.26 KCAL/MOL
REMARK 922        TOTAL FREE ENERGY PREDICTED BY IDOCK:   -9.55 KCAL/MOL
REMARK 923 INTER-LIGAND FREE ENERGY PREDICTED BY IDOCK:   -8.32 KCAL/MOL
REMARK 924 INTRA-LIGAND FREE ENERGY PREDICTED BY IDOCK:   -1.23 KCAL/MOL
REMARK 927      BINDING AFFINITY PREDICTED BY RF-SCORE:    0.00 PKD
ROOT
HETATM    1  C   UNL     1      -9.894  11.767  66.345  1.00  0.00    -0.237 C  
HETATM    2  C   UNL     1     -11.178  11.115  66.848  1.00  0.00    -0.186 C  
ENDROOT
BRANCH   2   3
HETATM    3  N   UNL     1     -11.937  11.882  67.862  1.00  0.00    -0.577 NA 
BRANCH   3   4
HETATM    4  C   UNL     1     -11.615  11.450  69.236  1.00  0.00    -0.317 C  
BRANCH   4   5
HETATM    5  C   UNL     1     -12.740  10.720  69.995  1.00  0.00    -0.176 C  
BRANCH   5   6
HETATM    6  C   UNL     1     -12.417  10.426  71.464  1.00  0.00    -0.508 C  
BRANCH   6   7
HETATM    7  C   UNL     1     -11.934   9.001  71.631  1.00  0.00    -0.426 A  
HETATM    8  C   UNL     1     -12.824   7.926  71.493  1.00  0.00    -0.340 A  
HETATM    9  C   UNL     1     -12.364   6.610  71.586  1.00  0.00    -0.382 A  
HETATM   10  C   UNL     1     -10.578   8.732  71.868  1.00  0.00    -0.425 A  
HETATM   11  C   UNL     1     -11.013   6.356  71.816  1.00  0.00    -0.298 A  
HETATM   12  C   UNL     1     -10.120   7.416  71.960  1.00  0.00    -0.212 A  
ENDBRANCH   6   7
ENDBRANCH   5   6
ENDBRANCH   4   5
ENDBRANCH   3   4
BRANCH   3  13
HETATM   13  C   UNL     1     -11.687  13.330  67.693  1.00  0.00    -0.366 C  
BRANCH  13  14
HETATM   14  C   UNL     1     -11.062  14.028  68.902  1.00  0.00    -0.296 C  
BRANCH  14  15
HETATM   15  C   UNL     1     -11.766  15.339  69.264  1.00  0.00    -0.359 C  
BRANCH  15  16
HETATM   16  C   UNL     1     -12.269  15.241  70.683  1.00  0.00    -0.412 A  
HETATM   17  C   UNL     1     -12.971  14.868  73.363  1.00  0.00    -0.597 A  
HETATM   18  C   UNL     1     -13.516  14.042  72.378  1.00  0.00    -0.639 A  
HETATM   19  C   UNL     1     -11.741  16.078  71.675  1.00  0.00    -0.583 A  
HETATM   20  C   UNL     1     -12.092  15.887  73.011  1.00  0.00    -0.615 A  
HETATM   21  C   UNL     1     -13.171  14.232  71.042  1.00  0.00    -0.367 A  
ENDBRANCH  15  16
ENDBRANCH  14  15
ENDBRANCH  13  14
ENDBRANCH   3  13
ENDBRANCH   2   3
TORSDOF 9
ENDMDL
MODEL       38
REMARK 921   NORMALIZED FREE ENERGY PREDICTED BY IDOCK:   -5.25 KCAL/MOL
REMARK 922        TOTAL FREE ENERGY PREDICTED BY IDOCK:   -9.53 KCAL/MOL
REMARK 923 INTER-LIGAND FREE ENERGY PREDICTED BY IDOCK:   -8.46 KCAL/MOL
REMARK 924 INTRA-LIGAND FREE ENERGY PREDICTED BY IDOCK:   -1.08 KCAL/MOL
REMARK 927      BINDING AFFINITY PREDICTED BY RF-SCORE:    0.00 PKD
ROOT
HETATM    1  C   UNL     1      -8.779  13.891  66.971  1.00  0.00    -0.215 C  
HETATM    2  C   UNL     1      -9.794  14.909  66.462  1.00  0.00    -0.266 C  
ENDROOT
BRANCH   2   3
HETATM    3  N   UNL     1     -11.218  14.569  66.688  1.00  0.00    -0.337 NA 
BRANCH   3   4
HETATM    4  C   UNL     1     -11.931  14.311  65.421  1.00  0.00    -0.383 C  
BRANCH   4   5
HETATM    5  C   UNL     1     -12.315  12.843  65.151  1.00  0.00    -0.547 C  
BRANCH   5   6
HETATM    6  C   UNL     1     -11.807  12.299  63.812  1.00  0.00    -0.587 C  
BRANCH   6   7
HETATM    7  C   UNL     1     -10.683  11.308  64.027  1.00  0.00    -0.444 A  
HETATM    8  C   UNL     1     -10.439  10.773  65.300  1.00  0.00    -0.282 A  
HETATM    9  C   UNL     1      -9.442   9.811  65.484  1.00  0.00    -0.324 A  
HETATM   10  C   UNL     1      -9.906  10.866  62.946  1.00  0.00    -0.313 A  
HETATM   11  C   UNL     1      -8.681   9.376  64.401  1.00  0.00    -0.227 A  
HETATM   12  C   UNL     1      -8.910   9.906  63.131  1.00  0.00    -0.254 A  
ENDBRANCH   6   7
ENDBRANCH   5   6
ENDBRANCH   4   5
ENDBRANCH   3   4
BRANCH   3  13
HETATM   13  C   UNL     1     -11.323  13.410  67.599  1.00  0.00    -0.290 C  
BRANCH  13  14
HETATM   14  C   UNL     1     -11.980  13.702  68.949  1.00  0.00    -0.392 C  
BRANCH  14  15
HETATM   15  C   UNL     1     -11.700  15.121  69.454  1.00  0.00    -0.355 C  
BRANCH  15  16
HETATM   16  C   UNL     1     -12.305  15.273  70.827  1.00  0.00    -0.433 A  
HETATM   17  C   UNL     1     -13.475  15.844  73.302  1.00  0.00    -0.599 A  
HETATM   18  C   UNL     1     -12.094  15.970  73.137  1.00  0.00    -0.616 A  
HETATM   19  C   UNL     1     -13.688  15.129  71.005  1.00  0.00    -0.450 A  
HETATM   20  C   UNL     1     -14.267  15.419  72.241  1.00  0.00    -0.639 A  
HETATM   21  C   UNL     1     -11.510  15.679  71.906  1.00  0.00    -0.501 A  
ENDBRANCH  15  16
ENDBRANCH  14  15
ENDBRANCH  13  14
ENDBRANCH   3  13
ENDBRANCH   2   3
TORSDOF 9
ENDMDL
MODEL       39
REMARK 921   NORMALIZED FREE ENERGY PREDICTED BY IDOCK:   -5.23 KCAL/MOL
REMARK 922        TOTAL FREE ENERGY PREDICTED BY IDOCK:   -9.50 KCAL/MOL
REMARK 923 INTER-LIGAND FREE ENERGY PREDICTED BY IDOCK:   -8.32 KCAL/MOL
REMARK 924 INTRA-LIGAND FREE ENERGY PREDICTED BY IDOCK:   -1.17 KCAL/MOL
REMARK 927      BINDING AFFINITY PREDICTED BY RF-SCORE:    0.00 PKD
ROOT
HETATM    1  C   UNL     1      -9.331   7.724  69.892  1.00  0.00    -0.157 C  
HETATM    2  C   UNL     1      -9.232   9.087  70.569  1.00  0.00    -0.220 C  
ENDROOT
BRANCH   2   3
HETATM    3  N   UNL     1     -10.315  10.046  70.253  1.00  0.00    -0.274 NA 
BRANCH   3   4
HETATM    4  C   UNL     1     -10.626  10.070  68.811  1.00  0.00    -0.217 C  
BRANCH   4   5
HETATM    5  C   UNL     1     -10.297  11.382  68.072  1.00  0.00    -0.204 C  
BRANCH   5   6
HETATM    6  C   UNL     1     -11.516  12.081  67.462  1.00  0.00    -0.403 C  
BRANCH   6   7
HETATM    7  C   UNL     1     -11.472  12.014  65.949  1.00  0.00    -0.392 A  
HETATM    8  C   UNL     1     -12.384  12.747  65.177  1.00  0.00    -0.555 A  
HETATM    9  C   UNL     1     -12.301  12.733  63.783  1.00  0.00    -0.533 A  
HETATM   10  C   UNL     1     -10.482  11.263  65.298  1.00  0.00    -0.341 A  
HETATM   11  C   UNL     1     -11.309  11.989  63.147  1.00  0.00    -0.255 A  
HETATM   12  C   UNL     1     -10.400  11.251  63.905  1.00  0.00    -0.439 A  
ENDBRANCH   6   7
ENDBRANCH   5   6
ENDBRANCH   4   5
ENDBRANCH   3   4
BRANCH   3  13
HETATM   13  C   UNL     1     -11.520   9.727  71.048  1.00  0.00    -0.383 C  
BRANCH  13  14
HETATM   14  C   UNL     1     -12.753  10.574  70.726  1.00  0.00    -0.471 C  
BRANCH  14  15
HETATM   15  C   UNL     1     -13.253  11.382  71.928  1.00  0.00    -0.485 C  
BRANCH  15  16
HETATM   16  C   UNL     1     -13.221  12.847  71.571  1.00  0.00    -0.346 A  
HETATM   17  C   UNL     1     -12.941  15.591  71.116  1.00  0.00    -0.560 A  
HETATM   18  C   UNL     1     -13.852  15.131  72.068  1.00  0.00    -0.608 A  
HETATM   19  C   UNL     1     -12.322  13.314  70.602  1.00  0.00    -0.416 A  
HETATM   20  C   UNL     1     -12.184  14.685  70.381  1.00  0.00    -0.391 A  
HETATM   21  C   UNL     1     -13.996  13.764  72.291  1.00  0.00    -0.672 A  
ENDBRANCH  15  16
ENDBRANCH  14  15
ENDBRANCH  13  14
ENDBRANCH   3  13
ENDBRANCH   2   3
TORSDOF 9
ENDMDL
MODEL       40
REMARK 921   NORMALIZED FREE ENERGY PREDICTED BY IDOCK:   -5.21 KCAL/MOL
REMARK 922        TOTAL FREE ENERGY PREDICTED BY IDOCK:   -9.47 KCAL/MOL
REMARK 923 INTER-LIGAND FREE ENERGY PREDICTED BY IDOCK:   -8.62 KCAL/MOL
REMARK 924 INTRA-LIGAND FREE ENERGY PREDICTED BY IDOCK:   -0.86 KCAL/MOL
REMARK 927      BINDING AFFINITY PREDICTED BY RF-SCORE:    0.00 PKD
ROOT
HETATM    1  C   UNL     1     -13.272  15.706  72.911  1.00  0.00    -0.630 C  
HETATM    2  C   UNL     1     -12.582  15.670  71.552  1.00  0.00    -0.447 C  
ENDROOT
BRANCH   2   3
HETATM    3  N   UNL     1     -12.783  14.436  70.758  1.00  0.00    -0.346 NA 
BRANCH   3   4
HETATM    4  C   UNL     1     -11.597  14.106  69.943  1.00  0.00    -0.264 C  
BRANCH   4   5
HETATM    5  C   UNL     1     -11.798  14.143  68.415  1.00  0.00    -0.388 C  
BRANCH   5   6
HETATM    6  C   UNL     1     -11.709  12.771  67.739  1.00  0.00    -0.412 C  
BRANCH   6   7
HETATM    7  C   UNL     1     -11.765  12.912  66.232  1.00  0.00    -0.457 A  
HETATM    8  C   UNL     1     -11.365  11.854  65.403  1.00  0.00    -0.334 A  
HETATM    9  C   UNL     1     -11.477  11.963  64.014  1.00  0.00    -0.480 A  
HETATM   10  C   UNL     1     -12.273  14.080  65.644  1.00  0.00    -0.462 A  
HETATM   11  C   UNL     1     -11.989  13.126  63.442  1.00  0.00    -0.552 A  
HETATM   12  C   UNL     1     -12.385  14.186  64.257  1.00  0.00    -0.398 A  
ENDBRANCH   6   7
ENDBRANCH   5   6
ENDBRANCH   4   5
ENDBRANCH   3   4
BRANCH   3  13
HETATM   13  C   UNL     1     -13.138  13.312  71.651  1.00  0.00    -0.363 C  
BRANCH  13  14
HETATM   14  C   UNL     1     -12.561  11.955  71.249  1.00  0.00    -0.383 C  
BRANCH  14  15
HETATM   15  C   UNL     1     -13.279  10.779  71.918  1.00  0.00    -0.524 C  
BRANCH  15  16
HETATM   16  C   UNL     1     -12.469   9.527  71.693  1.00  0.00    -0.476 A  
HETATM   17  C   UNL     1     -11.027   7.240  70.980  1.00  0.00    -0.272 A  
HETATM   18  C   UNL     1     -12.380   7.138  71.307  1.00  0.00    -0.418 A  
HETATM   19  C   UNL     1     -11.105   9.620  71.383  1.00  0.00    -0.397 A  
HETATM   20  C   UNL     1     -10.390   8.476  71.025  1.00  0.00    -0.261 A  
HETATM   21  C   UNL     1     -13.097   8.276  71.668  1.00  0.00    -0.354 A  
ENDBRANCH  15  16
ENDBRANCH  14  15
ENDBRANCH  13  14
ENDBRANCH   3  13
ENDBRANCH   2   3
TORSDOF 9
ENDMDL
MODEL       41
REMARK 921   NORMALIZED FREE ENERGY PREDICTED BY IDOCK:   -5.20 KCAL/MOL
REMARK 922        TOTAL FREE ENERGY PREDICTED BY IDOCK:   -9.45 KCAL/MOL
REMARK 923 INTER-LIGAND FREE ENERGY PREDICTED BY IDOCK:   -6.28 KCAL/MOL
REMARK 924 INTRA-LIGAND FREE ENERGY PREDICTED BY IDOCK:   -3.17 KCAL/MOL
REMARK 927      BINDING AFFINITY PREDICTED BY RF-SCORE:    0.00 PKD
ROOT
HETATM    1  C   UNL     1     -10.820   6.647  67.991  1.00  0.00    -0.345 C  
HETATM    2  C   UNL     1     -10.496   7.474  66.751  1.00  0.00    -0.249 C  
ENDROOT
BRANCH   2   3
HETATM    3  N   UNL     1     -10.119   8.885  66.997  1.00  0.00    -0.236 NA 
BRANCH   3   4
HETATM    4  C   UNL     1      -9.752   9.121  68.407  1.00  0.00    -0.152 C  
BRANCH   4   5
HETATM    5  C   UNL     1     -10.495  10.270  69.115  1.00  0.00    -0.246 C  
BRANCH   5   6
HETATM    6  C   UNL     1     -11.360  11.125  68.183  1.00  0.00    -0.377 C  
BRANCH   6   7
HETATM    7  C   UNL     1     -11.011  12.592  68.323  1.00  0.00    -0.270 A  
HETATM    8  C   UNL     1      -9.695  13.032  68.124  1.00  0.00    -0.228 A  
HETATM    9  C   UNL     1      -9.387  14.393  68.192  1.00  0.00    -0.203 A  
HETATM   10  C   UNL     1     -12.009  13.538  68.596  1.00  0.00    -0.378 A  
HETATM   11  C   UNL     1     -10.389  15.325  68.458  1.00  0.00    -0.231 A  
HETATM   12  C   UNL     1     -11.700  14.898  68.663  1.00  0.00    -0.358 A  
ENDBRANCH   6   7
ENDBRANCH   5   6
ENDBRANCH   4   5
ENDBRANCH   3   4
BRANCH   3  13
HETATM   13  C   UNL     1      -9.019   9.279  66.091  1.00  0.00    -0.165 C  
BRANCH  13  14
HETATM   14  C   UNL     1      -9.183  10.648  65.428  1.00  0.00    -0.226 C  
BRANCH  14  15
HETATM   15  C   UNL     1     -10.446  10.747  64.568  1.00  0.00    -0.351 C  
BRANCH  15  16
HETATM   16  C   UNL     1     -10.959  12.164  64.626  1.00  0.00    -0.359 A  
HETATM   17  C   UNL     1     -11.876  14.774  65.033  1.00  0.00    -0.343 A  
HETATM   18  C   UNL     1     -12.782  13.711  65.014  1.00  0.00    -0.384 A  
HETATM   19  C   UNL     1     -10.058  13.238  64.626  1.00  0.00    -0.249 A  
HETATM   20  C   UNL     1     -10.520  14.538  64.833  1.00  0.00    -0.435 A  
HETATM   21  C   UNL     1     -12.326  12.412  64.805  1.00  0.00    -0.497 A  
ENDBRANCH  15  16
ENDBRANCH  14  15
ENDBRANCH  13  14
ENDBRANCH   3  13
ENDBRANCH   2   3
TORSDOF 9
ENDMDL
MODEL       42
REMARK 921   NORMALIZED FREE ENERGY PREDICTED BY IDOCK:   -5.19 KCAL/MOL
REMARK 922        TOTAL FREE ENERGY PREDICTED BY IDOCK:   -9.44 KCAL/MOL
REMARK 923 INTER-LIGAND FREE ENERGY PREDICTED BY IDOCK:   -8.33 KCAL/MOL
REMARK 924 INTRA-LIGAND FREE ENERGY PREDICTED BY IDOCK:   -1.11 KCAL/MOL
REMARK 927      BINDING AFFINITY PREDICTED BY RF-SCORE:    0.00 PKD
ROOT
HETATM    1  C   UNL     1      -8.704  14.299  66.669  1.00  0.00    -0.098 C  
HETATM    2  C   UNL     1      -9.169  15.645  66.124  1.00  0.00    -0.343 C  
ENDROOT
BRANCH   2   3
HETATM    3  N   UNL     1     -10.633  15.867  66.114  1.00  0.00    -0.312 NA 
BRANCH   3   4
HETATM    4  C   UNL     1     -11.227  15.568  64.796  1.00  0.00    -0.390 C  
BRANCH   4   5
HETATM    5  C   UNL     1     -12.367  14.531  64.790  1.00  0.00    -0.403 C  
BRANCH   5   6
HETATM    6  C   UNL     1     -12.114  13.328  63.876  1.00  0.00    -0.531 C  
BRANCH   6   7
HETATM    7  C   UNL     1     -11.298  12.272  64.593  1.00  0.00    -0.375 A  
HETATM    8  C   UNL     1     -11.443  12.076  65.974  1.00  0.00    -0.399 A  
HETATM    9  C   UNL     1     -10.736  11.061  66.622  1.00  0.00    -0.305 A  
HETATM   10  C   UNL     1     -10.429  11.436  63.877  1.00  0.00    -0.444 A  
HETATM   11  C   UNL     1      -9.880  10.232  65.898  1.00  0.00    -0.298 A  
HETATM   12  C   UNL     1      -9.723  10.422  64.526  1.00  0.00    -0.393 A  
ENDBRANCH   6   7
ENDBRANCH   5   6
ENDBRANCH   4   5
ENDBRANCH   3   4
BRANCH   3  13
HETATM   13  C   UNL     1     -11.274  15.064  67.177  1.00  0.00    -0.336 C  
BRANCH  13  14
HETATM   14  C   UNL     1     -11.408  15.766  68.529  1.00  0.00    -0.374 C  
BRANCH  14  15
HETATM   15  C   UNL     1     -10.978  14.884  69.705  1.00  0.00    -0.294 C  
BRANCH  15  16
HETATM   16  C   UNL     1     -11.852  15.201  70.892  1.00  0.00    -0.373 A  
HETATM   17  C   UNL     1     -13.504  15.489  73.129  1.00  0.00    -0.585 A  
HETATM   18  C   UNL     1     -14.063  15.447  71.850  1.00  0.00    -0.636 A  
HETATM   19  C   UNL     1     -11.296  15.264  72.177  1.00  0.00    -0.414 A  
HETATM   20  C   UNL     1     -12.125  15.405  73.290  1.00  0.00    -0.591 A  
HETATM   21  C   UNL     1     -13.239  15.309  70.735  1.00  0.00    -0.442 A  
ENDBRANCH  15  16
ENDBRANCH  14  15
ENDBRANCH  13  14
ENDBRANCH   3  13
ENDBRANCH   2   3
TORSDOF 9
ENDMDL
MODEL       43
REMARK 921   NORMALIZED FREE ENERGY PREDICTED BY IDOCK:   -5.18 KCAL/MOL
REMARK 922        TOTAL FREE ENERGY PREDICTED BY IDOCK:   -9.42 KCAL/MOL
REMARK 923 INTER-LIGAND FREE ENERGY PREDICTED BY IDOCK:   -8.06 KCAL/MOL
REMARK 924 INTRA-LIGAND FREE ENERGY PREDICTED BY IDOCK:   -1.37 KCAL/MOL
REMARK 927      BINDING AFFINITY PREDICTED BY RF-SCORE:    0.00 PKD
ROOT
HETATM    1  C   UNL     1     -10.529   9.235  68.470  1.00  0.00    -0.240 C  
HETATM    2  C   UNL     1     -10.448   9.989  69.793  1.00  0.00    -0.256 C  
ENDROOT
BRANCH   2   3
HETATM    3  N   UNL     1     -11.440  11.072  69.982  1.00  0.00    -0.306 NA 
BRANCH   3   4
HETATM    4  C   UNL     1     -11.507  11.968  68.810  1.00  0.00    -0.300 C  
BRANCH   4   5
HETATM    5  C   UNL     1     -10.943  13.388  69.013  1.00  0.00    -0.265 C  
BRANCH   5   6
HETATM    6  C   UNL     1     -12.014  14.474  69.153  1.00  0.00    -0.344 C  
BRANCH   6   7
HETATM    7  C   UNL     1     -12.298  14.762  70.613  1.00  0.00    -0.401 A  
HETATM    8  C   UNL     1     -13.243  14.003  71.318  1.00  0.00    -0.373 A  
HETATM    9  C   UNL     1     -13.458  14.229  72.679  1.00  0.00    -0.623 A  
HETATM   10  C   UNL     1     -11.579  15.754  71.296  1.00  0.00    -0.499 A  
HETATM   11  C   UNL     1     -12.733  15.213  73.349  1.00  0.00    -0.661 A  
HETATM   12  C   UNL     1     -11.795  15.978  72.656  1.00  0.00    -0.611 A  
ENDBRANCH   6   7
ENDBRANCH   5   6
ENDBRANCH   4   5
ENDBRANCH   3   4
BRANCH   3  13
HETATM   13  C   UNL     1     -12.768  10.496  70.282  1.00  0.00    -0.188 C  
BRANCH  13  14
HETATM   14  C   UNL     1     -13.066  10.293  71.768  1.00  0.00    -0.570 C  
BRANCH  14  15
HETATM   15  C   UNL     1     -13.532   8.871  72.095  1.00  0.00    -0.497 C  
BRANCH  15  16
HETATM   16  C   UNL     1     -12.358   7.935  71.957  1.00  0.00    -0.346 A  
HETATM   17  C   UNL     1     -10.338   6.003  71.872  1.00  0.00    -0.251 A  
HETATM   18  C   UNL     1     -10.336   6.971  72.878  1.00  0.00    -0.267 A  
HETATM   19  C   UNL     1     -12.343   6.972  70.938  1.00  0.00    -0.361 A  
HETATM   20  C   UNL     1     -11.335   6.009  70.901  1.00  0.00    -0.299 A  
HETATM   21  C   UNL     1     -11.339   7.937  72.917  1.00  0.00    -0.399 A  
ENDBRANCH  15  16
ENDBRANCH  14  15
ENDBRANCH  13  14
ENDBRANCH   3  13
ENDBRANCH   2   3
TORSDOF 9
ENDMDL
MODEL       44
REMARK 921   NORMALIZED FREE ENERGY PREDICTED BY IDOCK:   -5.18 KCAL/MOL
REMARK 922        TOTAL FREE ENERGY PREDICTED BY IDOCK:   -9.42 KCAL/MOL
REMARK 923 INTER-LIGAND FREE ENERGY PREDICTED BY IDOCK:   -7.60 KCAL/MOL
REMARK 924 INTRA-LIGAND FREE ENERGY PREDICTED BY IDOCK:   -1.82 KCAL/MOL
REMARK 927      BINDING AFFINITY PREDICTED BY RF-SCORE:    0.00 PKD
ROOT
HETATM    1  C   UNL     1      -7.537  12.476  67.206  1.00  0.00    -0.131 C  
HETATM    2  C   UNL     1      -8.189  13.101  68.434  1.00  0.00    -0.130 C  
ENDROOT
BRANCH   2   3
HETATM    3  N   UNL     1      -9.574  13.593  68.251  1.00  0.00    -0.214 NA 
BRANCH   3   4
HETATM    4  C   UNL     1      -9.615  15.050  68.015  1.00  0.00    -0.208 C  
BRANCH   4   5
HETATM    5  C   UNL     1     -10.429  15.875  69.031  1.00  0.00    -0.234 C  
BRANCH   5   6
HETATM    6  C   UNL     1     -11.897  15.452  69.148  1.00  0.00    -0.357 C  
BRANCH   6   7
HETATM    7  C   UNL     1     -12.324  15.394  70.600  1.00  0.00    -0.451 A  
HETATM    8  C   UNL     1     -11.452  15.814  71.616  1.00  0.00    -0.495 A  
HETATM    9  C   UNL     1     -11.870  15.819  72.949  1.00  0.00    -0.568 A  
HETATM   10  C   UNL     1     -13.617  14.976  70.947  1.00  0.00    -0.363 A  
HETATM   11  C   UNL     1     -13.159  15.407  73.280  1.00  0.00    -0.642 A  
HETATM   12  C   UNL     1     -14.033  14.983  72.279  1.00  0.00    -0.611 A  
ENDBRANCH   6   7
ENDBRANCH   5   6
ENDBRANCH   4   5
ENDBRANCH   3   4
BRANCH   3  13
HETATM   13  C   UNL     1     -10.229  12.861  67.146  1.00  0.00    -0.239 C  
BRANCH  13  14
HETATM   14  C   UNL     1     -11.394  11.962  67.562  1.00  0.00    -0.381 C  
BRANCH  14  15
HETATM   15  C   UNL     1     -10.935  10.640  68.186  1.00  0.00    -0.321 C  
BRANCH  15  16
HETATM   16  C   UNL     1     -11.516  10.534  69.573  1.00  0.00    -0.339 A  
HETATM   17  C   UNL     1     -12.857  10.268  72.012  1.00  0.00    -0.457 A  
HETATM   18  C   UNL     1     -12.791  11.514  71.384  1.00  0.00    -0.489 A  
HETATM   19  C   UNL     1     -11.569   9.291  70.219  1.00  0.00    -0.151 A  
HETATM   20  C   UNL     1     -12.242   9.163  71.434  1.00  0.00    -0.407 A  
HETATM   21  C   UNL     1     -12.118  11.647  70.172  1.00  0.00    -0.414 A  
ENDBRANCH  15  16
ENDBRANCH  14  15
ENDBRANCH  13  14
ENDBRANCH   3  13
ENDBRANCH   2   3
TORSDOF 9
ENDMDL
MODEL       45
REMARK 921   NORMALIZED FREE ENERGY PREDICTED BY IDOCK:   -5.18 KCAL/MOL
REMARK 922        TOTAL FREE ENERGY PREDICTED BY IDOCK:   -9.42 KCAL/MOL
REMARK 923 INTER-LIGAND FREE ENERGY PREDICTED BY IDOCK:   -8.31 KCAL/MOL
REMARK 924 INTRA-LIGAND FREE ENERGY PREDICTED BY IDOCK:   -1.11 KCAL/MOL
REMARK 927      BINDING AFFINITY PREDICTED BY RF-SCORE:    0.00 PKD
ROOT
HETATM    1  C   UNL     1      -9.625  19.002  67.113  1.00  0.00    -0.360 C  
HETATM    2  C   UNL     1      -9.455  17.675  66.381  1.00  0.00    -0.259 C  
ENDROOT
BRANCH   2   3
HETATM    3  N   UNL     1     -10.578  16.719  66.508  1.00  0.00    -0.250 NA 
BRANCH   3   4
HETATM    4  C   UNL     1     -10.688  15.837  65.329  1.00  0.00    -0.428 C  
BRANCH   4   5
HETATM    5  C   UNL     1     -10.180  14.394  65.516  1.00  0.00    -0.386 C  
BRANCH   5   6
HETATM    6  C   UNL     1     -11.187  13.317  65.099  1.00  0.00    -0.322 C  
BRANCH   6   7
HETATM    7  C   UNL     1     -10.888  12.005  65.794  1.00  0.00    -0.329 A  
HETATM    8  C   UNL     1     -11.319  11.782  67.110  1.00  0.00    -0.387 A  
HETATM    9  C   UNL     1     -11.097  10.549  67.727  1.00  0.00    -0.382 A  
HETATM   10  C   UNL     1     -10.227  10.972  65.113  1.00  0.00    -0.352 A  
HETATM   11  C   UNL     1     -10.445   9.528  67.038  1.00  0.00    -0.302 A  
HETATM   12  C   UNL     1     -10.007   9.740  65.731  1.00  0.00    -0.349 A  
ENDBRANCH   6   7
ENDBRANCH   5   6
ENDBRANCH   4   5
ENDBRANCH   3   4
BRANCH   3  13
HETATM   13  C   UNL     1     -10.430  15.927  67.747  1.00  0.00    -0.287 C  
BRANCH  13  14
HETATM   14  C   UNL     1     -11.715  15.740  68.556  1.00  0.00    -0.328 C  
BRANCH  14  15
HETATM   15  C   UNL     1     -11.669  14.516  69.475  1.00  0.00    -0.361 C  
BRANCH  15  16
HETATM   16  C   UNL     1     -12.253  14.895  70.813  1.00  0.00    -0.387 A  
HETATM   17  C   UNL     1     -13.342  15.883  73.191  1.00  0.00    -0.681 A  
HETATM   18  C   UNL     1     -11.957  15.803  73.039  1.00  0.00    -0.596 A  
HETATM   19  C   UNL     1     -13.643  14.959  70.981  1.00  0.00    -0.402 A  
HETATM   20  C   UNL     1     -14.182  15.455  72.168  1.00  0.00    -0.660 A  
HETATM   21  C   UNL     1     -11.414  15.305  71.857  1.00  0.00    -0.504 A  
ENDBRANCH  15  16
ENDBRANCH  14  15
ENDBRANCH  13  14
ENDBRANCH   3  13
ENDBRANCH   2   3
TORSDOF 9
ENDMDL
MODEL       46
REMARK 921   NORMALIZED FREE ENERGY PREDICTED BY IDOCK:   -5.16 KCAL/MOL
REMARK 922        TOTAL FREE ENERGY PREDICTED BY IDOCK:   -9.39 KCAL/MOL
REMARK 923 INTER-LIGAND FREE ENERGY PREDICTED BY IDOCK:   -8.45 KCAL/MOL
REMARK 924 INTRA-LIGAND FREE ENERGY PREDICTED BY IDOCK:   -0.94 KCAL/MOL
REMARK 927      BINDING AFFINITY PREDICTED BY RF-SCORE:    0.00 PKD
ROOT
HETATM    1  C   UNL     1     -12.133  12.429  63.437  1.00  0.00    -0.620 C  
HETATM    2  C   UNL     1     -10.764  12.652  64.071  1.00  0.00    -0.425 C  
ENDROOT
BRANCH   2   3
HETATM    3  N   UNL     1     -10.767  13.302  65.401  1.00  0.00    -0.290 NA 
BRANCH   3   4
HETATM    4  C   UNL     1     -10.785  14.774  65.296  1.00  0.00    -0.390 C  
BRANCH   4   5
HETATM    5  C   UNL     1      -9.553  15.506  65.863  1.00  0.00    -0.383 C  
BRANCH   5   6
HETATM    6  C   UNL     1      -9.722  15.994  67.305  1.00  0.00    -0.232 C  
BRANCH   6   7
HETATM    7  C   UNL     1      -9.829  17.504  67.351  1.00  0.00    -0.297 A  
HETATM    8  C   UNL     1      -9.807  18.256  66.168  1.00  0.00    -0.264 A  
HETATM    9  C   UNL     1      -9.969  19.643  66.208  1.00  0.00    -0.563 A  
HETATM   10  C   UNL     1     -10.012  18.169  68.573  1.00  0.00    -0.408 A  
HETATM   11  C   UNL     1     -10.156  20.291  67.427  1.00  0.00    -0.534 A  
HETATM   12  C   UNL     1     -10.174  19.554  68.611  1.00  0.00    -0.481 A  
ENDBRANCH   6   7
ENDBRANCH   5   6
ENDBRANCH   4   5
ENDBRANCH   3   4
BRANCH   3  13
HETATM   13  C   UNL     1     -11.912  12.815  66.200  1.00  0.00    -0.414 C  
BRANCH  13  14
HETATM   14  C   UNL     1     -11.998  13.374  67.621  1.00  0.00    -0.362 C  
BRANCH  14  15
HETATM   15  C   UNL     1     -10.936  12.790  68.557  1.00  0.00    -0.288 C  
BRANCH  15  16
HETATM   16  C   UNL     1     -11.628  12.160  69.739  1.00  0.00    -0.334 A  
HETATM   17  C   UNL     1     -13.162  10.984  71.760  1.00  0.00    -0.505 A  
HETATM   18  C   UNL     1     -13.073  12.375  71.671  1.00  0.00    -0.408 A  
HETATM   19  C   UNL     1     -11.706  10.765  69.846  1.00  0.00    -0.412 A  
HETATM   20  C   UNL     1     -12.474  10.183  70.854  1.00  0.00    -0.455 A  
HETATM   21  C   UNL     1     -12.305  12.961  70.668  1.00  0.00    -0.385 A  
ENDBRANCH  15  16
ENDBRANCH  14  15
ENDBRANCH  13  14
ENDBRANCH   3  13
ENDBRANCH   2   3
TORSDOF 9
ENDMDL
MODEL       47
REMARK 921   NORMALIZED FREE ENERGY PREDICTED BY IDOCK:   -5.15 KCAL/MOL
REMARK 922        TOTAL FREE ENERGY PREDICTED BY IDOCK:   -9.37 KCAL/MOL
REMARK 923 INTER-LIGAND FREE ENERGY PREDICTED BY IDOCK:   -7.68 KCAL/MOL
REMARK 924 INTRA-LIGAND FREE ENERGY PREDICTED BY IDOCK:   -1.69 KCAL/MOL
REMARK 927      BINDING AFFINITY PREDICTED BY RF-SCORE:    0.00 PKD
ROOT
HETATM    1  C   UNL     1      -9.231   7.009  68.804  1.00  0.00    -0.132 C  
HETATM    2  C   UNL     1     -10.403   7.949  69.060  1.00  0.00    -0.214 C  
ENDROOT
BRANCH   2   3
HETATM    3  N   UNL     1     -10.189   9.365  68.683  1.00  0.00    -0.194 NA 
BRANCH   3   4
HETATM    4  C   UNL     1     -10.753   9.674  67.355  1.00  0.00    -0.241 C  
BRANCH   4   5
HETATM    5  C   UNL     1      -9.734  10.023  66.253  1.00  0.00    -0.272 C  
BRANCH   5   6
HETATM    6  C   UNL     1     -10.330  10.789  65.068  1.00  0.00    -0.357 C  
BRANCH   6   7
HETATM    7  C   UNL     1     -10.789  12.167  65.496  1.00  0.00    -0.324 A  
HETATM    8  C   UNL     1      -9.868  13.106  65.983  1.00  0.00    -0.266 A  
HETATM    9  C   UNL     1     -10.284  14.396  66.318  1.00  0.00    -0.307 A  
HETATM   10  C   UNL     1     -12.133  12.545  65.358  1.00  0.00    -0.494 A  
HETATM   11  C   UNL     1     -11.620  14.762  66.170  1.00  0.00    -0.292 A  
HETATM   12  C   UNL     1     -12.547  13.835  65.693  1.00  0.00    -0.551 A  
ENDBRANCH   6   7
ENDBRANCH   5   6
ENDBRANCH   4   5
ENDBRANCH   3   4
BRANCH   3  13
HETATM   13  C   UNL     1     -10.758  10.256  69.718  1.00  0.00    -0.285 C  
BRANCH  13  14
HETATM   14  C   UNL     1     -11.888  11.169  69.239  1.00  0.00    -0.422 C  
BRANCH  14  15
HETATM   15  C   UNL     1     -11.478  12.643  69.176  1.00  0.00    -0.359 C  
BRANCH  15  16
HETATM   16  C   UNL     1     -12.208  13.394  70.261  1.00  0.00    -0.405 A  
HETATM   17  C   UNL     1     -13.813  14.745  72.109  1.00  0.00    -0.578 A  
HETATM   18  C   UNL     1     -13.189  15.452  71.079  1.00  0.00    -0.560 A  
HETATM   19  C   UNL     1     -12.822  12.694  71.309  1.00  0.00    -0.344 A  
HETATM   20  C   UNL     1     -13.624  13.372  72.227  1.00  0.00    -0.703 A  
HETATM   21  C   UNL     1     -12.385  14.780  70.162  1.00  0.00    -0.381 A  
ENDBRANCH  15  16
ENDBRANCH  14  15
ENDBRANCH  13  14
ENDBRANCH   3  13
ENDBRANCH   2   3
TORSDOF 9
ENDMDL
MODEL       48
REMARK 921   NORMALIZED FREE ENERGY PREDICTED BY IDOCK:   -5.10 KCAL/MOL
REMARK 922        TOTAL FREE ENERGY PREDICTED BY IDOCK:   -9.30 KCAL/MOL
REMARK 923 INTER-LIGAND FREE ENERGY PREDICTED BY IDOCK:   -6.18 KCAL/MOL
REMARK 924 INTRA-LIGAND FREE ENERGY PREDICTED BY IDOCK:   -3.12 KCAL/MOL
REMARK 927      BINDING AFFINITY PREDICTED BY RF-SCORE:    0.00 PKD
ROOT
HETATM    1  C   UNL     1     -14.005   8.804  71.695  1.00  0.00    -0.450 C  
HETATM    2  C   UNL     1     -12.513   8.886  72.001  1.00  0.00    -0.392 C  
ENDROOT
BRANCH   2   3
HETATM    3  N   UNL     1     -11.671   9.502  70.950  1.00  0.00    -0.298 NA 
BRANCH   3   4
HETATM    4  C   UNL     1     -12.019  10.919  70.724  1.00  0.00    -0.346 C  
BRANCH   4   5
HETATM    5  C   UNL     1     -11.993  11.395  69.258  1.00  0.00    -0.400 C  
BRANCH   5   6
HETATM    6  C   UNL     1     -11.192  12.682  69.032  1.00  0.00    -0.322 C  
BRANCH   6   7
HETATM    7  C   UNL     1     -11.095  13.000  67.554  1.00  0.00    -0.297 A  
HETATM    8  C   UNL     1     -10.159  13.933  67.087  1.00  0.00    -0.252 A  
HETATM    9  C   UNL     1     -10.027  14.178  65.719  1.00  0.00    -0.331 A  
HETATM   10  C   UNL     1     -11.899  12.323  66.626  1.00  0.00    -0.362 A  
HETATM   11  C   UNL     1     -10.827  13.495  64.805  1.00  0.00    -0.392 A  
HETATM   12  C   UNL     1     -11.766  12.569  65.258  1.00  0.00    -0.430 A  
ENDBRANCH   6   7
ENDBRANCH   5   6
ENDBRANCH   4   5
ENDBRANCH   3   4
BRANCH   3  13
HETATM   13  C   UNL     1     -10.241   9.359  71.298  1.00  0.00    -0.270 C  
BRANCH  13  14
HETATM   14  C   UNL     1      -9.335   8.910  70.151  1.00  0.00    -0.197 C  
BRANCH  14  15
HETATM   15  C   UNL     1      -8.608  10.075  69.473  1.00  0.00    -0.197 C  
BRANCH  15  16
HETATM   16  C   UNL     1      -8.783   9.951  67.981  1.00  0.00    -0.125 A  
HETATM   17  C   UNL     1      -9.319   9.938  65.237  1.00  0.00    -0.309 A  
HETATM   18  C   UNL     1     -10.021   9.083  66.089  1.00  0.00    -0.311 A  
HETATM   19  C   UNL     1      -8.068  10.792  67.117  1.00  0.00    -0.124 A  
HETATM   20  C   UNL     1      -8.341  10.784  65.749  1.00  0.00    -0.158 A  
HETATM   21  C   UNL     1      -9.750   9.086  67.455  1.00  0.00    -0.217 A  
ENDBRANCH  15  16
ENDBRANCH  14  15
ENDBRANCH  13  14
ENDBRANCH   3  13
ENDBRANCH   2   3
TORSDOF 9
ENDMDL
MODEL       49
REMARK 921   NORMALIZED FREE ENERGY PREDICTED BY IDOCK:   -5.09 KCAL/MOL
REMARK 922        TOTAL FREE ENERGY PREDICTED BY IDOCK:   -9.28 KCAL/MOL
REMARK 923 INTER-LIGAND FREE ENERGY PREDICTED BY IDOCK:   -8.16 KCAL/MOL
REMARK 924 INTRA-LIGAND FREE ENERGY PREDICTED BY IDOCK:   -1.12 KCAL/MOL
REMARK 927      BINDING AFFINITY PREDICTED BY RF-SCORE:    0.00 PKD
ROOT
HETATM    1  C   UNL     1      -8.926   7.677  70.686  1.00  0.00    -0.153 C  
HETATM    2  C   UNL     1     -10.288   7.392  70.060  1.00  0.00    -0.219 C  
ENDROOT
BRANCH   2   3
HETATM    3  N   UNL     1     -11.119   8.579  69.755  1.00  0.00    -0.133 NA 
BRANCH   3   4
HETATM    4  C   UNL     1     -11.804   9.096  70.956  1.00  0.00    -0.292 C  
BRANCH   4   5
HETATM    5  C   UNL     1     -12.828  10.222  70.717  1.00  0.00    -0.427 C  
BRANCH   5   6
HETATM    6  C   UNL     1     -13.067  11.122  71.934  1.00  0.00    -0.513 C  
BRANCH   6   7
HETATM    7  C   UNL     1     -13.094  12.580  71.526  1.00  0.00    -0.373 A  
HETATM    8  C   UNL     1     -13.880  13.502  72.232  1.00  0.00    -0.680 A  
HETATM    9  C   UNL     1     -13.855  14.857  71.895  1.00  0.00    -0.557 A  
HETATM   10  C   UNL     1     -12.290  13.041  70.474  1.00  0.00    -0.365 A  
HETATM   11  C   UNL     1     -13.047  15.304  70.851  1.00  0.00    -0.523 A  
HETATM   12  C   UNL     1     -12.266  14.395  70.138  1.00  0.00    -0.401 A  
ENDBRANCH   6   7
ENDBRANCH   5   6
ENDBRANCH   4   5
ENDBRANCH   3   4
BRANCH   3  13
HETATM   13  C   UNL     1     -10.290   9.629  69.127  1.00  0.00    -0.207 C  
BRANCH  13  14
HETATM   14  C   UNL     1     -10.759  10.087  67.745  1.00  0.00    -0.333 C  
BRANCH  14  15
HETATM   15  C   UNL     1     -10.396  11.544  67.443  1.00  0.00    -0.235 C  
BRANCH  15  16
HETATM   16  C   UNL     1     -10.951  11.909  66.089  1.00  0.00    -0.352 A  
HETATM   17  C   UNL     1     -11.765  12.801  63.568  1.00  0.00    -0.597 A  
HETATM   18  C   UNL     1     -12.338  13.345  64.719  1.00  0.00    -0.444 A  
HETATM   19  C   UNL     1     -10.394  11.353  64.929  1.00  0.00    -0.347 A  
HETATM   20  C   UNL     1     -10.802  11.803  63.673  1.00  0.00    -0.508 A  
HETATM   21  C   UNL     1     -11.937  12.897  65.975  1.00  0.00    -0.505 A  
ENDBRANCH  15  16
ENDBRANCH  14  15
ENDBRANCH  13  14
ENDBRANCH   3  13
ENDBRANCH   2   3
TORSDOF 9
ENDMDL
MODEL       50
REMARK 921   NORMALIZED FREE ENERGY PREDICTED BY IDOCK:   -5.07 KCAL/MOL
REMARK 922        TOTAL FREE ENERGY PREDICTED BY IDOCK:   -9.26 KCAL/MOL
REMARK 923 INTER-LIGAND FREE ENERGY PREDICTED BY IDOCK:   -8.10 KCAL/MOL
REMARK 924 INTRA-LIGAND FREE ENERGY PREDICTED BY IDOCK:   -1.15 KCAL/MOL
REMARK 927      BINDING AFFINITY PREDICTED BY RF-SCORE:    0.00 PKD
ROOT
HETATM    1  C   UNL     1     -11.875  14.326  66.841  1.00  0.00    -0.458 C  
HETATM    2  C   UNL     1     -10.763  15.120  66.164  1.00  0.00    -0.325 C  
ENDROOT
BRANCH   2   3
HETATM    3  N   UNL     1     -10.326  16.348  66.866  1.00  0.00    -0.297 NA 
BRANCH   3   4
HETATM    4  C   UNL     1     -10.344  17.527  65.979  1.00  0.00    -0.306 C  
BRANCH   4   5
HETATM    5  C   UNL     1     -10.635  18.879  66.659  1.00  0.00    -0.469 C  
BRANCH   5   6
HETATM    6  C   UNL     1      -9.684  20.007  66.244  1.00  0.00    -0.546 C  
BRANCH   6   7
HETATM    7  C   UNL     1      -8.377  19.913  67.003  1.00  0.00    -0.364 A  
HETATM    8  C   UNL     1      -7.168  20.258  66.382  1.00  0.00    -0.302 A  
HETATM    9  C   UNL     1      -5.971  20.231  67.102  1.00  0.00    -0.207 A  
HETATM   10  C   UNL     1      -8.363  19.537  68.354  1.00  0.00    -0.384 A  
HETATM   11  C   UNL     1      -5.970  19.861  68.446  1.00  0.00    -0.276 A  
HETATM   12  C   UNL     1      -7.166  19.511  69.072  1.00  0.00    -0.397 A  
ENDBRANCH   6   7
ENDBRANCH   5   6
ENDBRANCH   4   5
ENDBRANCH   3   4
BRANCH   3  13
HETATM   13  C   UNL     1     -11.168  16.573  68.061  1.00  0.00    -0.202 C  
BRANCH  13  14
HETATM   14  C   UNL     1     -10.414  16.602  69.391  1.00  0.00    -0.320 C  
BRANCH  14  15
HETATM   15  C   UNL     1     -10.435  15.255  70.119  1.00  0.00    -0.252 C  
BRANCH  15  16
HETATM   16  C   UNL     1     -11.640  15.214  71.025  1.00  0.00    -0.390 A  
HETATM   17  C   UNL     1     -13.950  15.409  72.588  1.00  0.00    -0.590 A  
HETATM   18  C   UNL     1     -12.733  15.889  73.078  1.00  0.00    -0.611 A  
HETATM   19  C   UNL     1     -12.860  14.716  70.548  1.00  0.00    -0.371 A  
HETATM   20  C   UNL     1     -14.010  14.818  71.331  1.00  0.00    -0.512 A  
HETATM   21  C   UNL     1     -11.582  15.787  72.301  1.00  0.00    -0.522 A  
ENDBRANCH  15  16
ENDBRANCH  14  15
ENDBRANCH  13  14
ENDBRANCH   3  13
ENDBRANCH   2   3
TORSDOF 9
ENDMDL
MODEL       51
REMARK 921   NORMALIZED FREE ENERGY PREDICTED BY IDOCK:   -5.05 KCAL/MOL
REMARK 922        TOTAL FREE ENERGY PREDICTED BY IDOCK:   -9.22 KCAL/MOL
REMARK 923 INTER-LIGAND FREE ENERGY PREDICTED BY IDOCK:   -7.33 KCAL/MOL
REMARK 924 INTRA-LIGAND FREE ENERGY PREDICTED BY IDOCK:   -1.89 KCAL/MOL
REMARK 927      BINDING AFFINITY PREDICTED BY RF-SCORE:    0.00 PKD
ROOT
HETATM    1  C   UNL     1      -9.145   7.473  67.991  1.00  0.00    -0.131 C  
HETATM    2  C   UNL     1     -10.456   8.121  67.557  1.00  0.00    -0.256 C  
ENDROOT
BRANCH   2   3
HETATM    3  N   UNL     1     -10.446   9.599  67.464  1.00  0.00    -0.245 NA 
BRANCH   3   4
HETATM    4  C   UNL     1     -10.801  10.234  68.748  1.00  0.00    -0.230 C  
BRANCH   4   5
HETATM    5  C   UNL     1     -11.860  11.351  68.679  1.00  0.00    -0.377 C  
BRANCH   5   6
HETATM    6  C   UNL     1     -11.332  12.741  69.050  1.00  0.00    -0.346 C  
BRANCH   6   7
HETATM    7  C   UNL     1     -12.213  13.388  70.098  1.00  0.00    -0.385 A  
HETATM    8  C   UNL     1     -12.780  12.619  71.124  1.00  0.00    -0.347 A  
HETATM    9  C   UNL     1     -13.541  13.227  72.125  1.00  0.00    -0.655 A  
HETATM   10  C   UNL     1     -12.428  14.774  70.091  1.00  0.00    -0.359 A  
HETATM   11  C   UNL     1     -13.742  14.606  72.111  1.00  0.00    -0.544 A  
HETATM   12  C   UNL     1     -13.188  15.380  71.092  1.00  0.00    -0.583 A  
ENDBRANCH   6   7
ENDBRANCH   5   6
ENDBRANCH   4   5
ENDBRANCH   3   4
BRANCH   3  13
HETATM   13  C   UNL     1      -9.126  10.067  66.990  1.00  0.00    -0.142 C  
BRANCH  13  14
HETATM   14  C   UNL     1      -9.110  10.633  65.569  1.00  0.00    -0.214 C  
BRANCH  14  15
HETATM   15  C   UNL     1     -10.514  10.818  64.984  1.00  0.00    -0.307 C  
BRANCH  15  16
HETATM   16  C   UNL     1     -10.936  12.251  65.185  1.00  0.00    -0.344 A  
HETATM   17  C   UNL     1     -11.766  14.837  65.849  1.00  0.00    -0.248 A  
HETATM   18  C   UNL     1     -12.698  13.899  65.401  1.00  0.00    -0.525 A  
HETATM   19  C   UNL     1     -10.003  13.204  65.616  1.00  0.00    -0.237 A  
HETATM   20  C   UNL     1     -10.422  14.493  65.949  1.00  0.00    -0.322 A  
HETATM   21  C   UNL     1     -12.283  12.612  65.065  1.00  0.00    -0.535 A  
ENDBRANCH  15  16
ENDBRANCH  14  15
ENDBRANCH  13  14
ENDBRANCH   3  13
ENDBRANCH   2   3
TORSDOF 9
ENDMDL
MODEL       52
REMARK 921   NORMALIZED FREE ENERGY PREDICTED BY IDOCK:   -5.05 KCAL/MOL
REMARK 922        TOTAL FREE ENERGY PREDICTED BY IDOCK:   -9.22 KCAL/MOL
REMARK 923 INTER-LIGAND FREE ENERGY PREDICTED BY IDOCK:   -6.97 KCAL/MOL
REMARK 924 INTRA-LIGAND FREE ENERGY PREDICTED BY IDOCK:   -2.24 KCAL/MOL
REMARK 927      BINDING AFFINITY PREDICTED BY RF-SCORE:    0.00 PKD
ROOT
HETATM    1  C   UNL     1      -9.513   6.884  73.268  1.00  0.00    -0.182 C  
HETATM    2  C   UNL     1     -10.706   7.749  72.874  1.00  0.00    -0.385 C  
ENDROOT
BRANCH   2   3
HETATM    3  N   UNL     1     -11.840   7.036  72.243  1.00  0.00    -0.262 NA 
BRANCH   3   4
HETATM    4  C   UNL     1     -12.769   7.965  71.570  1.00  0.00    -0.322 C  
BRANCH   4   5
HETATM    5  C   UNL     1     -12.542   9.464  71.846  1.00  0.00    -0.481 C  
BRANCH   5   6
HETATM    6  C   UNL     1     -12.391  10.318  70.583  1.00  0.00    -0.416 C  
BRANCH   6   7
HETATM    7  C   UNL     1     -12.596  11.785  70.899  1.00  0.00    -0.384 A  
HETATM    8  C   UNL     1     -13.301  12.173  72.047  1.00  0.00    -0.470 A  
HETATM    9  C   UNL     1     -13.434  13.526  72.371  1.00  0.00    -0.685 A  
HETATM   10  C   UNL     1     -12.033  12.775  70.081  1.00  0.00    -0.371 A  
HETATM   11  C   UNL     1     -12.866  14.501  71.553  1.00  0.00    -0.407 A  
HETATM   12  C   UNL     1     -12.168  14.126  70.406  1.00  0.00    -0.427 A  
ENDBRANCH   6   7
ENDBRANCH   5   6
ENDBRANCH   4   5
ENDBRANCH   3   4
BRANCH   3  13
HETATM   13  C   UNL     1     -11.335   6.017  71.298  1.00  0.00    -0.230 C  
BRANCH  13  14
HETATM   14  C   UNL     1     -11.296   6.453  69.833  1.00  0.00    -0.500 C  
BRANCH  14  15
HETATM   15  C   UNL     1      -9.893   6.850  69.365  1.00  0.00    -0.161 C  
BRANCH  15  16
HETATM   16  C   UNL     1      -9.915   8.299  68.948  1.00  0.00    -0.193 A  
HETATM   17  C   UNL     1      -9.723  10.920  67.993  1.00  0.00    -0.176 A  
HETATM   18  C   UNL     1      -9.012  10.539  69.132  1.00  0.00    -0.171 A  
HETATM   19  C   UNL     1     -10.641   8.693  67.816  1.00  0.00    -0.249 A  
HETATM   20  C   UNL     1     -10.540  10.002  67.342  1.00  0.00    -0.330 A  
HETATM   21  C   UNL     1      -9.112   9.235  69.612  1.00  0.00    -0.173 A  
ENDBRANCH  15  16
ENDBRANCH  14  15
ENDBRANCH  13  14
ENDBRANCH   3  13
ENDBRANCH   2   3
TORSDOF 9
ENDMDL
MODEL       53
REMARK 921   NORMALIZED FREE ENERGY PREDICTED BY IDOCK:   -5.02 KCAL/MOL
REMARK 922        TOTAL FREE ENERGY PREDICTED BY IDOCK:   -9.17 KCAL/MOL
REMARK 923 INTER-LIGAND FREE ENERGY PREDICTED BY IDOCK:   -6.06 KCAL/MOL
REMARK 924 INTRA-LIGAND FREE ENERGY PREDICTED BY IDOCK:   -3.12 KCAL/MOL
REMARK 927      BINDING AFFINITY PREDICTED BY RF-SCORE:    0.00 PKD
ROOT
HETATM    1  C   UNL     1     -13.210  13.752  72.010  1.00  0.00    -0.520 C  
HETATM    2  C   UNL     1     -13.521  12.264  72.128  1.00  0.00    -0.327 C  
ENDROOT
BRANCH   2   3
HETATM    3  N   UNL     1     -12.586  11.351  71.433  1.00  0.00    -0.362 NA 
BRANCH   3   4
HETATM    4  C   UNL     1     -13.192  10.030  71.177  1.00  0.00    -0.361 C  
BRANCH   4   5
HETATM    5  C   UNL     1     -12.687   8.873  72.062  1.00  0.00    -0.456 C  
BRANCH   5   6
HETATM    6  C   UNL     1     -11.161   8.756  72.128  1.00  0.00    -0.406 C  
BRANCH   6   7
HETATM    7  C   UNL     1     -10.663   7.687  71.178  1.00  0.00    -0.242 A  
HETATM    8  C   UNL     1      -9.296   7.386  71.097  1.00  0.00    -0.156 A  
HETATM    9  C   UNL     1      -8.846   6.357  70.267  1.00  0.00    -0.151 A  
HETATM   10  C   UNL     1     -11.568   6.942  70.407  1.00  0.00    -0.385 A  
HETATM   11  C   UNL     1      -9.755   5.620  69.510  1.00  0.00    -0.206 A  
HETATM   12  C   UNL     1     -11.116   5.914  69.577  1.00  0.00    -0.403 A  
ENDBRANCH   6   7
ENDBRANCH   5   6
ENDBRANCH   4   5
ENDBRANCH   3   4
BRANCH   3  13
HETATM   13  C   UNL     1     -12.117  11.970  70.174  1.00  0.00    -0.298 C  
BRANCH  13  14
HETATM   14  C   UNL     1     -11.583  10.990  69.128  1.00  0.00    -0.389 C  
BRANCH  14  15
HETATM   15  C   UNL     1     -10.057  10.863  69.153  1.00  0.00    -0.198 C  
BRANCH  15  16
HETATM   16  C   UNL     1      -9.645   9.800  68.167  1.00  0.00    -0.158 A  
HETATM   17  C   UNL     1      -8.915   7.629  66.563  1.00  0.00    -0.187 A  
HETATM   18  C   UNL     1      -7.937   8.341  67.261  1.00  0.00    -0.105 A  
HETATM   19  C   UNL     1     -10.619   9.094  67.447  1.00  0.00    -0.315 A  
HETATM   20  C   UNL     1     -10.250   8.010  66.651  1.00  0.00    -0.315 A  
HETATM   21  C   UNL     1      -8.300   9.426  68.055  1.00  0.00    -0.119 A  
ENDBRANCH  15  16
ENDBRANCH  14  15
ENDBRANCH  13  14
ENDBRANCH   3  13
ENDBRANCH   2   3
TORSDOF 9
ENDMDL
MODEL       54
REMARK 921   NORMALIZED FREE ENERGY PREDICTED BY IDOCK:   -5.01 KCAL/MOL
REMARK 922        TOTAL FREE ENERGY PREDICTED BY IDOCK:   -9.17 KCAL/MOL
REMARK 923 INTER-LIGAND FREE ENERGY PREDICTED BY IDOCK:   -7.69 KCAL/MOL
REMARK 924 INTRA-LIGAND FREE ENERGY PREDICTED BY IDOCK:   -1.47 KCAL/MOL
REMARK 927      BINDING AFFINITY PREDICTED BY RF-SCORE:    0.00 PKD
ROOT
HETATM    1  C   UNL     1      -7.521  10.370  69.373  1.00  0.00    -0.135 C  
HETATM    2  C   UNL     1      -8.985  10.063  69.666  1.00  0.00    -0.202 C  
ENDROOT
BRANCH   2   3
HETATM    3  N   UNL     1      -9.393   8.648  69.509  1.00  0.00    -0.153 NA 
BRANCH   3   4
HETATM    4  C   UNL     1     -10.636   8.347  70.246  1.00  0.00    -0.227 C  
BRANCH   4   5
HETATM    5  C   UNL     1     -11.072   9.394  71.289  1.00  0.00    -0.446 C  
BRANCH   5   6
HETATM    6  C   UNL     1     -12.516   9.880  71.123  1.00  0.00    -0.464 C  
BRANCH   6   7
HETATM    7  C   UNL     1     -12.570  11.392  71.067  1.00  0.00    -0.487 A  
HETATM    8  C   UNL     1     -12.001  12.086  69.989  1.00  0.00    -0.400 A  
HETATM    9  C   UNL     1     -12.107  13.477  69.909  1.00  0.00    -0.408 A  
HETATM   10  C   UNL     1     -13.239  12.118  72.063  1.00  0.00    -0.496 A  
HETATM   11  C   UNL     1     -12.780  14.186  70.901  1.00  0.00    -0.432 A  
HETATM   12  C   UNL     1     -13.344  13.508  71.981  1.00  0.00    -0.563 A  
ENDBRANCH   6   7
ENDBRANCH   5   6
ENDBRANCH   4   5
ENDBRANCH   3   4
BRANCH   3  13
HETATM   13  C   UNL     1      -9.538   8.320  68.074  1.00  0.00    -0.153 C  
BRANCH  13  14
HETATM   14  C   UNL     1     -10.443   9.263  67.281  1.00  0.00    -0.334 C  
BRANCH  14  15
HETATM   15  C   UNL     1      -9.764   9.832  66.031  1.00  0.00    -0.319 C  
BRANCH  15  16
HETATM   16  C   UNL     1     -10.585  10.988  65.519  1.00  0.00    -0.267 A  
HETATM   17  C   UNL     1     -11.867  13.307  64.626  1.00  0.00    -0.420 A  
HETATM   18  C   UNL     1     -11.973  12.923  65.965  1.00  0.00    -0.505 A  
HETATM   19  C   UNL     1     -10.500  11.369  64.173  1.00  0.00    -0.421 A  
HETATM   20  C   UNL     1     -11.139  12.529  63.733  1.00  0.00    -0.503 A  
HETATM   21  C   UNL     1     -11.339  11.764  66.408  1.00  0.00    -0.361 A  
ENDBRANCH  15  16
ENDBRANCH  14  15
ENDBRANCH  13  14
ENDBRANCH   3  13
ENDBRANCH   2   3
TORSDOF 9
ENDMDL
MODEL       55
REMARK 921   NORMALIZED FREE ENERGY PREDICTED BY IDOCK:   -5.01 KCAL/MOL
REMARK 922        TOTAL FREE ENERGY PREDICTED BY IDOCK:   -9.16 KCAL/MOL
REMARK 923 INTER-LIGAND FREE ENERGY PREDICTED BY IDOCK:   -8.46 KCAL/MOL
REMARK 924 INTRA-LIGAND FREE ENERGY PREDICTED BY IDOCK:   -0.70 KCAL/MOL
REMARK 927      BINDING AFFINITY PREDICTED BY RF-SCORE:    0.00 PKD
ROOT
HETATM    1  C   UNL     1     -12.090  13.054  63.555  1.00  0.00    -0.617 C  
HETATM    2  C   UNL     1     -11.422  12.099  64.539  1.00  0.00    -0.334 C  
ENDROOT
BRANCH   2   3
HETATM    3  N   UNL     1     -11.123  12.656  65.878  1.00  0.00    -0.280 NA 
BRANCH   3   4
HETATM    4  C   UNL     1     -11.647  14.027  66.035  1.00  0.00    -0.357 C  
BRANCH   4   5
HETATM    5  C   UNL     1     -10.650  15.073  66.570  1.00  0.00    -0.305 C  
BRANCH   5   6
HETATM    6  C   UNL     1     -10.520  16.321  65.691  1.00  0.00    -0.386 C  
BRANCH   6   7
HETATM    7  C   UNL     1     -10.400  17.567  66.543  1.00  0.00    -0.325 A  
HETATM    8  C   UNL     1     -10.169  17.467  67.922  1.00  0.00    -0.348 A  
HETATM    9  C   UNL     1      -9.996  18.617  68.696  1.00  0.00    -0.431 A  
HETATM   10  C   UNL     1     -10.458  18.840  65.956  1.00  0.00    -0.483 A  
HETATM   11  C   UNL     1     -10.050  19.876  68.101  1.00  0.00    -0.569 A  
HETATM   12  C   UNL     1     -10.285  19.988  66.731  1.00  0.00    -0.592 A  
ENDBRANCH   6   7
ENDBRANCH   5   6
ENDBRANCH   4   5
ENDBRANCH   3   4
BRANCH   3  13
HETATM   13  C   UNL     1     -11.657  11.763  66.928  1.00  0.00    -0.234 C  
BRANCH  13  14
HETATM   14  C   UNL     1     -11.204  12.090  68.351  1.00  0.00    -0.313 C  
BRANCH  14  15
HETATM   15  C   UNL     1     -10.437  10.941  69.013  1.00  0.00    -0.244 C  
BRANCH  15  16
HETATM   16  C   UNL     1     -11.240  10.435  70.184  1.00  0.00    -0.393 A  
HETATM   17  C   UNL     1     -12.924   9.384  72.154  1.00  0.00    -0.503 A  
HETATM   18  C   UNL     1     -13.118  10.688  71.694  1.00  0.00    -0.555 A  
HETATM   19  C   UNL     1     -11.039   9.134  70.666  1.00  0.00    -0.320 A  
HETATM   20  C   UNL     1     -11.883   8.613  71.646  1.00  0.00    -0.389 A  
HETATM   21  C   UNL     1     -12.276  11.213  70.717  1.00  0.00    -0.484 A  
ENDBRANCH  15  16
ENDBRANCH  14  15
ENDBRANCH  13  14
ENDBRANCH   3  13
ENDBRANCH   2   3
TORSDOF 9
ENDMDL
MODEL       56
REMARK 921   NORMALIZED FREE ENERGY PREDICTED BY IDOCK:   -5.00 KCAL/MOL
REMARK 922        TOTAL FREE ENERGY PREDICTED BY IDOCK:   -9.15 KCAL/MOL
REMARK 923 INTER-LIGAND FREE ENERGY PREDICTED BY IDOCK:   -7.61 KCAL/MOL
REMARK 924 INTRA-LIGAND FREE ENERGY PREDICTED BY IDOCK:   -1.54 KCAL/MOL
REMARK 927      BINDING AFFINITY PREDICTED BY RF-SCORE:    0.00 PKD
ROOT
HETATM    1  C   UNL     1     -12.447  10.798  71.090  1.00  0.00    -0.519 C  
HETATM    2  C   UNL     1     -12.367  11.112  69.600  1.00  0.00    -0.218 C  
ENDROOT
BRANCH   2   3
HETATM    3  N   UNL     1     -11.013  11.396  69.071  1.00  0.00    -0.223 NA 
BRANCH   3   4
HETATM    4  C   UNL     1     -10.667  10.515  67.939  1.00  0.00    -0.260 C  
BRANCH   4   5
HETATM    5  C   UNL     1      -9.600   9.440  68.222  1.00  0.00    -0.156 C  
BRANCH   5   6
HETATM    6  C   UNL     1     -10.174   8.054  68.533  1.00  0.00    -0.231 C  
BRANCH   6   7
HETATM    7  C   UNL     1     -10.347   7.868  70.026  1.00  0.00    -0.221 A  
HETATM    8  C   UNL     1      -9.463   8.478  70.927  1.00  0.00    -0.221 A  
HETATM    9  C   UNL     1      -9.662   8.357  72.304  1.00  0.00    -0.386 A  
HETATM   10  C   UNL     1     -11.429   7.131  70.531  1.00  0.00    -0.334 A  
HETATM   11  C   UNL     1     -10.744   7.628  72.794  1.00  0.00    -0.401 A  
HETATM   12  C   UNL     1     -11.626   7.011  71.907  1.00  0.00    -0.320 A  
ENDBRANCH   6   7
ENDBRANCH   5   6
ENDBRANCH   4   5
ENDBRANCH   3   4
BRANCH   3  13
HETATM   13  C   UNL     1     -10.910  12.819  68.684  1.00  0.00    -0.253 C  
BRANCH  13  14
HETATM   14  C   UNL     1     -12.149  13.665  68.980  1.00  0.00    -0.348 C  
BRANCH  14  15
HETATM   15  C   UNL     1     -11.808  15.098  69.400  1.00  0.00    -0.357 C  
BRANCH  15  16
HETATM   16  C   UNL     1     -12.233  15.294  70.833  1.00  0.00    -0.409 A  
HETATM   17  C   UNL     1     -12.781  15.490  73.568  1.00  0.00    -0.681 A  
HETATM   18  C   UNL     1     -13.344  14.457  72.816  1.00  0.00    -0.606 A  
HETATM   19  C   UNL     1     -11.687  16.340  71.591  1.00  0.00    -0.490 A  
HETATM   20  C   UNL     1     -11.961  16.432  72.956  1.00  0.00    -0.559 A  
HETATM   21  C   UNL     1     -13.076  14.363  71.452  1.00  0.00    -0.416 A  
ENDBRANCH  15  16
ENDBRANCH  14  15
ENDBRANCH  13  14
ENDBRANCH   3  13
ENDBRANCH   2   3
TORSDOF 9
ENDMDL
MODEL       57
REMARK 921   NORMALIZED FREE ENERGY PREDICTED BY IDOCK:   -4.99 KCAL/MOL
REMARK 922        TOTAL FREE ENERGY PREDICTED BY IDOCK:   -9.13 KCAL/MOL
REMARK 923 INTER-LIGAND FREE ENERGY PREDICTED BY IDOCK:   -8.41 KCAL/MOL
REMARK 924 INTRA-LIGAND FREE ENERGY PREDICTED BY IDOCK:   -0.72 KCAL/MOL
REMARK 927      BINDING AFFINITY PREDICTED BY RF-SCORE:    0.00 PKD
ROOT
HETATM    1  C   UNL     1     -12.771  16.013  73.814  1.00  0.00    -0.719 C  
HETATM    2  C   UNL     1     -11.800  15.799  72.658  1.00  0.00    -0.491 C  
ENDROOT
BRANCH   2   3
HETATM    3  N   UNL     1     -12.246  14.856  71.606  1.00  0.00    -0.327 NA 
BRANCH   3   4
HETATM    4  C   UNL     1     -13.511  14.186  71.966  1.00  0.00    -0.431 C  
BRANCH   4   5
HETATM    5  C   UNL     1     -13.457  12.649  72.063  1.00  0.00    -0.516 C  
BRANCH   5   6
HETATM    6  C   UNL     1     -12.466  11.995  71.094  1.00  0.00    -0.353 C  
BRANCH   6   7
HETATM    7  C   UNL     1     -12.438  10.493  71.288  1.00  0.00    -0.524 A  
HETATM    8  C   UNL     1     -13.548   9.824  71.824  1.00  0.00    -0.397 A  
HETATM    9  C   UNL     1     -13.544   8.433  71.944  1.00  0.00    -0.409 A  
HETATM   10  C   UNL     1     -11.326   9.743  70.880  1.00  0.00    -0.439 A  
HETATM   11  C   UNL     1     -12.435   7.697  71.530  1.00  0.00    -0.361 A  
HETATM   12  C   UNL     1     -11.324   8.352  71.000  1.00  0.00    -0.303 A  
ENDBRANCH   6   7
ENDBRANCH   5   6
ENDBRANCH   4   5
ENDBRANCH   3   4
BRANCH   3  13
HETATM   13  C   UNL     1     -12.373  15.564  70.314  1.00  0.00    -0.396 C  
BRANCH  13  14
HETATM   14  C   UNL     1     -11.055  15.814  69.579  1.00  0.00    -0.306 C  
BRANCH  14  15
HETATM   15  C   UNL     1     -11.255  16.401  68.178  1.00  0.00    -0.273 C  
BRANCH  15  16
HETATM   16  C   UNL     1     -10.579  17.747  68.117  1.00  0.00    -0.350 A  
HETATM   17  C   UNL     1      -9.122  20.115  67.820  1.00  0.00    -0.403 A  
HETATM   18  C   UNL     1      -8.817  19.234  68.859  1.00  0.00    -0.336 A  
HETATM   19  C   UNL     1     -10.893  18.645  67.088  1.00  0.00    -0.341 A  
HETATM   20  C   UNL     1     -10.162  19.824  66.942  1.00  0.00    -0.579 A  
HETATM   21  C   UNL     1      -9.547  18.058  69.011  1.00  0.00    -0.154 A  
ENDBRANCH  15  16
ENDBRANCH  14  15
ENDBRANCH  13  14
ENDBRANCH   3  13
ENDBRANCH   2   3
TORSDOF 9
ENDMDL
MODEL       58
REMARK 921   NORMALIZED FREE ENERGY PREDICTED BY IDOCK:   -4.98 KCAL/MOL
REMARK 922        TOTAL FREE ENERGY PREDICTED BY IDOCK:   -9.11 KCAL/MOL
REMARK 923 INTER-LIGAND FREE ENERGY PREDICTED BY IDOCK:   -7.84 KCAL/MOL
REMARK 924 INTRA-LIGAND FREE ENERGY PREDICTED BY IDOCK:   -1.27 KCAL/MOL
REMARK 927      BINDING AFFINITY PREDICTED BY RF-SCORE:    0.00 PKD
ROOT
HETATM    1  C   UNL     1     -10.887  15.873  70.085  1.00  0.00    -0.359 C  
HETATM    2  C   UNL     1     -11.752  15.825  68.830  1.00  0.00    -0.394 C  
ENDROOT
BRANCH   2   3
HETATM    3  N   UNL     1     -11.311  14.881  67.778  1.00  0.00    -0.319 NA 
BRANCH   3   4
HETATM    4  C   UNL     1      -9.849  14.678  67.796  1.00  0.00    -0.216 C  
BRANCH   4   5
HETATM    5  C   UNL     1      -9.098  15.070  66.509  1.00  0.00    -0.319 C  
BRANCH   5   6
HETATM    6  C   UNL     1      -8.160  16.270  66.672  1.00  0.00    -0.323 C  
BRANCH   6   7
HETATM    7  C   UNL     1      -8.927  17.491  67.133  1.00  0.00    -0.245 A  
HETATM    8  C   UNL     1      -8.575  18.145  68.322  1.00  0.00    -0.298 A  
HETATM    9  C   UNL     1      -9.243  19.308  68.714  1.00  0.00    -0.421 A  
HETATM   10  C   UNL     1      -9.961  18.021  66.348  1.00  0.00    -0.362 A  
HETATM   11  C   UNL     1     -10.266  19.828  67.923  1.00  0.00    -0.576 A  
HETATM   12  C   UNL     1     -10.627  19.183  66.741  1.00  0.00    -0.528 A  
ENDBRANCH   6   7
ENDBRANCH   5   6
ENDBRANCH   4   5
ENDBRANCH   3   4
BRANCH   3  13
HETATM   13  C   UNL     1     -12.024  13.594  67.922  1.00  0.00    -0.347 C  
BRANCH  13  14
HETATM   14  C   UNL     1     -11.380  12.598  68.888  1.00  0.00    -0.345 C  
BRANCH  14  15
HETATM   15  C   UNL     1     -12.182  12.415  70.179  1.00  0.00    -0.303 C  
BRANCH  15  16
HETATM   16  C   UNL     1     -12.117  10.964  70.586  1.00  0.00    -0.468 A  
HETATM   17  C   UNL     1     -11.851   8.368  71.590  1.00  0.00    -0.357 A  
HETATM   18  C   UNL     1     -10.868   8.896  70.750  1.00  0.00    -0.294 A  
HETATM   19  C   UNL     1     -13.110  10.421  71.414  1.00  0.00    -0.512 A  
HETATM   20  C   UNL     1     -12.971   9.127  71.914  1.00  0.00    -0.473 A  
HETATM   21  C   UNL     1     -11.003  10.187  70.245  1.00  0.00    -0.380 A  
ENDBRANCH  15  16
ENDBRANCH  14  15
ENDBRANCH  13  14
ENDBRANCH   3  13
ENDBRANCH   2   3
TORSDOF 9
ENDMDL
MODEL       59
REMARK 921   NORMALIZED FREE ENERGY PREDICTED BY IDOCK:   -4.98 KCAL/MOL
REMARK 922        TOTAL FREE ENERGY PREDICTED BY IDOCK:   -9.11 KCAL/MOL
REMARK 923 INTER-LIGAND FREE ENERGY PREDICTED BY IDOCK:   -7.32 KCAL/MOL
REMARK 924 INTRA-LIGAND FREE ENERGY PREDICTED BY IDOCK:   -1.79 KCAL/MOL
REMARK 927      BINDING AFFINITY PREDICTED BY RF-SCORE:    0.00 PKD
ROOT
HETATM    1  C   UNL     1     -11.229   6.264  72.409  1.00  0.00    -0.320 C  
HETATM    2  C   UNL     1     -12.096   6.668  71.221  1.00  0.00    -0.341 C  
ENDROOT
BRANCH   2   3
HETATM    3  N   UNL     1     -11.936   8.062  70.749  1.00  0.00    -0.190 NA 
BRANCH   3   4
HETATM    4  C   UNL     1     -12.499   9.036  71.705  1.00  0.00    -0.368 C  
BRANCH   4   5
HETATM    5  C   UNL     1     -12.457  10.513  71.268  1.00  0.00    -0.524 C  
BRANCH   5   6
HETATM    6  C   UNL     1     -13.298  11.449  72.141  1.00  0.00    -0.271 C  
BRANCH   6   7
HETATM    7  C   UNL     1     -13.097  12.892  71.728  1.00  0.00    -0.458 A  
HETATM    8  C   UNL     1     -12.103  13.236  70.801  1.00  0.00    -0.311 A  
HETATM    9  C   UNL     1     -11.960  14.558  70.375  1.00  0.00    -0.386 A  
HETATM   10  C   UNL     1     -13.940  13.899  72.223  1.00  0.00    -0.663 A  
HETATM   11  C   UNL     1     -12.807  15.548  70.868  1.00  0.00    -0.535 A  
HETATM   12  C   UNL     1     -13.796  15.220  71.795  1.00  0.00    -0.622 A  
ENDBRANCH   6   7
ENDBRANCH   5   6
ENDBRANCH   4   5
ENDBRANCH   3   4
BRANCH   3  13
HETATM   13  C   UNL     1     -10.509   8.347  70.485  1.00  0.00    -0.207 C  
BRANCH  13  14
HETATM   14  C   UNL     1     -10.224   9.063  69.165  1.00  0.00    -0.213 C  
BRANCH  14  15
HETATM   15  C   UNL     1      -9.426  10.358  69.349  1.00  0.00    -0.204 C  
BRANCH  15  16
HETATM   16  C   UNL     1      -9.946  11.387  68.377  1.00  0.00    -0.206 A  
HETATM   17  C   UNL     1     -11.042  13.430  66.813  1.00  0.00    -0.308 A  
HETATM   18  C   UNL     1     -11.754  12.245  67.012  1.00  0.00    -0.399 A  
HETATM   19  C   UNL     1      -9.228  12.571  68.156  1.00  0.00    -0.209 A  
HETATM   20  C   UNL     1      -9.781  13.588  67.377  1.00  0.00    -0.229 A  
HETATM   21  C   UNL     1     -11.205  11.226  67.786  1.00  0.00    -0.354 A  
ENDBRANCH  15  16
ENDBRANCH  14  15
ENDBRANCH  13  14
ENDBRANCH   3  13
ENDBRANCH   2   3
TORSDOF 9
ENDMDL
MODEL       60
REMARK 921   NORMALIZED FREE ENERGY PREDICTED BY IDOCK:   -4.94 KCAL/MOL
REMARK 922        TOTAL FREE ENERGY PREDICTED BY IDOCK:   -9.06 KCAL/MOL
REMARK 923 INTER-LIGAND FREE ENERGY PREDICTED BY IDOCK:   -7.29 KCAL/MOL
REMARK 924 INTRA-LIGAND FREE ENERGY PREDICTED BY IDOCK:   -1.76 KCAL/MOL
REMARK 927      BINDING AFFINITY PREDICTED BY RF-SCORE:    0.00 PKD
ROOT
HETATM    1  C   UNL     1     -11.425  15.628  64.394  1.00  0.00    -0.266 C  
HETATM    2  C   UNL     1     -10.740  14.690  65.382  1.00  0.00    -0.369 C  
ENDROOT
BRANCH   2   3
HETATM    3  N   UNL     1     -11.362  13.356  65.543  1.00  0.00    -0.291 NA 
BRANCH   3   4
HETATM    4  C   UNL     1     -10.370  12.268  65.434  1.00  0.00    -0.269 C  
BRANCH   4   5
HETATM    5  C   UNL     1     -10.539  11.098  66.423  1.00  0.00    -0.315 C  
BRANCH   5   6
HETATM    6  C   UNL     1      -9.310  10.836  67.299  1.00  0.00    -0.165 C  
BRANCH   6   7
HETATM    7  C   UNL     1      -9.716  10.219  68.621  1.00  0.00    -0.171 A  
HETATM    8  C   UNL     1      -8.742   9.804  69.541  1.00  0.00    -0.193 A  
HETATM    9  C   UNL     1      -9.118   9.293  70.786  1.00  0.00    -0.306 A  
HETATM   10  C   UNL     1     -11.070  10.109  68.970  1.00  0.00    -0.249 A  
HETATM   11  C   UNL     1     -10.467   9.194  71.124  1.00  0.00    -0.385 A  
HETATM   12  C   UNL     1     -11.443   9.599  70.215  1.00  0.00    -0.288 A  
ENDBRANCH   6   7
ENDBRANCH   5   6
ENDBRANCH   4   5
ENDBRANCH   3   4
BRANCH   3  13
HETATM   13  C   UNL     1     -12.081  13.286  66.833  1.00  0.00    -0.332 C  
BRANCH  13  14
HETATM   14  C   UNL     1     -11.676  14.344  67.861  1.00  0.00    -0.388 C  
BRANCH  14  15
HETATM   15  C   UNL     1     -11.073  13.741  69.133  1.00  0.00    -0.282 C  
BRANCH  15  16
HETATM   16  C   UNL     1     -12.057  13.912  70.262  1.00  0.00    -0.423 A  
HETATM   17  C   UNL     1     -14.099  14.160  72.156  1.00  0.00    -0.643 A  
HETATM   18  C   UNL     1     -13.691  15.274  71.420  1.00  0.00    -0.602 A  
HETATM   19  C   UNL     1     -12.458  12.802  71.018  1.00  0.00    -0.369 A  
HETATM   20  C   UNL     1     -13.479  12.930  71.960  1.00  0.00    -0.568 A  
HETATM   21  C   UNL     1     -12.669  15.152  70.481  1.00  0.00    -0.416 A  
ENDBRANCH  15  16
ENDBRANCH  14  15
ENDBRANCH  13  14
ENDBRANCH   3  13
ENDBRANCH   2   3
TORSDOF 9
ENDMDL
MODEL       61
REMARK 921   NORMALIZED FREE ENERGY PREDICTED BY IDOCK:   -4.93 KCAL/MOL
REMARK 922        TOTAL FREE ENERGY PREDICTED BY IDOCK:   -9.04 KCAL/MOL
REMARK 923 INTER-LIGAND FREE ENERGY PREDICTED BY IDOCK:   -8.19 KCAL/MOL
REMARK 924 INTRA-LIGAND FREE ENERGY PREDICTED BY IDOCK:   -0.85 KCAL/MOL
REMARK 927      BINDING AFFINITY PREDICTED BY RF-SCORE:    0.00 PKD
ROOT
HETATM    1  C   UNL     1     -12.129  12.214  63.874  1.00  0.00    -0.584 C  
HETATM    2  C   UNL     1     -12.769  13.084  64.951  1.00  0.00    -0.390 C  
ENDROOT
BRANCH   2   3
HETATM    3  N   UNL     1     -11.945  13.329  66.157  1.00  0.00    -0.399 NA 
BRANCH   3   4
HETATM    4  C   UNL     1     -10.998  12.227  66.412  1.00  0.00    -0.287 C  
BRANCH   4   5
HETATM    5  C   UNL     1     -11.392  11.244  67.532  1.00  0.00    -0.360 C  
BRANCH   5   6
HETATM    6  C   UNL     1     -11.706  11.915  68.873  1.00  0.00    -0.381 C  
BRANCH   6   7
HETATM    7  C   UNL     1     -11.891  10.878  69.961  1.00  0.00    -0.428 A  
HETATM    8  C   UNL     1     -10.927   9.881  70.165  1.00  0.00    -0.356 A  
HETATM    9  C   UNL     1     -11.068   8.964  71.210  1.00  0.00    -0.367 A  
HETATM   10  C   UNL     1     -13.000  10.935  70.818  1.00  0.00    -0.308 A  
HETATM   11  C   UNL     1     -12.171   9.034  72.058  1.00  0.00    -0.446 A  
HETATM   12  C   UNL     1     -13.139  10.018  71.861  1.00  0.00    -0.563 A  
ENDBRANCH   6   7
ENDBRANCH   5   6
ENDBRANCH   4   5
ENDBRANCH   3   4
BRANCH   3  13
HETATM   13  C   UNL     1     -11.233  14.619  66.029  1.00  0.00    -0.342 C  
BRANCH  13  14
HETATM   14  C   UNL     1     -10.852  15.285  67.352  1.00  0.00    -0.304 C  
BRANCH  14  15
HETATM   15  C   UNL     1      -9.433  15.862  67.343  1.00  0.00    -0.220 C  
BRANCH  15  16
HETATM   16  C   UNL     1      -9.515  17.339  67.050  1.00  0.00    -0.264 A  
HETATM   17  C   UNL     1      -9.550  20.122  66.782  1.00  0.00    -0.559 A  
HETATM   18  C   UNL     1     -10.665  19.456  67.296  1.00  0.00    -0.603 A  
HETATM   19  C   UNL     1      -8.408  18.012  66.516  1.00  0.00    -0.293 A  
HETATM   20  C   UNL     1      -8.429  19.401  66.386  1.00  0.00    -0.361 A  
HETATM   21  C   UNL     1     -10.650  18.070  67.424  1.00  0.00    -0.378 A  
ENDBRANCH  15  16
ENDBRANCH  14  15
ENDBRANCH  13  14
ENDBRANCH   3  13
ENDBRANCH   2   3
TORSDOF 9
ENDMDL
MODEL       62
REMARK 921   NORMALIZED FREE ENERGY PREDICTED BY IDOCK:   -4.92 KCAL/MOL
REMARK 922        TOTAL FREE ENERGY PREDICTED BY IDOCK:   -9.02 KCAL/MOL
REMARK 923 INTER-LIGAND FREE ENERGY PREDICTED BY IDOCK:   -7.31 KCAL/MOL
REMARK 924 INTRA-LIGAND FREE ENERGY PREDICTED BY IDOCK:   -1.71 KCAL/MOL
REMARK 927      BINDING AFFINITY PREDICTED BY RF-SCORE:    0.00 PKD
ROOT
HETATM    1  C   UNL     1      -8.300  13.755  68.481  1.00  0.00    -0.120 C  
HETATM    2  C   UNL     1      -9.040  14.980  67.953  1.00  0.00    -0.180 C  
ENDROOT
BRANCH   2   3
HETATM    3  N   UNL     1     -10.515  14.864  67.884  1.00  0.00    -0.248 NA 
BRANCH   3   4
HETATM    4  C   UNL     1     -11.156  15.215  69.166  1.00  0.00    -0.258 C  
BRANCH   4   5
HETATM    5  C   UNL     1     -11.877  14.065  69.897  1.00  0.00    -0.393 C  
BRANCH   5   6
HETATM    6  C   UNL     1     -12.021  12.787  69.064  1.00  0.00    -0.288 C  
BRANCH   6   7
HETATM    7  C   UNL     1     -11.849  11.559  69.934  1.00  0.00    -0.430 A  
HETATM    8  C   UNL     1     -12.744  11.297  70.981  1.00  0.00    -0.457 A  
HETATM    9  C   UNL     1     -12.621  10.131  71.741  1.00  0.00    -0.500 A  
HETATM   10  C   UNL     1     -10.828  10.635  69.667  1.00  0.00    -0.318 A  
HETATM   11  C   UNL     1     -11.606   9.218  71.463  1.00  0.00    -0.452 A  
HETATM   12  C   UNL     1     -10.706   9.471  70.428  1.00  0.00    -0.341 A  
ENDBRANCH   6   7
ENDBRANCH   5   6
ENDBRANCH   4   5
ENDBRANCH   3   4
BRANCH   3  13
HETATM   13  C   UNL     1     -11.037  15.704  66.785  1.00  0.00    -0.169 C  
BRANCH  13  14
HETATM   14  C   UNL     1     -11.134  15.010  65.426  1.00  0.00    -0.377 C  
BRANCH  14  15
HETATM   15  C   UNL     1     -12.146  13.860  65.413  1.00  0.00    -0.423 C  
BRANCH  15  16
HETATM   16  C   UNL     1     -11.436  12.596  65.001  1.00  0.00    -0.366 A  
HETATM   17  C   UNL     1      -9.860  10.406  64.266  1.00  0.00    -0.388 A  
HETATM   18  C   UNL     1     -10.344  11.277  63.288  1.00  0.00    -0.406 A  
HETATM   19  C   UNL     1     -10.963  11.706  65.976  1.00  0.00    -0.338 A  
HETATM   20  C   UNL     1     -10.175  10.617  65.604  1.00  0.00    -0.319 A  
HETATM   21  C   UNL     1     -11.134  12.364  63.654  1.00  0.00    -0.535 A  
ENDBRANCH  15  16
ENDBRANCH  14  15
ENDBRANCH  13  14
ENDBRANCH   3  13
ENDBRANCH   2   3
TORSDOF 9
ENDMDL
MODEL       63
REMARK 921   NORMALIZED FREE ENERGY PREDICTED BY IDOCK:   -4.91 KCAL/MOL
REMARK 922        TOTAL FREE ENERGY PREDICTED BY IDOCK:   -9.01 KCAL/MOL
REMARK 923 INTER-LIGAND FREE ENERGY PREDICTED BY IDOCK:   -7.00 KCAL/MOL
REMARK 924 INTRA-LIGAND FREE ENERGY PREDICTED BY IDOCK:   -2.01 KCAL/MOL
REMARK 927      BINDING AFFINITY PREDICTED BY RF-SCORE:    0.00 PKD
ROOT
HETATM    1  C   UNL     1      -9.892  10.405  65.080  1.00  0.00    -0.384 C  
HETATM    2  C   UNL     1     -10.816  11.507  64.572  1.00  0.00    -0.327 C  
ENDROOT
BRANCH   2   3
HETATM    3  N   UNL     1     -10.812  12.764  65.354  1.00  0.00    -0.281 NA 
BRANCH   3   4
HETATM    4  C   UNL     1     -10.443  13.928  64.525  1.00  0.00    -0.310 C  
BRANCH   4   5
HETATM    5  C   UNL     1     -10.995  15.290  64.989  1.00  0.00    -0.450 C  
BRANCH   5   6
HETATM    6  C   UNL     1      -9.948  16.206  65.630  1.00  0.00    -0.330 C  
BRANCH   6   7
HETATM    7  C   UNL     1      -9.921  16.022  67.133  1.00  0.00    -0.249 A  
HETATM    8  C   UNL     1      -9.009  15.138  67.726  1.00  0.00    -0.178 A  
HETATM    9  C   UNL     1      -8.943  15.017  69.116  1.00  0.00    -0.186 A  
HETATM   10  C   UNL     1     -10.768  16.777  67.958  1.00  0.00    -0.355 A  
HETATM   11  C   UNL     1      -9.786  15.776  69.925  1.00  0.00    -0.151 A  
HETATM   12  C   UNL     1     -10.701  16.655  69.347  1.00  0.00    -0.331 A  
ENDBRANCH   6   7
ENDBRANCH   5   6
ENDBRANCH   4   5
ENDBRANCH   3   4
BRANCH   3  13
HETATM   13  C   UNL     1     -12.130  12.968  65.993  1.00  0.00    -0.432 C  
BRANCH  13  14
HETATM   14  C   UNL     1     -12.092  13.175  67.508  1.00  0.00    -0.300 C  
BRANCH  14  15
HETATM   15  C   UNL     1     -11.176  12.179  68.225  1.00  0.00    -0.319 C  
BRANCH  15  16
HETATM   16  C   UNL     1     -11.754  11.885  69.586  1.00  0.00    -0.413 A  
HETATM   17  C   UNL     1     -13.089  11.289  71.970  1.00  0.00    -0.431 A  
HETATM   18  C   UNL     1     -13.032  12.608  71.513  1.00  0.00    -0.380 A  
HETATM   19  C   UNL     1     -11.799  10.567  70.061  1.00  0.00    -0.388 A  
HETATM   20  C   UNL     1     -12.468  10.275  71.249  1.00  0.00    -0.514 A  
HETATM   21  C   UNL     1     -12.361  12.905  70.329  1.00  0.00    -0.294 A  
ENDBRANCH  15  16
ENDBRANCH  14  15
ENDBRANCH  13  14
ENDBRANCH   3  13
ENDBRANCH   2   3
TORSDOF 9
ENDMDL
MODEL       64
REMARK 921   NORMALIZED FREE ENERGY PREDICTED BY IDOCK:   -4.90 KCAL/MOL
REMARK 922        TOTAL FREE ENERGY PREDICTED BY IDOCK:   -9.00 KCAL/MOL
REMARK 923 INTER-LIGAND FREE ENERGY PREDICTED BY IDOCK:   -5.87 KCAL/MOL
REMARK 924 INTRA-LIGAND FREE ENERGY PREDICTED BY IDOCK:   -3.13 KCAL/MOL
REMARK 927      BINDING AFFINITY PREDICTED BY RF-SCORE:    0.00 PKD
ROOT
HETATM    1  C   UNL     1      -6.332   8.739  65.918  1.00  0.00    -0.056 C  
HETATM    2  C   UNL     1      -6.981  10.098  65.679  1.00  0.00    -0.125 C  
ENDROOT
BRANCH   2   3
HETATM    3  N   UNL     1      -8.433  10.077  65.386  1.00  0.00    -0.143 NA 
BRANCH   3   4
HETATM    4  C   UNL     1      -8.703   9.867  63.950  1.00  0.00    -0.214 C  
BRANCH   4   5
HETATM    5  C   UNL     1      -9.403  11.029  63.218  1.00  0.00    -0.319 C  
BRANCH   5   6
HETATM    6  C   UNL     1     -10.911  11.114  63.477  1.00  0.00    -0.275 C  
BRANCH   6   7
HETATM    7  C   UNL     1     -11.265  12.418  64.162  1.00  0.00    -0.434 A  
HETATM    8  C   UNL     1     -12.537  12.606  64.720  1.00  0.00    -0.530 A  
HETATM    9  C   UNL     1     -12.841  13.784  65.406  1.00  0.00    -0.455 A  
HETATM   10  C   UNL     1     -10.306  13.432  64.301  1.00  0.00    -0.249 A  
HETATM   11  C   UNL     1     -11.878  14.783  65.543  1.00  0.00    -0.231 A  
HETATM   12  C   UNL     1     -10.611  14.609  64.988  1.00  0.00    -0.461 A  
ENDBRANCH   6   7
ENDBRANCH   5   6
ENDBRANCH   4   5
ENDBRANCH   3   4
BRANCH   3  13
HETATM   13  C   UNL     1      -9.099   9.042  66.205  1.00  0.00    -0.199 C  
BRANCH  13  14
HETATM   14  C   UNL     1      -9.755   9.552  67.489  1.00  0.00    -0.194 C  
BRANCH  14  15
HETATM   15  C   UNL     1     -10.996  10.409  67.226  1.00  0.00    -0.306 C  
BRANCH  15  16
HETATM   16  C   UNL     1     -10.823  11.736  67.922  1.00  0.00    -0.255 A  
HETATM   17  C   UNL     1     -10.595  14.324  68.955  1.00  0.00    -0.252 A  
HETATM   18  C   UNL     1      -9.501  13.725  68.327  1.00  0.00    -0.214 A  
HETATM   19  C   UNL     1     -11.911  12.336  68.571  1.00  0.00    -0.359 A  
HETATM   20  C   UNL     1     -11.793  13.629  69.082  1.00  0.00    -0.394 A  
HETATM   21  C   UNL     1      -9.613  12.433  67.818  1.00  0.00    -0.202 A  
ENDBRANCH  15  16
ENDBRANCH  14  15
ENDBRANCH  13  14
ENDBRANCH   3  13
ENDBRANCH   2   3
TORSDOF 9
ENDMDL
MODEL       65
REMARK 921   NORMALIZED FREE ENERGY PREDICTED BY IDOCK:   -4.89 KCAL/MOL
REMARK 922        TOTAL FREE ENERGY PREDICTED BY IDOCK:   -8.98 KCAL/MOL
REMARK 923 INTER-LIGAND FREE ENERGY PREDICTED BY IDOCK:   -6.77 KCAL/MOL
REMARK 924 INTRA-LIGAND FREE ENERGY PREDICTED BY IDOCK:   -2.21 KCAL/MOL
REMARK 927      BINDING AFFINITY PREDICTED BY RF-SCORE:    0.00 PKD
ROOT
HETATM    1  C   UNL     1     -14.381   7.104  71.819  1.00  0.00    -0.515 C  
HETATM    2  C   UNL     1     -14.370   8.626  71.723  1.00  0.00    -0.391 C  
ENDROOT
BRANCH   2   3
HETATM    3  N   UNL     1     -13.063   9.243  71.401  1.00  0.00    -0.335 NA 
BRANCH   3   4
HETATM    4  C   UNL     1     -13.103  10.714  71.520  1.00  0.00    -0.424 C  
BRANCH   4   5
HETATM    5  C   UNL     1     -12.063  11.487  70.686  1.00  0.00    -0.450 C  
BRANCH   5   6
HETATM    6  C   UNL     1     -12.033  11.097  69.205  1.00  0.00    -0.421 C  
BRANCH   6   7
HETATM    7  C   UNL     1     -11.875  12.323  68.331  1.00  0.00    -0.358 A  
HETATM    8  C   UNL     1     -11.896  13.607  68.894  1.00  0.00    -0.402 A  
HETATM    9  C   UNL     1     -11.688  14.733  68.095  1.00  0.00    -0.353 A  
HETATM   10  C   UNL     1     -11.648  12.191  66.953  1.00  0.00    -0.408 A  
HETATM   11  C   UNL     1     -11.457  14.589  66.729  1.00  0.00    -0.376 A  
HETATM   12  C   UNL     1     -11.440  13.318  66.156  1.00  0.00    -0.359 A  
ENDBRANCH   6   7
ENDBRANCH   5   6
ENDBRANCH   4   5
ENDBRANCH   3   4
BRANCH   3  13
HETATM   13  C   UNL     1     -12.008   8.672  72.265  1.00  0.00    -0.368 C  
BRANCH  13  14
HETATM   14  C   UNL     1     -10.883   7.948  71.523  1.00  0.00    -0.268 C  
BRANCH  14  15
HETATM   15  C   UNL     1      -9.590   8.767  71.452  1.00  0.00    -0.337 C  
BRANCH  15  16
HETATM   16  C   UNL     1      -9.270   9.039  70.004  1.00  0.00    -0.193 A  
HETATM   17  C   UNL     1      -8.920   9.725  67.316  1.00  0.00    -0.146 A  
HETATM   18  C   UNL     1      -9.684   8.607  67.657  1.00  0.00    -0.201 A  
HETATM   19  C   UNL     1      -8.488  10.148  69.654  1.00  0.00    -0.172 A  
HETATM   20  C   UNL     1      -8.318  10.488  68.312  1.00  0.00    -0.122 A  
HETATM   21  C   UNL     1      -9.853   8.262  68.996  1.00  0.00    -0.176 A  
ENDBRANCH  15  16
ENDBRANCH  14  15
ENDBRANCH  13  14
ENDBRANCH   3  13
ENDBRANCH   2   3
TORSDOF 9
ENDMDL
MODEL       66
REMARK 921   NORMALIZED FREE ENERGY PREDICTED BY IDOCK:   -4.88 KCAL/MOL
REMARK 922        TOTAL FREE ENERGY PREDICTED BY IDOCK:   -8.96 KCAL/MOL
REMARK 923 INTER-LIGAND FREE ENERGY PREDICTED BY IDOCK:   -7.13 KCAL/MOL
REMARK 924 INTRA-LIGAND FREE ENERGY PREDICTED BY IDOCK:   -1.83 KCAL/MOL
REMARK 927      BINDING AFFINITY PREDICTED BY RF-SCORE:    0.00 PKD
ROOT
HETATM    1  C   UNL     1      -7.748   8.584  64.734  1.00  0.00    -0.107 C  
HETATM    2  C   UNL     1      -7.812  10.105  64.828  1.00  0.00    -0.146 C  
ENDROOT
BRANCH   2   3
HETATM    3  N   UNL     1      -9.136  10.676  65.168  1.00  0.00    -0.193 NA 
BRANCH   3   4
HETATM    4  C   UNL     1     -10.065  10.635  64.023  1.00  0.00    -0.310 C  
BRANCH   4   5
HETATM    5  C   UNL     1     -10.347  11.985  63.334  1.00  0.00    -0.468 C  
BRANCH   5   6
HETATM    6  C   UNL     1     -11.619  12.685  63.823  1.00  0.00    -0.550 C  
BRANCH   6   7
HETATM    7  C   UNL     1     -11.327  13.538  65.041  1.00  0.00    -0.334 A  
HETATM    8  C   UNL     1     -12.306  13.729  66.027  1.00  0.00    -0.499 A  
HETATM    9  C   UNL     1     -12.014  14.463  67.179  1.00  0.00    -0.419 A  
HETATM   10  C   UNL     1     -10.056  14.100  65.229  1.00  0.00    -0.364 A  
HETATM   11  C   UNL     1     -10.746  15.012  67.357  1.00  0.00    -0.289 A  
HETATM   12  C   UNL     1      -9.767  14.833  66.381  1.00  0.00    -0.311 A  
ENDBRANCH   6   7
ENDBRANCH   5   6
ENDBRANCH   4   5
ENDBRANCH   3   4
BRANCH   3  13
HETATM   13  C   UNL     1      -9.705   9.969  66.336  1.00  0.00    -0.210 C  
BRANCH  13  14
HETATM   14  C   UNL     1     -10.749  10.759  67.127  1.00  0.00    -0.324 C  
BRANCH  14  15
HETATM   15  C   UNL     1     -10.211  11.293  68.458  1.00  0.00    -0.214 C  
BRANCH  15  16
HETATM   16  C   UNL     1     -11.232  11.023  69.534  1.00  0.00    -0.343 A  
HETATM   17  C   UNL     1     -12.915  10.611  71.729  1.00  0.00    -0.577 A  
HETATM   18  C   UNL     1     -12.115   9.568  71.257  1.00  0.00    -0.443 A  
HETATM   19  C   UNL     1     -12.052  12.060  70.001  1.00  0.00    -0.355 A  
HETATM   20  C   UNL     1     -12.888  11.850  71.098  1.00  0.00    -0.346 A  
HETATM   21  C   UNL     1     -11.282   9.771  70.160  1.00  0.00    -0.324 A  
ENDBRANCH  15  16
ENDBRANCH  14  15
ENDBRANCH  13  14
ENDBRANCH   3  13
ENDBRANCH   2   3
TORSDOF 9
ENDMDL
MODEL       67
REMARK 921   NORMALIZED FREE ENERGY PREDICTED BY IDOCK:   -4.87 KCAL/MOL
REMARK 922        TOTAL FREE ENERGY PREDICTED BY IDOCK:   -8.95 KCAL/MOL
REMARK 923 INTER-LIGAND FREE ENERGY PREDICTED BY IDOCK:   -6.61 KCAL/MOL
REMARK 924 INTRA-LIGAND FREE ENERGY PREDICTED BY IDOCK:   -2.35 KCAL/MOL
REMARK 927      BINDING AFFINITY PREDICTED BY RF-SCORE:    0.00 PKD
ROOT
HETATM    1  C   UNL     1     -10.054  19.715  68.381  1.00  0.00    -0.557 C  
HETATM    2  C   UNL     1     -10.766  18.510  67.778  1.00  0.00    -0.339 C  
ENDROOT
BRANCH   2   3
HETATM    3  N   UNL     1     -10.203  17.185  68.128  1.00  0.00    -0.313 NA 
BRANCH   3   4
HETATM    4  C   UNL     1     -11.258  16.211  68.472  1.00  0.00    -0.365 C  
BRANCH   4   5
HETATM    5  C   UNL     1     -10.794  14.961  69.245  1.00  0.00    -0.272 C  
BRANCH   5   6
HETATM    6  C   UNL     1     -11.711  13.745  69.077  1.00  0.00    -0.372 C  
BRANCH   6   7
HETATM    7  C   UNL     1     -10.926  12.546  68.585  1.00  0.00    -0.291 A  
HETATM    8  C   UNL     1     -11.585  11.360  68.232  1.00  0.00    -0.376 A  
HETATM    9  C   UNL     1     -10.866  10.278  67.719  1.00  0.00    -0.346 A  
HETATM   10  C   UNL     1      -9.535  12.624  68.421  1.00  0.00    -0.163 A  
HETATM   11  C   UNL     1      -9.486  10.369  67.555  1.00  0.00    -0.167 A  
HETATM   12  C   UNL     1      -8.819  11.541  67.909  1.00  0.00    -0.152 A  
ENDBRANCH   6   7
ENDBRANCH   5   6
ENDBRANCH   4   5
ENDBRANCH   3   4
BRANCH   3  13
HETATM   13  C   UNL     1      -9.363  16.684  67.019  1.00  0.00    -0.224 C  
BRANCH  13  14
HETATM   14  C   UNL     1     -10.120  15.947  65.913  1.00  0.00    -0.376 C  
BRANCH  14  15
HETATM   15  C   UNL     1      -9.491  14.596  65.558  1.00  0.00     0.008 C  
BRANCH  15  16
HETATM   16  C   UNL     1     -10.550  13.718  64.940  1.00  0.00    -0.427 A  
HETATM   17  C   UNL     1     -12.399  12.170  63.526  1.00  0.00    -0.682 A  
HETATM   18  C   UNL     1     -12.704  13.491  63.858  1.00  0.00     0.028 A  
HETATM   19  C   UNL     1     -10.258  12.384  64.621  1.00  0.00    -0.312 A  
HETATM   20  C   UNL     1     -11.183  11.617  63.913  1.00  0.00    -0.479 A  
HETATM   21  C   UNL     1     -11.785  14.261  64.567  1.00  0.00    -0.431 A  
ENDBRANCH  15  16
ENDBRANCH  14  15
ENDBRANCH  13  14
ENDBRANCH   3  13
ENDBRANCH   2   3
TORSDOF 9
ENDMDL
MODEL       68
REMARK 921   NORMALIZED FREE ENERGY PREDICTED BY IDOCK:   -4.86 KCAL/MOL
REMARK 922        TOTAL FREE ENERGY PREDICTED BY IDOCK:   -8.94 KCAL/MOL
REMARK 923 INTER-LIGAND FREE ENERGY PREDICTED BY IDOCK:   -6.83 KCAL/MOL
REMARK 924 INTRA-LIGAND FREE ENERGY PREDICTED BY IDOCK:   -2.11 KCAL/MOL
REMARK 927      BINDING AFFINITY PREDICTED BY RF-SCORE:    0.00 PKD
ROOT
HETATM    1  C   UNL     1     -13.122  11.705  71.720  1.00  0.00    -0.487 C  
HETATM    2  C   UNL     1     -13.137  10.258  71.240  1.00  0.00    -0.398 C  
ENDROOT
BRANCH   2   3
HETATM    3  N   UNL     1     -11.910   9.792  70.552  1.00  0.00    -0.260 NA 
BRANCH   3   4
HETATM    4  C   UNL     1     -11.300  10.857  69.733  1.00  0.00    -0.301 C  
BRANCH   4   5
HETATM    5  C   UNL     1     -11.480  10.722  68.208  1.00  0.00    -0.353 C  
BRANCH   5   6
HETATM    6  C   UNL     1     -10.336  11.324  67.386  1.00  0.00    -0.233 C  
BRANCH   6   7
HETATM    7  C   UNL     1     -10.822  11.740  66.014  1.00  0.00    -0.343 A  
HETATM    8  C   UNL     1     -10.182  11.269  64.858  1.00  0.00    -0.341 A  
HETATM    9  C   UNL     1     -10.670  11.603  63.593  1.00  0.00    -0.500 A  
HETATM   10  C   UNL     1     -11.956  12.554  65.876  1.00  0.00    -0.472 A  
HETATM   11  C   UNL     1     -11.801  12.408  63.469  1.00  0.00    -0.605 A  
HETATM   12  C   UNL     1     -12.443  12.886  64.611  1.00  0.00    -0.499 A  
ENDBRANCH   6   7
ENDBRANCH   5   6
ENDBRANCH   4   5
ENDBRANCH   3   4
BRANCH   3  13
HETATM   13  C   UNL     1     -10.944   9.268  71.542  1.00  0.00    -0.375 C  
BRANCH  13  14
HETATM   14  C   UNL     1      -9.514   9.102  71.027  1.00  0.00    -0.344 C  
BRANCH  14  15
HETATM   15  C   UNL     1      -9.213   7.679  70.547  1.00  0.00    -0.159 C  
BRANCH  15  16
HETATM   16  C   UNL     1      -9.152   7.681  69.041  1.00  0.00    -0.144 A  
HETATM   17  C   UNL     1      -9.183   7.949  66.258  1.00  0.00    -0.231 A  
HETATM   18  C   UNL     1     -10.223   7.279  66.906  1.00  0.00    -0.340 A  
HETATM   19  C   UNL     1      -8.101   8.335  68.382  1.00  0.00    -0.127 A  
HETATM   20  C   UNL     1      -8.123   8.468  66.993  1.00  0.00    -0.103 A  
HETATM   21  C   UNL     1     -10.204   7.140  68.292  1.00  0.00    -0.210 A  
ENDBRANCH  15  16
ENDBRANCH  14  15
ENDBRANCH  13  14
ENDBRANCH   3  13
ENDBRANCH   2   3
TORSDOF 9
ENDMDL
MODEL       69
REMARK 921   NORMALIZED FREE ENERGY PREDICTED BY IDOCK:   -4.84 KCAL/MOL
REMARK 922        TOTAL FREE ENERGY PREDICTED BY IDOCK:   -8.91 KCAL/MOL
REMARK 923 INTER-LIGAND FREE ENERGY PREDICTED BY IDOCK:   -7.27 KCAL/MOL
REMARK 924 INTRA-LIGAND FREE ENERGY PREDICTED BY IDOCK:   -1.63 KCAL/MOL
REMARK 927      BINDING AFFINITY PREDICTED BY RF-SCORE:    0.00 PKD
ROOT
HETATM    1  C   UNL     1     -11.040   6.544  67.363  1.00  0.00    -0.411 C  
HETATM    2  C   UNL     1     -10.409   7.908  67.103  1.00  0.00    -0.328 C  
ENDROOT
BRANCH   2   3
HETATM    3  N   UNL     1     -10.521   8.892  68.204  1.00  0.00    -0.219 NA 
BRANCH   3   4
HETATM    4  C   UNL     1      -9.304   8.927  69.038  1.00  0.00    -0.144 C  
BRANCH   4   5
HETATM    5  C   UNL     1      -9.335   8.062  70.314  1.00  0.00    -0.159 C  
BRANCH   5   6
HETATM    6  C   UNL     1      -9.908   8.777  71.542  1.00  0.00    -0.371 C  
BRANCH   6   7
HETATM    7  C   UNL     1     -11.412   8.609  71.607  1.00  0.00    -0.375 A  
HETATM    8  C   UNL     1     -12.247   9.726  71.752  1.00  0.00    -0.449 A  
HETATM    9  C   UNL     1     -13.636   9.576  71.749  1.00  0.00    -0.447 A  
HETATM   10  C   UNL     1     -11.994   7.341  71.465  1.00  0.00    -0.349 A  
HETATM   11  C   UNL     1     -14.203   8.311  71.601  1.00  0.00    -0.530 A  
HETATM   12  C   UNL     1     -13.382   7.193  71.461  1.00  0.00    -0.413 A  
ENDBRANCH   6   7
ENDBRANCH   5   6
ENDBRANCH   4   5
ENDBRANCH   3   4
BRANCH   3  13
HETATM   13  C   UNL     1     -10.825  10.231  67.657  1.00  0.00    -0.307 C  
BRANCH  13  14
HETATM   14  C   UNL     1     -10.752  11.377  68.666  1.00  0.00    -0.241 C  
BRANCH  14  15
HETATM   15  C   UNL     1     -12.132  11.900  69.077  1.00  0.00    -0.245 C  
BRANCH  15  16
HETATM   16  C   UNL     1     -11.954  13.207  69.809  1.00  0.00    -0.382 A  
HETATM   17  C   UNL     1     -11.873  15.726  71.020  1.00  0.00    -0.460 A  
HETATM   18  C   UNL     1     -11.180  15.501  69.828  1.00  0.00    -0.307 A  
HETATM   19  C   UNL     1     -12.631  13.433  71.016  1.00  0.00    -0.425 A  
HETATM   20  C   UNL     1     -12.589  14.692  71.615  1.00  0.00    -0.403 A  
HETATM   21  C   UNL     1     -11.216  14.245  69.229  1.00  0.00    -0.309 A  
ENDBRANCH  15  16
ENDBRANCH  14  15
ENDBRANCH  13  14
ENDBRANCH   3  13
ENDBRANCH   2   3
TORSDOF 9
ENDMDL
MODEL       70
REMARK 921   NORMALIZED FREE ENERGY PREDICTED BY IDOCK:   -4.84 KCAL/MOL
REMARK 922        TOTAL FREE ENERGY PREDICTED BY IDOCK:   -8.90 KCAL/MOL
REMARK 923 INTER-LIGAND FREE ENERGY PREDICTED BY IDOCK:   -6.10 KCAL/MOL
REMARK 924 INTRA-LIGAND FREE ENERGY PREDICTED BY IDOCK:   -2.80 KCAL/MOL
REMARK 927      BINDING AFFINITY PREDICTED BY RF-SCORE:    0.00 PKD
ROOT
HETATM    1  C   UNL     1     -11.138  12.355  65.339  1.00  0.00    -0.344 C  
HETATM    2  C   UNL     1     -11.665  12.629  66.743  1.00  0.00    -0.392 C  
ENDROOT
BRANCH   2   3
HETATM    3  N   UNL     1     -11.204  11.698  67.799  1.00  0.00    -0.247 NA 
BRANCH   3   4
HETATM    4  C   UNL     1     -12.120  11.679  68.956  1.00  0.00    -0.225 C  
BRANCH   4   5
HETATM    5  C   UNL     1     -11.540  11.112  70.266  1.00  0.00    -0.388 C  
BRANCH   5   6
HETATM    6  C   UNL     1     -12.142   9.768  70.688  1.00  0.00    -0.311 C  
BRANCH   6   7
HETATM    7  C   UNL     1     -11.189   9.013  71.590  1.00  0.00    -0.431 A  
HETATM    8  C   UNL     1     -11.678   8.131  72.565  1.00  0.00    -0.457 A  
HETATM    9  C   UNL     1     -10.796   7.388  73.353  1.00  0.00    -0.362 A  
HETATM   10  C   UNL     1      -9.802   9.139  71.426  1.00  0.00    -0.354 A  
HETATM   11  C   UNL     1      -9.420   7.518  73.176  1.00  0.00    -0.272 A  
HETATM   12  C   UNL     1      -8.922   8.395  72.214  1.00  0.00    -0.303 A  
ENDBRANCH   6   7
ENDBRANCH   5   6
ENDBRANCH   4   5
ENDBRANCH   3   4
BRANCH   3  13
HETATM   13  C   UNL     1     -11.035  10.341  67.237  1.00  0.00    -0.210 C  
BRANCH  13  14
HETATM   14  C   UNL     1      -9.733   9.637  67.621  1.00  0.00    -0.182 C  
BRANCH  14  15
HETATM   15  C   UNL     1      -9.578   8.265  66.958  1.00  0.00    -0.249 C  
BRANCH  15  16
HETATM   16  C   UNL     1      -9.730   7.199  68.014  1.00  0.00    -0.152 A  
HETATM   17  C   UNL     1     -10.010   5.446  70.175  1.00  0.00    -0.301 A  
HETATM   18  C   UNL     1      -8.737   5.778  69.706  1.00  0.00    -0.127 A  
HETATM   19  C   UNL     1     -11.005   6.845  68.477  1.00  0.00    -0.198 A  
HETATM   20  C   UNL     1     -11.139   5.973  69.557  1.00  0.00    -0.468 A  
HETATM   21  C   UNL     1      -8.598   6.646  68.625  1.00  0.00    -0.125 A  
ENDBRANCH  15  16
ENDBRANCH  14  15
ENDBRANCH  13  14
ENDBRANCH   3  13
ENDBRANCH   2   3
TORSDOF 9
ENDMDL
MODEL       71
REMARK 921   NORMALIZED FREE ENERGY PREDICTED BY IDOCK:   -4.82 KCAL/MOL
REMARK 922        TOTAL FREE ENERGY PREDICTED BY IDOCK:   -8.88 KCAL/MOL
REMARK 923 INTER-LIGAND FREE ENERGY PREDICTED BY IDOCK:   -6.57 KCAL/MOL
REMARK 924 INTRA-LIGAND FREE ENERGY PREDICTED BY IDOCK:   -2.30 KCAL/MOL
REMARK 927      BINDING AFFINITY PREDICTED BY RF-SCORE:    0.00 PKD
ROOT
HETATM    1  C   UNL     1     -14.323  13.887  72.111  1.00  0.00    -0.530 C  
HETATM    2  C   UNL     1     -13.040  13.063  72.074  1.00  0.00    -0.379 C  
ENDROOT
BRANCH   2   3
HETATM    3  N   UNL     1     -12.211  13.214  70.857  1.00  0.00    -0.320 NA 
BRANCH   3   4
HETATM    4  C   UNL     1     -12.642  12.300  69.780  1.00  0.00     0.307 C  
BRANCH   4   5
HETATM    5  C   UNL     1     -11.682  12.170  68.581  1.00  0.00    -0.382 C  
BRANCH   5   6
HETATM    6  C   UNL     1     -12.137  12.925  67.329  1.00  0.00    -0.275 C  
BRANCH   6   7
HETATM    7  C   UNL     1     -11.520  12.321  66.085  1.00  0.00    -0.429 A  
HETATM    8  C   UNL     1     -11.997  12.669  64.813  1.00  0.00    -0.458 A  
HETATM    9  C   UNL     1     -11.386  12.160  63.665  1.00  0.00    -0.545 A  
HETATM   10  C   UNL     1     -10.424  11.452  66.183  1.00  0.00    -0.303 A  
HETATM   11  C   UNL     1     -10.294  11.301  63.775  1.00  0.00    -0.453 A  
HETATM   12  C   UNL     1      -9.814  10.944  65.035  1.00  0.00    -0.336 A  
ENDBRANCH   6   7
ENDBRANCH   5   6
ENDBRANCH   4   5
ENDBRANCH   3   4
BRANCH   3  13
HETATM   13  C   UNL     1     -12.236  14.619  70.398  1.00  0.00    -0.329 C  
BRANCH  13  14
HETATM   14  C   UNL     1     -10.978  15.428  70.715  1.00  0.00    -0.349 C  
BRANCH  14  15
HETATM   15  C   UNL     1     -10.778  16.616  69.769  1.00  0.00    -0.254 C  
BRANCH  15  16
HETATM   16  C   UNL     1     -10.345  16.094  68.422  1.00  0.00    -0.257 A  
HETATM   17  C   UNL     1      -9.336  15.346  65.925  1.00  0.00    -0.329 A  
HETATM   18  C   UNL     1     -10.391  16.257  66.006  1.00  0.00    -0.363 A  
HETATM   19  C   UNL     1      -9.300  15.164  68.332  1.00  0.00    -0.197 A  
HETATM   20  C   UNL     1      -8.798  14.796  67.084  1.00  0.00    -0.234 A  
HETATM   21  C   UNL     1     -10.897  16.625  67.250  1.00  0.00    -0.158 A  
ENDBRANCH  15  16
ENDBRANCH  14  15
ENDBRANCH  13  14
ENDBRANCH   3  13
ENDBRANCH   2   3
TORSDOF 9
ENDMDL
MODEL       72
REMARK 921   NORMALIZED FREE ENERGY PREDICTED BY IDOCK:   -4.82 KCAL/MOL
REMARK 922        TOTAL FREE ENERGY PREDICTED BY IDOCK:   -8.87 KCAL/MOL
REMARK 923 INTER-LIGAND FREE ENERGY PREDICTED BY IDOCK:   -6.87 KCAL/MOL
REMARK 924 INTRA-LIGAND FREE ENERGY PREDICTED BY IDOCK:   -1.99 KCAL/MOL
REMARK 927      BINDING AFFINITY PREDICTED BY RF-SCORE:    0.00 PKD
ROOT
HETATM    1  C   UNL     1     -12.201   8.960  72.062  1.00  0.00    -0.447 C  
HETATM    2  C   UNL     1     -12.981  10.233  71.753  1.00  0.00    -0.469 C  
ENDROOT
BRANCH   2   3
HETATM    3  N   UNL     1     -12.215  11.318  71.098  1.00  0.00    -0.294 NA 
BRANCH   3   4
HETATM    4  C   UNL     1     -11.584  10.868  69.842  1.00  0.00    -0.331 C  
BRANCH   4   5
HETATM    5  C   UNL     1     -11.963  11.660  68.576  1.00  0.00    -0.284 C  
BRANCH   5   6
HETATM    6  C   UNL     1     -10.763  12.210  67.798  1.00  0.00    -0.241 C  
BRANCH   6   7
HETATM    7  C   UNL     1     -11.105  12.381  66.333  1.00  0.00    -0.343 A  
HETATM    8  C   UNL     1     -10.493  11.576  65.361  1.00  0.00    -0.333 A  
HETATM    9  C   UNL     1     -10.857  11.692  64.017  1.00  0.00    -0.455 A  
HETATM   10  C   UNL     1     -12.081  13.304  65.932  1.00  0.00    -0.493 A  
HETATM   11  C   UNL     1     -11.833  12.609  63.632  1.00  0.00    -0.606 A  
HETATM   12  C   UNL     1     -12.443  13.418  64.589  1.00  0.00    -0.385 A  
ENDBRANCH   6   7
ENDBRANCH   5   6
ENDBRANCH   4   5
ENDBRANCH   3   4
BRANCH   3  13
HETATM   13  C   UNL     1     -13.092  12.485  70.860  1.00  0.00     0.146 C  
BRANCH  13  14
HETATM   14  C   UNL     1     -12.627  13.790  71.507  1.00  0.00    -0.405 C  
BRANCH  14  15
HETATM   15  C   UNL     1     -12.916  15.021  70.642  1.00  0.00    -0.394 C  
BRANCH  15  16
HETATM   16  C   UNL     1     -11.712  15.299  69.779  1.00  0.00    -0.347 A  
HETATM   17  C   UNL     1      -9.483  16.097  68.290  1.00  0.00    -0.208 A  
HETATM   18  C   UNL     1     -10.765  16.220  67.749  1.00  0.00    -0.325 A  
HETATM   19  C   UNL     1     -10.421  15.159  70.308  1.00  0.00    -0.151 A  
HETATM   20  C   UNL     1      -9.313  15.561  69.563  1.00  0.00    -0.276 A  
HETATM   21  C   UNL     1     -11.874  15.817  68.489  1.00  0.00    -0.233 A  
ENDBRANCH  15  16
ENDBRANCH  14  15
ENDBRANCH  13  14
ENDBRANCH   3  13
ENDBRANCH   2   3
TORSDOF 9
ENDMDL
MODEL       73
REMARK 921   NORMALIZED FREE ENERGY PREDICTED BY IDOCK:   -4.81 KCAL/MOL
REMARK 922        TOTAL FREE ENERGY PREDICTED BY IDOCK:   -8.86 KCAL/MOL
REMARK 923 INTER-LIGAND FREE ENERGY PREDICTED BY IDOCK:   -7.23 KCAL/MOL
REMARK 924 INTRA-LIGAND FREE ENERGY PREDICTED BY IDOCK:   -1.63 KCAL/MOL
REMARK 927      BINDING AFFINITY PREDICTED BY RF-SCORE:    0.00 PKD
ROOT
HETATM    1  C   UNL     1      -7.735  13.597  68.209  1.00  0.00    -0.140 C  
HETATM    2  C   UNL     1      -8.241  14.481  67.074  1.00  0.00    -0.135 C  
ENDROOT
BRANCH   2   3
HETATM    3  N   UNL     1      -9.612  15.015  67.234  1.00  0.00    -0.205 NA 
BRANCH   3   4
HETATM    4  C   UNL     1      -9.731  15.885  68.420  1.00  0.00    -0.214 C  
BRANCH   4   5
HETATM    5  C   UNL     1     -10.694  15.398  69.520  1.00  0.00    -0.269 C  
BRANCH   5   6
HETATM    6  C   UNL     1     -11.837  14.516  69.007  1.00  0.00    -0.354 C  
BRANCH   6   7
HETATM    7  C   UNL     1     -12.236  13.494  70.051  1.00  0.00    -0.381 A  
HETATM    8  C   UNL     1     -12.970  13.880  71.181  1.00  0.00    -0.388 A  
HETATM    9  C   UNL     1     -13.391  12.926  72.111  1.00  0.00    -0.615 A  
HETATM   10  C   UNL     1     -11.927  12.137  69.874  1.00  0.00    -0.380 A  
HETATM   11  C   UNL     1     -13.083  11.580  71.920  1.00  0.00    -0.492 A  
HETATM   12  C   UNL     1     -12.349  11.185  70.803  1.00  0.00    -0.504 A  
ENDBRANCH   6   7
ENDBRANCH   5   6
ENDBRANCH   4   5
ENDBRANCH   3   4
BRANCH   3  13
HETATM   13  C   UNL     1     -10.020  15.735  66.008  1.00  0.00    -0.332 C  
BRANCH  13  14
HETATM   14  C   UNL     1     -10.681  14.868  64.935  1.00  0.00    -0.426 C  
BRANCH  14  15
HETATM   15  C   UNL     1     -11.616  13.805  65.519  1.00  0.00    -0.335 C  
BRANCH  15  16
HETATM   16  C   UNL     1     -10.908  12.474  65.496  1.00  0.00    -0.312 A  
HETATM   17  C   UNL     1      -9.862   9.883  65.381  1.00  0.00    -0.384 A  
HETATM   18  C   UNL     1     -10.352  10.385  66.589  1.00  0.00    -0.292 A  
HETATM   19  C   UNL     1     -10.396  11.971  64.292  1.00  0.00    -0.357 A  
HETATM   20  C   UNL     1      -9.878  10.677  64.239  1.00  0.00    -0.391 A  
HETATM   21  C   UNL     1     -10.867  11.678  66.647  1.00  0.00    -0.327 A  
ENDBRANCH  15  16
ENDBRANCH  14  15
ENDBRANCH  13  14
ENDBRANCH   3  13
ENDBRANCH   2   3
TORSDOF 9
ENDMDL
MODEL       74
REMARK 921   NORMALIZED FREE ENERGY PREDICTED BY IDOCK:   -4.81 KCAL/MOL
REMARK 922        TOTAL FREE ENERGY PREDICTED BY IDOCK:   -8.85 KCAL/MOL
REMARK 923 INTER-LIGAND FREE ENERGY PREDICTED BY IDOCK:   -8.06 KCAL/MOL
REMARK 924 INTRA-LIGAND FREE ENERGY PREDICTED BY IDOCK:   -0.79 KCAL/MOL
REMARK 927      BINDING AFFINITY PREDICTED BY RF-SCORE:    0.00 PKD
ROOT
HETATM    1  C   UNL     1     -13.864  15.370  71.645  1.00  0.00    -0.606 C  
HETATM    2  C   UNL     1     -13.441  13.914  71.810  1.00  0.00    -0.384 C  
ENDROOT
BRANCH   2   3
HETATM    3  N   UNL     1     -12.269  13.487  71.011  1.00  0.00    -0.328 NA 
BRANCH   3   4
HETATM    4  C   UNL     1     -12.411  12.101  70.521  1.00  0.00    -0.272 C  
BRANCH   4   5
HETATM    5  C   UNL     1     -12.862  11.060  71.564  1.00  0.00    -0.555 C  
BRANCH   5   6
HETATM    6  C   UNL     1     -13.263   9.708  70.967  1.00  0.00    -0.298 C  
BRANCH   6   7
HETATM    7  C   UNL     1     -12.397   8.598  71.524  1.00  0.00    -0.370 A  
HETATM    8  C   UNL     1     -12.853   7.272  71.525  1.00  0.00    -0.430 A  
HETATM    9  C   UNL     1     -12.028   6.241  71.981  1.00  0.00    -0.353 A  
HETATM   10  C   UNL     1     -11.103   8.870  71.992  1.00  0.00    -0.421 A  
HETATM   11  C   UNL     1     -10.742   6.523  72.439  1.00  0.00    -0.253 A  
HETATM   12  C   UNL     1     -10.280   7.839  72.448  1.00  0.00    -0.305 A  
ENDBRANCH   6   7
ENDBRANCH   5   6
ENDBRANCH   4   5
ENDBRANCH   3   4
BRANCH   3  13
HETATM   13  C   UNL     1     -12.055  14.424  69.888  1.00  0.00    -0.344 C  
BRANCH  13  14
HETATM   14  C   UNL     1     -11.453  13.801  68.627  1.00  0.00    -0.336 C  
BRANCH  14  15
HETATM   15  C   UNL     1     -11.959  14.454  67.338  1.00  0.00    -0.407 C  
BRANCH  15  16
HETATM   16  C   UNL     1     -11.668  13.530  66.182  1.00  0.00    -0.397 A  
HETATM   17  C   UNL     1     -11.387  11.672  64.112  1.00  0.00    -0.397 A  
HETATM   18  C   UNL     1     -10.822  11.414  65.362  1.00  0.00    -0.292 A  
HETATM   19  C   UNL     1     -12.216  13.791  64.919  1.00  0.00    -0.443 A  
HETATM   20  C   UNL     1     -12.075  12.860  63.890  1.00  0.00    -0.553 A  
HETATM   21  C   UNL     1     -10.957  12.342  66.392  1.00  0.00    -0.315 A  
ENDBRANCH  15  16
ENDBRANCH  14  15
ENDBRANCH  13  14
ENDBRANCH   3  13
ENDBRANCH   2   3
TORSDOF 9
ENDMDL
MODEL       75
REMARK 921   NORMALIZED FREE ENERGY PREDICTED BY IDOCK:   -4.79 KCAL/MOL
REMARK 922        TOTAL FREE ENERGY PREDICTED BY IDOCK:   -8.83 KCAL/MOL
REMARK 923 INTER-LIGAND FREE ENERGY PREDICTED BY IDOCK:   -6.97 KCAL/MOL
REMARK 924 INTRA-LIGAND FREE ENERGY PREDICTED BY IDOCK:   -1.86 KCAL/MOL
REMARK 927      BINDING AFFINITY PREDICTED BY RF-SCORE:    0.00 PKD
ROOT
HETATM    1  C   UNL     1     -10.394   6.284  68.373  1.00  0.00    -0.237 C  
HETATM    2  C   UNL     1      -9.358   7.106  67.613  1.00  0.00    -0.127 C  
ENDROOT
BRANCH   2   3
HETATM    3  N   UNL     1      -9.374   8.564  67.874  1.00  0.00    -0.135 NA 
BRANCH   3   4
HETATM    4  C   UNL     1      -8.854   9.335  66.728  1.00  0.00    -0.127 C  
BRANCH   4   5
HETATM    5  C   UNL     1      -9.894   9.762  65.674  1.00  0.00    -0.371 C  
BRANCH   5   6
HETATM    6  C   UNL     1      -9.572  11.087  64.976  1.00  0.00    -0.291 C  
BRANCH   6   7
HETATM    7  C   UNL     1     -10.318  12.232  65.629  1.00  0.00    -0.287 A  
HETATM    8  C   UNL     1      -9.637  13.161  66.428  1.00  0.00    -0.259 A  
HETATM    9  C   UNL     1     -10.316  14.252  66.977  1.00  0.00    -0.267 A  
HETATM   10  C   UNL     1     -11.689  12.414  65.395  1.00  0.00    -0.452 A  
HETATM   11  C   UNL     1     -11.677  14.425  66.734  1.00  0.00    -0.415 A  
HETATM   12  C   UNL     1     -12.365  13.504  65.945  1.00  0.00    -0.507 A  
ENDBRANCH   6   7
ENDBRANCH   5   6
ENDBRANCH   4   5
ENDBRANCH   3   4
BRANCH   3  13
HETATM   13  C   UNL     1     -10.742   9.000  68.227  1.00  0.00    -0.103 C  
BRANCH  13  14
HETATM   14  C   UNL     1     -10.842   9.875  69.477  1.00  0.00    -0.274 C  
BRANCH  14  15
HETATM   15  C   UNL     1     -10.955  11.368  69.153  1.00  0.00    -0.289 C  
BRANCH  15  16
HETATM   16  C   UNL     1     -11.926  11.999  70.119  1.00  0.00    -0.401 A  
HETATM   17  C   UNL     1     -13.491  13.205  72.098  1.00  0.00    -0.653 A  
HETATM   18  C   UNL     1     -13.342  11.817  72.076  1.00  0.00    -0.417 A  
HETATM   19  C   UNL     1     -12.096  13.391  70.135  1.00  0.00    -0.415 A  
HETATM   20  C   UNL     1     -12.875  13.988  71.126  1.00  0.00    -0.427 A  
HETATM   21  C   UNL     1     -12.567  11.216  71.086  1.00  0.00    -0.513 A  
ENDBRANCH  15  16
ENDBRANCH  14  15
ENDBRANCH  13  14
ENDBRANCH   3  13
ENDBRANCH   2   3
TORSDOF 9
ENDMDL
MODEL       76
REMARK 921   NORMALIZED FREE ENERGY PREDICTED BY IDOCK:   -4.78 KCAL/MOL
REMARK 922        TOTAL FREE ENERGY PREDICTED BY IDOCK:   -8.82 KCAL/MOL
REMARK 923 INTER-LIGAND FREE ENERGY PREDICTED BY IDOCK:   -7.86 KCAL/MOL
REMARK 924 INTRA-LIGAND FREE ENERGY PREDICTED BY IDOCK:   -0.96 KCAL/MOL
REMARK 927      BINDING AFFINITY PREDICTED BY RF-SCORE:    0.00 PKD
ROOT
HETATM    1  C   UNL     1      -9.976   9.806  69.227  1.00  0.00    -0.201 C  
HETATM    2  C   UNL     1     -11.425  10.247  69.052  1.00  0.00    -0.137 C  
ENDROOT
BRANCH   2   3
HETATM    3  N   UNL     1     -12.193  10.452  70.301  1.00  0.00    -0.283 NA 
BRANCH   3   4
HETATM    4  C   UNL     1     -11.697   9.599  71.400  1.00  0.00    -0.404 C  
BRANCH   4   5
HETATM    5  C   UNL     1     -12.751   8.718  72.098  1.00  0.00    -0.461 C  
BRANCH   5   6
HETATM    6  C   UNL     1     -13.142   7.464  71.309  1.00  0.00    -0.349 C  
BRANCH   6   7
HETATM    7  C   UNL     1     -11.951   6.545  71.140  1.00  0.00    -0.365 A  
HETATM    8  C   UNL     1     -11.385   5.901  72.250  1.00  0.00    -0.351 A  
HETATM    9  C   UNL     1     -10.327   5.004  72.083  1.00  0.00    -0.276 A  
HETATM   10  C   UNL     1     -11.433   6.277  69.864  1.00  0.00    -0.459 A  
HETATM   11  C   UNL     1      -9.825   4.742  70.810  1.00  0.00    -0.280 A  
HETATM   12  C   UNL     1     -10.376   5.381  69.700  1.00  0.00    -0.361 A  
ENDBRANCH   6   7
ENDBRANCH   5   6
ENDBRANCH   4   5
ENDBRANCH   3   4
BRANCH   3  13
HETATM   13  C   UNL     1     -12.162  11.879  70.686  1.00  0.00    -0.331 C  
BRANCH  13  14
HETATM   14  C   UNL     1     -12.146  12.866  69.518  1.00  0.00    -0.274 C  
BRANCH  14  15
HETATM   15  C   UNL     1     -11.439  14.182  69.858  1.00  0.00    -0.288 C  
BRANCH  15  16
HETATM   16  C   UNL     1     -12.196  14.863  70.970  1.00  0.00    -0.379 A  
HETATM   17  C   UNL     1     -13.638  15.851  73.152  1.00  0.00    -0.580 A  
HETATM   18  C   UNL     1     -14.306  15.496  71.978  1.00  0.00    -0.600 A  
HETATM   19  C   UNL     1     -11.531  15.241  72.145  1.00  0.00    -0.499 A  
HETATM   20  C   UNL     1     -12.255  15.731  73.232  1.00  0.00    -0.619 A  
HETATM   21  C   UNL     1     -13.586  15.009  70.889  1.00  0.00    -0.363 A  
ENDBRANCH  15  16
ENDBRANCH  14  15
ENDBRANCH  13  14
ENDBRANCH   3  13
ENDBRANCH   2   3
TORSDOF 9
ENDMDL
MODEL       77
REMARK 921   NORMALIZED FREE ENERGY PREDICTED BY IDOCK:   -4.77 KCAL/MOL
REMARK 922        TOTAL FREE ENERGY PREDICTED BY IDOCK:   -8.80 KCAL/MOL
REMARK 923 INTER-LIGAND FREE ENERGY PREDICTED BY IDOCK:   -5.86 KCAL/MOL
REMARK 924 INTRA-LIGAND FREE ENERGY PREDICTED BY IDOCK:   -2.94 KCAL/MOL
REMARK 927      BINDING AFFINITY PREDICTED BY RF-SCORE:    0.00 PKD
ROOT
HETATM    1  C   UNL     1     -10.637  16.337  65.382  1.00  0.00    -0.371 C  
HETATM    2  C   UNL     1     -11.470  15.437  64.475  1.00  0.00    -0.311 C  
ENDROOT
BRANCH   2   3
HETATM    3  N   UNL     1     -11.583  14.022  64.898  1.00  0.00    -0.350 NA 
BRANCH   3   4
HETATM    4  C   UNL     1     -12.600  13.842  65.952  1.00  0.00    -0.447 C  
BRANCH   4   5
HETATM    5  C   UNL     1     -12.060  13.564  67.369  1.00  0.00    -0.360 C  
BRANCH   5   6
HETATM    6  C   UNL     1     -11.730  12.092  67.637  1.00  0.00    -0.386 C  
BRANCH   6   7
HETATM    7  C   UNL     1     -10.244  11.908  67.859  1.00  0.00    -0.203 A  
HETATM    8  C   UNL     1      -9.774  10.955  68.774  1.00  0.00    -0.196 A  
HETATM    9  C   UNL     1      -8.402  10.742  68.931  1.00  0.00    -0.147 A  
HETATM   10  C   UNL     1      -9.315  12.646  67.111  1.00  0.00    -0.210 A  
HETATM   11  C   UNL     1      -7.489  11.478  68.178  1.00  0.00    -0.101 A  
HETATM   12  C   UNL     1      -7.945  12.432  67.270  1.00  0.00    -0.178 A  
ENDBRANCH   6   7
ENDBRANCH   5   6
ENDBRANCH   4   5
ENDBRANCH   3   4
BRANCH   3  13
HETATM   13  C   UNL     1     -11.879  13.167  63.728  1.00  0.00    -0.486 C  
BRANCH  13  14
HETATM   14  C   UNL     1     -11.384  11.724  63.837  1.00  0.00    -0.494 C  
BRANCH  14  15
HETATM   15  C   UNL     1      -9.955  11.542  63.316  1.00  0.00    -0.435 C  
BRANCH  15  16
HETATM   16  C   UNL     1      -9.287  10.450  64.113  1.00  0.00    -0.323 A  
HETATM   17  C   UNL     1      -7.987   8.637  65.798  1.00  0.00    -0.106 A  
HETATM   18  C   UNL     1      -7.266   9.312  64.811  1.00  0.00    -0.103 A  
HETATM   19  C   UNL     1     -10.008   9.754  65.093  1.00  0.00    -0.197 A  
HETATM   20  C   UNL     1      -9.354   8.852  65.934  1.00  0.00    -0.301 A  
HETATM   21  C   UNL     1      -7.915  10.210  63.967  1.00  0.00    -0.154 A  
ENDBRANCH  15  16
ENDBRANCH  14  15
ENDBRANCH  13  14
ENDBRANCH   3  13
ENDBRANCH   2   3
TORSDOF 9
ENDMDL
MODEL       78
REMARK 921   NORMALIZED FREE ENERGY PREDICTED BY IDOCK:   -4.74 KCAL/MOL
REMARK 922        TOTAL FREE ENERGY PREDICTED BY IDOCK:   -8.76 KCAL/MOL
REMARK 923 INTER-LIGAND FREE ENERGY PREDICTED BY IDOCK:   -6.91 KCAL/MOL
REMARK 924 INTRA-LIGAND FREE ENERGY PREDICTED BY IDOCK:   -1.84 KCAL/MOL
REMARK 927      BINDING AFFINITY PREDICTED BY RF-SCORE:    0.00 PKD
ROOT
HETATM    1  C   UNL     1      -8.743  13.211  68.134  1.00  0.00    -0.193 C  
HETATM    2  C   UNL     1      -9.273  11.857  67.676  1.00  0.00    -0.183 C  
ENDROOT
BRANCH   2   3
HETATM    3  N   UNL     1     -10.747  11.719  67.638  1.00  0.00    -0.206 NA 
BRANCH   3   4
HETATM    4  C   UNL     1     -11.235  11.377  66.287  1.00  0.00    -0.161 C  
BRANCH   4   5
HETATM    5  C   UNL     1     -11.533  12.569  65.356  1.00  0.00    -0.383 C  
BRANCH   5   6
HETATM    6  C   UNL     1     -12.422  13.647  65.983  1.00  0.00    -0.477 C  
BRANCH   6   7
HETATM    7  C   UNL     1     -11.607  14.874  66.338  1.00  0.00    -0.238 A  
HETATM    8  C   UNL     1     -11.675  15.425  67.626  1.00  0.00    -0.122 A  
HETATM    9  C   UNL     1     -10.875  16.517  67.970  1.00  0.00    -0.337 A  
HETATM   10  C   UNL     1     -10.729  15.441  65.403  1.00  0.00    -0.416 A  
HETATM   11  C   UNL     1     -10.003  17.069  67.034  1.00  0.00    -0.288 A  
HETATM   12  C   UNL     1      -9.931  16.533  65.749  1.00  0.00    -0.302 A  
ENDBRANCH   6   7
ENDBRANCH   5   6
ENDBRANCH   4   5
ENDBRANCH   3   4
BRANCH   3  13
HETATM   13  C   UNL     1     -11.187  10.713  68.628  1.00  0.00    -0.278 C  
BRANCH  13  14
HETATM   14  C   UNL     1     -11.205  11.195  70.079  1.00  0.00    -0.261 C  
BRANCH  14  15
HETATM   15  C   UNL     1     -12.621  11.437  70.611  1.00  0.00    -0.360 C  
BRANCH  15  16
HETATM   16  C   UNL     1     -12.713  12.856  71.111  1.00  0.00    -0.366 A  
HETATM   17  C   UNL     1     -12.683  15.409  72.251  1.00  0.00    -0.466 A  
HETATM   18  C   UNL     1     -13.609  14.460  72.690  1.00  0.00    -0.589 A  
HETATM   19  C   UNL     1     -11.800  13.820  70.662  1.00  0.00    -0.261 A  
HETATM   20  C   UNL     1     -11.787  15.091  71.236  1.00  0.00    -0.389 A  
HETATM   21  C   UNL     1     -13.628  13.190  72.118  1.00  0.00    -0.637 A  
ENDBRANCH  15  16
ENDBRANCH  14  15
ENDBRANCH  13  14
ENDBRANCH   3  13
ENDBRANCH   2   3
TORSDOF 9
ENDMDL
MODEL       79
REMARK 921   NORMALIZED FREE ENERGY PREDICTED BY IDOCK:   -4.74 KCAL/MOL
REMARK 922        TOTAL FREE ENERGY PREDICTED BY IDOCK:   -8.75 KCAL/MOL
REMARK 923 INTER-LIGAND FREE ENERGY PREDICTED BY IDOCK:   -7.31 KCAL/MOL
REMARK 924 INTRA-LIGAND FREE ENERGY PREDICTED BY IDOCK:   -1.44 KCAL/MOL
REMARK 927      BINDING AFFINITY PREDICTED BY RF-SCORE:    0.00 PKD
ROOT
HETATM    1  C   UNL     1     -10.935   6.094  67.950  1.00  0.00    -0.399 C  
HETATM    2  C   UNL     1     -10.503   7.447  67.394  1.00  0.00    -0.296 C  
ENDROOT
BRANCH   2   3
HETATM    3  N   UNL     1      -9.046   7.628  67.195  1.00  0.00    -0.124 NA 
BRANCH   3   4
HETATM    4  C   UNL     1      -8.726   8.963  66.653  1.00  0.00    -0.127 C  
BRANCH   4   5
HETATM    5  C   UNL     1      -9.929   9.881  66.363  1.00  0.00    -0.309 C  
BRANCH   5   6
HETATM    6  C   UNL     1      -9.980  10.412  64.927  1.00  0.00    -0.409 C  
BRANCH   6   7
HETATM    7  C   UNL     1     -10.830  11.663  64.848  1.00  0.00    -0.359 A  
HETATM    8  C   UNL     1     -11.165  12.219  63.605  1.00  0.00    -0.539 A  
HETATM    9  C   UNL     1     -12.001  13.336  63.532  1.00  0.00    -0.537 A  
HETATM   10  C   UNL     1     -11.343  12.251  66.013  1.00  0.00    -0.398 A  
HETATM   11  C   UNL     1     -12.509  13.907  64.697  1.00  0.00    -0.361 A  
HETATM   12  C   UNL     1     -12.178  13.367  65.938  1.00  0.00    -0.502 A  
ENDBRANCH   6   7
ENDBRANCH   5   6
ENDBRANCH   4   5
ENDBRANCH   3   4
BRANCH   3  13
HETATM   13  C   UNL     1      -8.328   7.387  68.464  1.00  0.00    -0.126 C  
BRANCH  13  14
HETATM   14  C   UNL     1      -8.441   8.509  69.498  1.00  0.00    -0.127 C  
BRANCH  14  15
HETATM   15  C   UNL     1      -9.270   8.111  70.723  1.00  0.00    -0.165 C  
BRANCH  15  16
HETATM   16  C   UNL     1     -10.402   9.094  70.880  1.00  0.00    -0.349 A  
HETATM   17  C   UNL     1     -12.659  10.741  70.980  1.00  0.00    -0.520 A  
HETATM   18  C   UNL     1     -11.662  10.980  70.032  1.00  0.00    -0.437 A  
HETATM   19  C   UNL     1     -11.397   8.872  71.842  1.00  0.00    -0.446 A  
HETATM   20  C   UNL     1     -12.522   9.695  71.886  1.00  0.00    -0.459 A  
HETATM   21  C   UNL     1     -10.535  10.163  69.986  1.00  0.00    -0.325 A  
ENDBRANCH  15  16
ENDBRANCH  14  15
ENDBRANCH  13  14
ENDBRANCH   3  13
ENDBRANCH   2   3
TORSDOF 9
ENDMDL
MODEL       80
REMARK 921   NORMALIZED FREE ENERGY PREDICTED BY IDOCK:   -4.74 KCAL/MOL
REMARK 922        TOTAL FREE ENERGY PREDICTED BY IDOCK:   -8.75 KCAL/MOL
REMARK 923 INTER-LIGAND FREE ENERGY PREDICTED BY IDOCK:   -7.02 KCAL/MOL
REMARK 924 INTRA-LIGAND FREE ENERGY PREDICTED BY IDOCK:   -1.73 KCAL/MOL
REMARK 927      BINDING AFFINITY PREDICTED BY RF-SCORE:    0.00 PKD
ROOT
HETATM    1  C   UNL     1      -8.375  13.151  68.155  1.00  0.00    -0.161 C  
HETATM    2  C   UNL     1      -8.641  12.269  66.940  1.00  0.00    -0.182 C  
ENDROOT
BRANCH   2   3
HETATM    3  N   UNL     1     -10.064  12.070  66.585  1.00  0.00    -0.196 NA 
BRANCH   3   4
HETATM    4  C   UNL     1     -10.412  12.731  65.312  1.00  0.00    -0.292 C  
BRANCH   4   5
HETATM    5  C   UNL     1     -11.273  14.005  65.426  1.00  0.00    -0.319 C  
BRANCH   5   6
HETATM    6  C   UNL     1     -12.287  13.975  66.575  1.00  0.00    -0.442 C  
BRANCH   6   7
HETATM    7  C   UNL     1     -11.734  14.678  67.797  1.00  0.00    -0.386 A  
HETATM    8  C   UNL     1     -11.027  15.882  67.666  1.00  0.00    -0.298 A  
HETATM    9  C   UNL     1     -10.572  16.561  68.799  1.00  0.00    -0.322 A  
HETATM   10  C   UNL     1     -11.970  14.167  69.081  1.00  0.00    -0.388 A  
HETATM   11  C   UNL     1     -10.819  16.047  70.070  1.00  0.00    -0.353 A  
HETATM   12  C   UNL     1     -11.515  14.847  70.212  1.00  0.00    -0.315 A  
ENDBRANCH   6   7
ENDBRANCH   5   6
ENDBRANCH   4   5
ENDBRANCH   3   4
BRANCH   3  13
HETATM   13  C   UNL     1     -10.376  10.626  66.532  1.00  0.00    -0.241 C  
BRANCH  13  14
HETATM   14  C   UNL     1     -10.678   9.977  67.883  1.00  0.00    -0.322 C  
BRANCH  14  15
HETATM   15  C   UNL     1     -11.541  10.860  68.790  1.00  0.00    -0.378 C  
BRANCH  15  16
HETATM   16  C   UNL     1     -11.752  10.145  70.101  1.00  0.00    -0.330 A  
HETATM   17  C   UNL     1     -12.287   8.605  72.373  1.00  0.00    -0.426 A  
HETATM   18  C   UNL     1     -13.188   9.593  71.971  1.00  0.00    -0.546 A  
HETATM   19  C   UNL     1     -10.842   9.165  70.521  1.00  0.00    -0.306 A  
HETATM   20  C   UNL     1     -11.115   8.397  71.653  1.00  0.00    -0.344 A  
HETATM   21  C   UNL     1     -12.919  10.364  70.843  1.00  0.00    -0.475 A  
ENDBRANCH  15  16
ENDBRANCH  14  15
ENDBRANCH  13  14
ENDBRANCH   3  13
ENDBRANCH   2   3
TORSDOF 9
ENDMDL
MODEL       81
REMARK 921   NORMALIZED FREE ENERGY PREDICTED BY IDOCK:   -4.73 KCAL/MOL
REMARK 922        TOTAL FREE ENERGY PREDICTED BY IDOCK:   -8.73 KCAL/MOL
REMARK 923 INTER-LIGAND FREE ENERGY PREDICTED BY IDOCK:   -7.11 KCAL/MOL
REMARK 924 INTRA-LIGAND FREE ENERGY PREDICTED BY IDOCK:   -1.62 KCAL/MOL
REMARK 927      BINDING AFFINITY PREDICTED BY RF-SCORE:    0.00 PKD
ROOT
HETATM    1  C   UNL     1      -7.430  10.542  69.748  1.00  0.00    -0.127 C  
HETATM    2  C   UNL     1      -7.799  11.386  68.532  1.00  0.00    -0.140 C  
ENDROOT
BRANCH   2   3
HETATM    3  N   UNL     1      -9.241  11.447  68.202  1.00  0.00    -0.171 NA 
BRANCH   3   4
HETATM    4  C   UNL     1      -9.641  12.784  67.724  1.00  0.00    -0.204 C  
BRANCH   4   5
HETATM    5  C   UNL     1     -10.789  13.463  68.498  1.00  0.00    -0.285 C  
BRANCH   5   6
HETATM    6  C   UNL     1     -11.550  12.524  69.439  1.00  0.00    -0.368 C  
BRANCH   6   7
HETATM    7  C   UNL     1     -12.402  13.314  70.410  1.00  0.00    -0.365 A  
HETATM    8  C   UNL     1     -13.039  12.673  71.483  1.00  0.00    -0.373 A  
HETATM    9  C   UNL     1     -13.773  13.413  72.413  1.00  0.00    -0.698 A  
HETATM   10  C   UNL     1     -12.519  14.706  70.286  1.00  0.00    -0.401 A  
HETATM   11  C   UNL     1     -13.877  14.796  72.283  1.00  0.00    -0.590 A  
HETATM   12  C   UNL     1     -13.252  15.443  71.217  1.00  0.00    -0.585 A  
ENDBRANCH   6   7
ENDBRANCH   5   6
ENDBRANCH   4   5
ENDBRANCH   3   4
BRANCH   3  13
HETATM   13  C   UNL     1      -9.577  10.407  67.206  1.00  0.00    -0.156 C  
BRANCH  13  14
HETATM   14  C   UNL     1     -10.624   9.389  67.657  1.00  0.00    -0.333 C  
BRANCH  14  15
HETATM   15  C   UNL     1     -10.024   8.228  68.456  1.00  0.00    -0.206 C  
BRANCH  15  16
HETATM   16  C   UNL     1     -10.761   8.112  69.767  1.00  0.00    -0.229 A  
HETATM   17  C   UNL     1     -11.859   7.840  72.324  1.00  0.00    -0.378 A  
HETATM   18  C   UNL     1     -11.762   6.728  71.484  1.00  0.00    -0.361 A  
HETATM   19  C   UNL     1     -10.880   9.227  70.607  1.00  0.00    -0.339 A  
HETATM   20  C   UNL     1     -11.426   9.086  71.883  1.00  0.00    -0.440 A  
HETATM   21  C   UNL     1     -11.221   6.865  70.208  1.00  0.00    -0.363 A  
ENDBRANCH  15  16
ENDBRANCH  14  15
ENDBRANCH  13  14
ENDBRANCH   3  13
ENDBRANCH   2   3
TORSDOF 9
ENDMDL
MODEL       82
REMARK 921   NORMALIZED FREE ENERGY PREDICTED BY IDOCK:   -4.72 KCAL/MOL
REMARK 922        TOTAL FREE ENERGY PREDICTED BY IDOCK:   -8.73 KCAL/MOL
REMARK 923 INTER-LIGAND FREE ENERGY PREDICTED BY IDOCK:   -5.88 KCAL/MOL
REMARK 924 INTRA-LIGAND FREE ENERGY PREDICTED BY IDOCK:   -2.84 KCAL/MOL
REMARK 927      BINDING AFFINITY PREDICTED BY RF-SCORE:    0.00 PKD
ROOT
HETATM    1  C   UNL     1      -8.774   7.603  68.168  1.00  0.00    -0.122 C  
HETATM    2  C   UNL     1      -9.097   9.076  67.938  1.00  0.00    -0.135 C  
ENDROOT
BRANCH   2   3
HETATM    3  N   UNL     1      -9.019   9.948  69.132  1.00  0.00    -0.157 NA 
BRANCH   3   4
HETATM    4  C   UNL     1      -7.838  10.832  69.094  1.00  0.00    -0.142 C  
BRANCH   4   5
HETATM    5  C   UNL     1      -7.868  11.955  68.040  1.00  0.00    -0.140 C  
BRANCH   5   6
HETATM    6  C   UNL     1      -7.699  13.363  68.619  1.00  0.00    -0.088 C  
BRANCH   6   7
HETATM    7  C   UNL     1      -8.744  14.303  68.057  1.00  0.00    -0.177 A  
HETATM    8  C   UNL     1      -8.729  14.658  66.701  1.00  0.00    -0.197 A  
HETATM    9  C   UNL     1      -9.731  15.474  66.171  1.00  0.00    -0.348 A  
HETATM   10  C   UNL     1      -9.778  14.787  68.872  1.00  0.00    -0.215 A  
HETATM   11  C   UNL     1     -10.756  15.944  66.990  1.00  0.00    -0.292 A  
HETATM   12  C   UNL     1     -10.779  15.603  68.342  1.00  0.00    -0.271 A  
ENDBRANCH   6   7
ENDBRANCH   5   6
ENDBRANCH   4   5
ENDBRANCH   3   4
BRANCH   3  13
HETATM   13  C   UNL     1     -10.264  10.736  69.264  1.00  0.00    -0.194 C  
BRANCH  13  14
HETATM   14  C   UNL     1     -11.213  10.656  68.068  1.00  0.00    -0.373 C  
BRANCH  14  15
HETATM   15  C   UNL     1     -11.754  12.025  67.643  1.00  0.00    -0.365 C  
BRANCH  15  16
HETATM   16  C   UNL     1     -11.497  12.208  66.169  1.00  0.00    -0.429 A  
HETATM   17  C   UNL     1     -11.203  12.311  63.390  1.00  0.00    -0.497 A  
HETATM   18  C   UNL     1     -10.310  11.562  64.159  1.00  0.00    -0.386 A  
HETATM   19  C   UNL     1     -12.378  12.975  65.392  1.00  0.00    -0.538 A  
HETATM   20  C   UNL     1     -12.228  13.020  64.006  1.00  0.00    -0.489 A  
HETATM   21  C   UNL     1     -10.453  11.515  65.544  1.00  0.00    -0.327 A  
ENDBRANCH  15  16
ENDBRANCH  14  15
ENDBRANCH  13  14
ENDBRANCH   3  13
ENDBRANCH   2   3
TORSDOF 9
ENDMDL
MODEL       83
REMARK 921   NORMALIZED FREE ENERGY PREDICTED BY IDOCK:   -4.72 KCAL/MOL
REMARK 922        TOTAL FREE ENERGY PREDICTED BY IDOCK:   -8.72 KCAL/MOL
REMARK 923 INTER-LIGAND FREE ENERGY PREDICTED BY IDOCK:   -7.82 KCAL/MOL
REMARK 924 INTRA-LIGAND FREE ENERGY PREDICTED BY IDOCK:   -0.90 KCAL/MOL
REMARK 927      BINDING AFFINITY PREDICTED BY RF-SCORE:    0.00 PKD
ROOT
HETATM    1  C   UNL     1      -8.774  18.670  68.311  1.00  0.00    -0.349 C  
HETATM    2  C   UNL     1     -10.130  18.158  68.784  1.00  0.00    -0.376 C  
ENDROOT
BRANCH   2   3
HETATM    3  N   UNL     1     -10.299  16.687  68.791  1.00  0.00    -0.280 NA 
BRANCH   3   4
HETATM    4  C   UNL     1     -11.375  16.259  69.706  1.00  0.00    -0.264 C  
BRANCH   4   5
HETATM    5  C   UNL     1     -11.282  14.811  70.226  1.00  0.00    -0.239 C  
BRANCH   5   6
HETATM    6  C   UNL     1     -12.635  14.183  70.575  1.00  0.00    -0.410 C  
BRANCH   6   7
HETATM    7  C   UNL     1     -12.509  12.680  70.712  1.00  0.00    -0.357 A  
HETATM    8  C   UNL     1     -13.133  12.007  71.771  1.00  0.00    -0.460 A  
HETATM    9  C   UNL     1     -13.069  10.614  71.860  1.00  0.00    -0.563 A  
HETATM   10  C   UNL     1     -11.814  11.933  69.749  1.00  0.00    -0.411 A  
HETATM   11  C   UNL     1     -12.381   9.882  70.894  1.00  0.00    -0.403 A  
HETATM   12  C   UNL     1     -11.751  10.541  69.840  1.00  0.00    -0.372 A  
ENDBRANCH   6   7
ENDBRANCH   5   6
ENDBRANCH   4   5
ENDBRANCH   3   4
BRANCH   3  13
HETATM   13  C   UNL     1     -10.550  16.201  67.417  1.00  0.00    -0.311 C  
BRANCH  13  14
HETATM   14  C   UNL     1     -10.416  14.689  67.228  1.00  0.00    -0.266 C  
BRANCH  14  15
HETATM   15  C   UNL     1     -11.686  14.042  66.668  1.00  0.00    -0.420 C  
BRANCH  15  16
HETATM   16  C   UNL     1     -11.298  13.101  65.555  1.00  0.00    -0.325 A  
HETATM   17  C   UNL     1     -10.714  11.138  63.652  1.00  0.00    -0.381 A  
HETATM   18  C   UNL     1      -9.805  11.409  64.677  1.00  0.00    -0.302 A  
HETATM   19  C   UNL     1     -12.197  12.839  64.512  1.00  0.00    -0.500 A  
HETATM   20  C   UNL     1     -11.902  11.856  63.566  1.00  0.00    -0.560 A  
HETATM   21  C   UNL     1     -10.094  12.391  65.621  1.00  0.00    -0.277 A  
ENDBRANCH  15  16
ENDBRANCH  14  15
ENDBRANCH  13  14
ENDBRANCH   3  13
ENDBRANCH   2   3
TORSDOF 9
ENDMDL
MODEL       84
REMARK 921   NORMALIZED FREE ENERGY PREDICTED BY IDOCK:   -4.72 KCAL/MOL
REMARK 922        TOTAL FREE ENERGY PREDICTED BY IDOCK:   -8.72 KCAL/MOL
REMARK 923 INTER-LIGAND FREE ENERGY PREDICTED BY IDOCK:   -7.05 KCAL/MOL
REMARK 924 INTRA-LIGAND FREE ENERGY PREDICTED BY IDOCK:   -1.66 KCAL/MOL
REMARK 927      BINDING AFFINITY PREDICTED BY RF-SCORE:    0.00 PKD
ROOT
HETATM    1  C   UNL     1     -12.628  11.893  63.624  1.00  0.00    -0.555 C  
HETATM    2  C   UNL     1     -12.707  12.731  64.895  1.00  0.00    -0.404 C  
ENDROOT
BRANCH   2   3
HETATM    3  N   UNL     1     -11.412  13.183  65.452  1.00  0.00    -0.298 NA 
BRANCH   3   4
HETATM    4  C   UNL     1     -10.519  12.050  65.763  1.00  0.00    -0.254 C  
BRANCH   4   5
HETATM    5  C   UNL     1     -10.219  11.817  67.257  1.00  0.00    -0.226 C  
BRANCH   5   6
HETATM    6  C   UNL     1     -11.411  12.080  68.183  1.00  0.00    -0.349 C  
BRANCH   6   7
HETATM    7  C   UNL     1     -11.427  11.091  69.330  1.00  0.00    -0.370 A  
HETATM    8  C   UNL     1     -10.360  10.201  69.517  1.00  0.00    -0.263 A  
HETATM    9  C   UNL     1     -10.348   9.332  70.611  1.00  0.00    -0.326 A  
HETATM   10  C   UNL     1     -12.482  11.090  70.255  1.00  0.00    -0.365 A  
HETATM   11  C   UNL     1     -11.398   9.344  71.527  1.00  0.00    -0.464 A  
HETATM   12  C   UNL     1     -12.467  10.221  71.348  1.00  0.00    -0.528 A  
ENDBRANCH   6   7
ENDBRANCH   5   6
ENDBRANCH   4   5
ENDBRANCH   3   4
BRANCH   3  13
HETATM   13  C   UNL     1     -10.761  14.127  64.518  1.00  0.00    -0.303 C  
BRANCH  13  14
HETATM   14  C   UNL     1     -10.613  15.558  65.038  1.00  0.00    -0.435 C  
BRANCH  14  15
HETATM   15  C   UNL     1      -9.363  15.753  65.901  1.00  0.00    -0.356 C  
BRANCH  15  16
HETATM   16  C   UNL     1      -9.772  15.740  67.352  1.00  0.00    -0.223 A  
HETATM   17  C   UNL     1     -10.541  15.414  70.020  1.00  0.00    -0.319 A  
HETATM   18  C   UNL     1     -11.511  15.587  69.031  1.00  0.00    -0.361 A  
HETATM   19  C   UNL     1      -8.803  15.585  68.353  1.00  0.00    -0.183 A  
HETATM   20  C   UNL     1      -9.192  15.420  69.683  1.00  0.00    -0.188 A  
HETATM   21  C   UNL     1     -11.127  15.756  67.703  1.00  0.00    -0.283 A  
ENDBRANCH  15  16
ENDBRANCH  14  15
ENDBRANCH  13  14
ENDBRANCH   3  13
ENDBRANCH   2   3
TORSDOF 9
ENDMDL
MODEL       85
REMARK 921   NORMALIZED FREE ENERGY PREDICTED BY IDOCK:   -4.71 KCAL/MOL
REMARK 922        TOTAL FREE ENERGY PREDICTED BY IDOCK:   -8.70 KCAL/MOL
REMARK 923 INTER-LIGAND FREE ENERGY PREDICTED BY IDOCK:   -6.31 KCAL/MOL
REMARK 924 INTRA-LIGAND FREE ENERGY PREDICTED BY IDOCK:   -2.39 KCAL/MOL
REMARK 927      BINDING AFFINITY PREDICTED BY RF-SCORE:    0.00 PKD
ROOT
HETATM    1  C   UNL     1     -10.801   3.489  73.524  1.00  0.00    -0.321 C  
HETATM    2  C   UNL     1     -10.137   3.696  72.167  1.00  0.00    -0.142 C  
ENDROOT
BRANCH   2   3
HETATM    3  N   UNL     1     -10.193   5.073  71.625  1.00  0.00    -0.205 NA 
BRANCH   3   4
HETATM    4  C   UNL     1      -9.023   5.875  72.035  1.00  0.00    -0.137 C  
BRANCH   4   5
HETATM    5  C   UNL     1      -9.334   7.217  72.725  1.00  0.00    -0.170 C  
BRANCH   5   6
HETATM    6  C   UNL     1     -10.803   7.390  73.125  1.00  0.00    -0.435 C  
BRANCH   6   7
HETATM    7  C   UNL     1     -11.478   8.428  72.251  1.00  0.00    -0.454 A  
HETATM    8  C   UNL     1     -12.872   8.578  72.271  1.00  0.00    -0.404 A  
HETATM    9  C   UNL     1     -13.486   9.577  71.513  1.00  0.00    -0.444 A  
HETATM   10  C   UNL     1     -10.714   9.293  71.455  1.00  0.00    -0.432 A  
HETATM   11  C   UNL     1     -12.716  10.435  70.729  1.00  0.00    -0.460 A  
HETATM   12  C   UNL     1     -11.329  10.291  70.698  1.00  0.00    -0.431 A  
ENDBRANCH   6   7
ENDBRANCH   5   6
ENDBRANCH   4   5
ENDBRANCH   3   4
BRANCH   3  13
HETATM   13  C   UNL     1     -10.314   5.031  70.152  1.00  0.00    -0.236 C  
BRANCH  13  14
HETATM   14  C   UNL     1     -11.151   6.154  69.537  1.00  0.00    -0.490 C  
BRANCH  14  15
HETATM   15  C   UNL     1     -10.804   6.422  68.069  1.00  0.00    -0.396 C  
BRANCH  15  16
HETATM   16  C   UNL     1     -10.020   7.708  67.986  1.00  0.00    -0.208 A  
HETATM   17  C   UNL     1      -8.730  10.187  68.068  1.00  0.00    -0.122 A  
HETATM   18  C   UNL     1      -9.869  10.020  67.278  1.00  0.00    -0.225 A  
HETATM   19  C   UNL     1      -8.864   7.878  68.760  1.00  0.00    -0.138 A  
HETATM   20  C   UNL     1      -8.226   9.118  68.800  1.00  0.00    -0.109 A  
HETATM   21  C   UNL     1     -10.508   8.783  67.233  1.00  0.00    -0.353 A  
ENDBRANCH  15  16
ENDBRANCH  14  15
ENDBRANCH  13  14
ENDBRANCH   3  13
ENDBRANCH   2   3
TORSDOF 9
ENDMDL
MODEL       86
REMARK 921   NORMALIZED FREE ENERGY PREDICTED BY IDOCK:   -4.71 KCAL/MOL
REMARK 922        TOTAL FREE ENERGY PREDICTED BY IDOCK:   -8.70 KCAL/MOL
REMARK 923 INTER-LIGAND FREE ENERGY PREDICTED BY IDOCK:   -5.49 KCAL/MOL
REMARK 924 INTRA-LIGAND FREE ENERGY PREDICTED BY IDOCK:   -3.21 KCAL/MOL
REMARK 927      BINDING AFFINITY PREDICTED BY RF-SCORE:    0.00 PKD
ROOT
HETATM    1  C   UNL     1     -14.404   7.565  71.538  1.00  0.00    -0.603 C  
HETATM    2  C   UNL     1     -12.900   7.333  71.441  1.00  0.00    -0.382 C  
ENDROOT
BRANCH   2   3
HETATM    3  N   UNL     1     -12.060   8.157  72.341  1.00  0.00    -0.359 NA 
BRANCH   3   4
HETATM    4  C   UNL     1     -10.819   7.459  72.731  1.00  0.00    -0.326 C  
BRANCH   4   5
HETATM    5  C   UNL     1     -10.494   6.174  71.945  1.00  0.00    -0.254 C  
BRANCH   5   6
HETATM    6  C   UNL     1      -9.160   6.220  71.193  1.00  0.00    -0.148 C  
BRANCH   6   7
HETATM    7  C   UNL     1      -9.374   6.013  69.708  1.00  0.00    -0.166 A  
HETATM    8  C   UNL     1     -10.656   6.123  69.151  1.00  0.00    -0.345 A  
HETATM    9  C   UNL     1     -10.842   5.994  67.773  1.00  0.00    -0.380 A  
HETATM   10  C   UNL     1      -8.285   5.765  68.859  1.00  0.00    -0.101 A  
HETATM   11  C   UNL     1      -9.752   5.754  66.939  1.00  0.00    -0.163 A  
HETATM   12  C   UNL     1      -8.473   5.637  67.482  1.00  0.00    -0.102 A  
ENDBRANCH   6   7
ENDBRANCH   5   6
ENDBRANCH   4   5
ENDBRANCH   3   4
BRANCH   3  13
HETATM   13  C   UNL     1     -11.758   9.455  71.703  1.00  0.00    -0.398 C  
BRANCH  13  14
HETATM   14  C   UNL     1     -11.310   9.372  70.243  1.00  0.00    -0.261 C  
BRANCH  14  15
HETATM   15  C   UNL     1      -9.822   9.687  70.056  1.00  0.00    -0.286 C  
BRANCH  15  16
HETATM   16  C   UNL     1      -9.503   9.649  68.582  1.00  0.00    -0.147 A  
HETATM   17  C   UNL     1      -8.947   9.279  65.867  1.00  0.00    -0.225 A  
HETATM   18  C   UNL     1      -7.909   9.262  66.801  1.00  0.00    -0.104 A  
HETATM   19  C   UNL     1     -10.538   9.685  67.638  1.00  0.00    -0.334 A  
HETATM   20  C   UNL     1     -10.256   9.498  66.284  1.00  0.00    -0.290 A  
HETATM   21  C   UNL     1      -8.185   9.452  68.152  1.00  0.00    -0.118 A  
ENDBRANCH  15  16
ENDBRANCH  14  15
ENDBRANCH  13  14
ENDBRANCH   3  13
ENDBRANCH   2   3
TORSDOF 9
ENDMDL
MODEL       87
REMARK 921   NORMALIZED FREE ENERGY PREDICTED BY IDOCK:   -4.70 KCAL/MOL
REMARK 922        TOTAL FREE ENERGY PREDICTED BY IDOCK:   -8.69 KCAL/MOL
REMARK 923 INTER-LIGAND FREE ENERGY PREDICTED BY IDOCK:   -7.65 KCAL/MOL
REMARK 924 INTRA-LIGAND FREE ENERGY PREDICTED BY IDOCK:   -1.04 KCAL/MOL
REMARK 927      BINDING AFFINITY PREDICTED BY RF-SCORE:    0.00 PKD
ROOT
HETATM    1  C   UNL     1      -8.211  11.894  68.442  1.00  0.00    -0.160 C  
HETATM    2  C   UNL     1      -8.609  12.945  67.410  1.00  0.00    -0.195 C  
ENDROOT
BRANCH   2   3
HETATM    3  N   UNL     1      -9.848  12.665  66.649  1.00  0.00    -0.238 NA 
BRANCH   3   4
HETATM    4  C   UNL     1     -10.681  11.640  67.307  1.00  0.00    -0.238 C  
BRANCH   4   5
HETATM    5  C   UNL     1     -11.889  12.163  68.107  1.00  0.00    -0.362 C  
BRANCH   5   6
HETATM    6  C   UNL     1     -11.583  12.465  69.578  1.00  0.00    -0.353 C  
BRANCH   6   7
HETATM    7  C   UNL     1     -11.797  11.234  70.433  1.00  0.00    -0.443 A  
HETATM    8  C   UNL     1     -12.937  11.117  71.241  1.00  0.00    -0.457 A  
HETATM    9  C   UNL     1     -13.163   9.954  71.981  1.00  0.00    -0.555 A  
HETATM   10  C   UNL     1     -10.888  10.166  70.385  1.00  0.00    -0.365 A  
HETATM   11  C   UNL     1     -12.256   8.898  71.920  1.00  0.00    -0.445 A  
HETATM   12  C   UNL     1     -11.116   9.005  71.124  1.00  0.00    -0.371 A  
ENDBRANCH   6   7
ENDBRANCH   5   6
ENDBRANCH   4   5
ENDBRANCH   3   4
BRANCH   3  13
HETATM   13  C   UNL     1     -10.611  13.916  66.448  1.00  0.00    -0.280 C  
BRANCH  13  14
HETATM   14  C   UNL     1      -9.880  15.196  66.857  1.00  0.00    -0.243 C  
BRANCH  14  15
HETATM   15  C   UNL     1     -10.618  15.984  67.943  1.00  0.00    -0.301 C  
BRANCH  15  16
HETATM   16  C   UNL     1     -10.440  17.457  67.677  1.00  0.00    -0.368 A  
HETATM   17  C   UNL     1      -9.824  20.123  67.103  1.00  0.00    -0.586 A  
HETATM   18  C   UNL     1      -9.639  19.627  68.395  1.00  0.00    -0.468 A  
HETATM   19  C   UNL     1     -10.641  17.967  66.387  1.00  0.00    -0.238 A  
HETATM   20  C   UNL     1     -10.330  19.297  66.105  1.00  0.00    -0.578 A  
HETATM   21  C   UNL     1      -9.952  18.301  68.682  1.00  0.00    -0.410 A  
ENDBRANCH  15  16
ENDBRANCH  14  15
ENDBRANCH  13  14
ENDBRANCH   3  13
ENDBRANCH   2   3
TORSDOF 9
ENDMDL
MODEL       88
REMARK 921   NORMALIZED FREE ENERGY PREDICTED BY IDOCK:   -4.70 KCAL/MOL
REMARK 922        TOTAL FREE ENERGY PREDICTED BY IDOCK:   -8.69 KCAL/MOL
REMARK 923 INTER-LIGAND FREE ENERGY PREDICTED BY IDOCK:   -7.70 KCAL/MOL
REMARK 924 INTRA-LIGAND FREE ENERGY PREDICTED BY IDOCK:   -0.99 KCAL/MOL
REMARK 927      BINDING AFFINITY PREDICTED BY RF-SCORE:    0.00 PKD
ROOT
HETATM    1  C   UNL     1     -12.599  15.384  71.756  1.00  0.00    -0.455 C  
HETATM    2  C   UNL     1     -12.687  14.355  70.635  1.00  0.00    -0.357 C  
ENDROOT
BRANCH   2   3
HETATM    3  N   UNL     1     -11.404  13.985  69.995  1.00  0.00    -0.162 NA 
BRANCH   3   4
HETATM    4  C   UNL     1     -11.600  13.448  68.634  1.00  0.00    -0.327 C  
BRANCH   4   5
HETATM    5  C   UNL     1     -11.840  11.929  68.536  1.00  0.00    -0.357 C  
BRANCH   5   6
HETATM    6  C   UNL     1     -10.797  11.081  69.273  1.00  0.00    -0.285 C  
BRANCH   6   7
HETATM    7  C   UNL     1     -11.441  10.299  70.398  1.00  0.00    -0.415 A  
HETATM    8  C   UNL     1     -10.747   9.255  71.027  1.00  0.00    -0.387 A  
HETATM    9  C   UNL     1     -11.317   8.576  72.106  1.00  0.00    -0.442 A  
HETATM   10  C   UNL     1     -12.716  10.645  70.868  1.00  0.00    -0.498 A  
HETATM   11  C   UNL     1     -12.583   8.933  72.568  1.00  0.00    -0.363 A  
HETATM   12  C   UNL     1     -13.284   9.965  71.947  1.00  0.00    -0.558 A  
ENDBRANCH   6   7
ENDBRANCH   5   6
ENDBRANCH   4   5
ENDBRANCH   3   4
BRANCH   3  13
HETATM   13  C   UNL     1     -10.494  15.150  69.977  1.00  0.00    -0.185 C  
BRANCH  13  14
HETATM   14  C   UNL     1     -10.292  15.796  68.606  1.00  0.00    -0.225 C  
BRANCH  14  15
HETATM   15  C   UNL     1     -11.137  17.059  68.411  1.00  0.00    -0.164 C  
BRANCH  15  16
HETATM   16  C   UNL     1     -10.232  18.180  67.965  1.00  0.00    -0.392 A  
HETATM   17  C   UNL     1      -8.450  20.068  66.927  1.00  0.00    -0.385 A  
HETATM   18  C   UNL     1      -8.050  19.231  67.971  1.00  0.00    -0.341 A  
HETATM   19  C   UNL     1     -10.633  19.037  66.931  1.00  0.00    -0.518 A  
HETATM   20  C   UNL     1      -9.739  19.976  66.414  1.00  0.00    -0.557 A  
HETATM   21  C   UNL     1      -8.940  18.295  68.492  1.00  0.00    -0.329 A  
ENDBRANCH  15  16
ENDBRANCH  14  15
ENDBRANCH  13  14
ENDBRANCH   3  13
ENDBRANCH   2   3
TORSDOF 9
ENDMDL
MODEL       89
REMARK 921   NORMALIZED FREE ENERGY PREDICTED BY IDOCK:   -4.69 KCAL/MOL
REMARK 922        TOTAL FREE ENERGY PREDICTED BY IDOCK:   -8.68 KCAL/MOL
REMARK 923 INTER-LIGAND FREE ENERGY PREDICTED BY IDOCK:   -6.51 KCAL/MOL
REMARK 924 INTRA-LIGAND FREE ENERGY PREDICTED BY IDOCK:   -2.18 KCAL/MOL
REMARK 927      BINDING AFFINITY PREDICTED BY RF-SCORE:    0.00 PKD
ROOT
HETATM    1  C   UNL     1     -10.701  15.761  65.151  1.00  0.00    -0.455 C  
HETATM    2  C   UNL     1     -11.818  14.728  65.258  1.00  0.00    -0.276 C  
ENDROOT
BRANCH   2   3
HETATM    3  N   UNL     1     -11.436  13.421  65.839  1.00  0.00    -0.314 NA 
BRANCH   3   4
HETATM    4  C   UNL     1     -11.741  13.347  67.281  1.00  0.00    -0.380 C  
BRANCH   4   5
HETATM    5  C   UNL     1     -11.821  11.931  67.883  1.00  0.00    -0.308 C  
BRANCH   5   6
HETATM    6  C   UNL     1     -10.691  11.603  68.865  1.00  0.00    -0.244 C  
BRANCH   6   7
HETATM    7  C   UNL     1     -11.214  10.795  70.034  1.00  0.00    -0.366 A  
HETATM    8  C   UNL     1     -12.464  11.087  70.599  1.00  0.00    -0.465 A  
HETATM    9  C   UNL     1     -12.973  10.301  71.635  1.00  0.00    -0.570 A  
HETATM   10  C   UNL     1     -10.484   9.705  70.530  1.00  0.00    -0.367 A  
HETATM   11  C   UNL     1     -12.240   9.217  72.116  1.00  0.00    -0.377 A  
HETATM   12  C   UNL     1     -10.994   8.921  71.566  1.00  0.00    -0.398 A  
ENDBRANCH   6   7
ENDBRANCH   5   6
ENDBRANCH   4   5
ENDBRANCH   3   4
BRANCH   3  13
HETATM   13  C   UNL     1     -12.101  12.325  65.102  1.00  0.00    -0.316 C  
BRANCH  13  14
HETATM   14  C   UNL     1     -11.171  11.448  64.263  1.00  0.00    -0.306 C  
BRANCH  14  15
HETATM   15  C   UNL     1      -9.691  11.647  64.606  1.00  0.00    -0.210 C  
BRANCH  15  16
HETATM   16  C   UNL     1      -9.266  10.556  65.556  1.00  0.00    -0.223 A  
HETATM   17  C   UNL     1      -8.625   8.686  67.533  1.00  0.00    -0.135 A  
HETATM   18  C   UNL     1      -7.765   9.757  67.281  1.00  0.00    -0.095 A  
HETATM   19  C   UNL     1     -10.114   9.467  65.801  1.00  0.00    -0.223 A  
HETATM   20  C   UNL     1      -9.791   8.538  66.790  1.00  0.00    -0.327 A  
HETATM   21  C   UNL     1      -8.082  10.685  66.292  1.00  0.00    -0.151 A  
ENDBRANCH  15  16
ENDBRANCH  14  15
ENDBRANCH  13  14
ENDBRANCH   3  13
ENDBRANCH   2   3
TORSDOF 9
ENDMDL
MODEL       90
REMARK 921   NORMALIZED FREE ENERGY PREDICTED BY IDOCK:   -4.69 KCAL/MOL
REMARK 922        TOTAL FREE ENERGY PREDICTED BY IDOCK:   -8.68 KCAL/MOL
REMARK 923 INTER-LIGAND FREE ENERGY PREDICTED BY IDOCK:   -5.56 KCAL/MOL
REMARK 924 INTRA-LIGAND FREE ENERGY PREDICTED BY IDOCK:   -3.12 KCAL/MOL
REMARK 927      BINDING AFFINITY PREDICTED BY RF-SCORE:    0.00 PKD
ROOT
HETATM    1  C   UNL     1     -13.187  11.366  71.805  1.00  0.00    -0.472 C  
HETATM    2  C   UNL     1     -13.092   9.851  71.661  1.00  0.00    -0.437 C  
ENDROOT
BRANCH   2   3
HETATM    3  N   UNL     1     -11.736   9.272  71.802  1.00  0.00    -0.380 NA 
BRANCH   3   4
HETATM    4  C   UNL     1     -11.780   7.854  72.209  1.00  0.00    -0.355 C  
BRANCH   4   5
HETATM    5  C   UNL     1     -12.020   6.835  71.078  1.00  0.00    -0.431 C  
BRANCH   5   6
HETATM    6  C   UNL     1     -10.909   5.791  70.929  1.00  0.00    -0.326 C  
BRANCH   6   7
HETATM    7  C   UNL     1     -10.591   5.551  69.468  1.00  0.00    -0.366 A  
HETATM    8  C   UNL     1      -9.780   4.474  69.084  1.00  0.00    -0.250 A  
HETATM    9  C   UNL     1      -9.540   4.216  67.732  1.00  0.00    -0.208 A  
HETATM   10  C   UNL     1     -11.151   6.366  68.474  1.00  0.00    -0.385 A  
HETATM   11  C   UNL     1     -10.107   5.030  66.753  1.00  0.00    -0.270 A  
HETATM   12  C   UNL     1     -10.911   6.107  67.124  1.00  0.00    -0.442 A  
ENDBRANCH   6   7
ENDBRANCH   5   6
ENDBRANCH   4   5
ENDBRANCH   3   4
BRANCH   3  13
HETATM   13  C   UNL     1     -10.982   9.436  70.541  1.00  0.00    -0.274 C  
BRANCH  13  14
HETATM   14  C   UNL     1      -9.465   9.289  70.666  1.00  0.00    -0.333 C  
BRANCH  14  15
HETATM   15  C   UNL     1      -8.739   9.419  69.324  1.00  0.00    -0.145 C  
BRANCH  15  16
HETATM   16  C   UNL     1      -7.989   8.139  69.055  1.00  0.00    -0.113 A  
HETATM   17  C   UNL     1      -6.344   5.929  68.576  1.00  0.00    -0.040 A  
HETATM   18  C   UNL     1      -6.826   6.686  67.505  1.00  0.00    -0.076 A  
HETATM   19  C   UNL     1      -7.518   7.363  70.124  1.00  0.00    -0.087 A  
HETATM   20  C   UNL     1      -6.695   6.263  69.879  1.00  0.00    -0.056 A  
HETATM   21  C   UNL     1      -7.650   7.782  67.744  1.00  0.00    -0.113 A  
ENDBRANCH  15  16
ENDBRANCH  14  15
ENDBRANCH  13  14
ENDBRANCH   3  13
ENDBRANCH   2   3
TORSDOF 9
ENDMDL
MODEL       91
REMARK 921   NORMALIZED FREE ENERGY PREDICTED BY IDOCK:   -4.68 KCAL/MOL
REMARK 922        TOTAL FREE ENERGY PREDICTED BY IDOCK:   -8.66 KCAL/MOL
REMARK 923 INTER-LIGAND FREE ENERGY PREDICTED BY IDOCK:   -7.53 KCAL/MOL
REMARK 924 INTRA-LIGAND FREE ENERGY PREDICTED BY IDOCK:   -1.13 KCAL/MOL
REMARK 927      BINDING AFFINITY PREDICTED BY RF-SCORE:    0.00 PKD
ROOT
HETATM    1  C   UNL     1      -9.988   9.838  66.121  1.00  0.00    -0.338 C  
HETATM    2  C   UNL     1     -10.212  11.319  66.406  1.00  0.00    -0.230 C  
ENDROOT
BRANCH   2   3
HETATM    3  N   UNL     1     -11.620  11.776  66.380  1.00  0.00    -0.485 NA 
BRANCH   3   4
HETATM    4  C   UNL     1     -11.992  12.489  67.618  1.00  0.00    -0.221 C  
BRANCH   4   5
HETATM    5  C   UNL     1     -11.129  12.183  68.857  1.00  0.00    -0.292 C  
BRANCH   5   6
HETATM    6  C   UNL     1     -11.891  12.250  70.184  1.00  0.00    -0.352 C  
BRANCH   6   7
HETATM    7  C   UNL     1     -12.018  10.872  70.800  1.00  0.00    -0.449 A  
HETATM    8  C   UNL     1     -11.042   9.894  70.564  1.00  0.00    -0.398 A  
HETATM    9  C   UNL     1     -11.128   8.645  71.183  1.00  0.00    -0.324 A  
HETATM   10  C   UNL     1     -13.084  10.572  71.661  1.00  0.00    -0.551 A  
HETATM   11  C   UNL     1     -12.188   8.361  72.042  1.00  0.00    -0.419 A  
HETATM   12  C   UNL     1     -13.168   9.324  72.279  1.00  0.00    -0.535 A  
ENDBRANCH   6   7
ENDBRANCH   5   6
ENDBRANCH   4   5
ENDBRANCH   3   4
BRANCH   3  13
HETATM   13  C   UNL     1     -11.855  12.625  65.192  1.00  0.00    -0.396 C  
BRANCH  13  14
HETATM   14  C   UNL     1     -11.954  14.125  65.474  1.00  0.00    -0.394 C  
BRANCH  14  15
HETATM   15  C   UNL     1     -10.699  14.896  65.053  1.00  0.00    -0.451 C  
BRANCH  15  16
HETATM   16  C   UNL     1     -10.138  15.602  66.262  1.00  0.00    -0.316 A  
HETATM   17  C   UNL     1      -8.992  16.641  68.591  1.00  0.00    -0.246 A  
HETATM   18  C   UNL     1     -10.316  16.196  68.603  1.00  0.00    -0.252 A  
HETATM   19  C   UNL     1      -8.817  16.069  66.251  1.00  0.00    -0.379 A  
HETATM   20  C   UNL     1      -8.249  16.584  67.417  1.00  0.00    -0.183 A  
HETATM   21  C   UNL     1     -10.888  15.684  67.441  1.00  0.00    -0.315 A  
ENDBRANCH  15  16
ENDBRANCH  14  15
ENDBRANCH  13  14
ENDBRANCH   3  13
ENDBRANCH   2   3
TORSDOF 9
ENDMDL
MODEL       92
REMARK 921   NORMALIZED FREE ENERGY PREDICTED BY IDOCK:   -4.65 KCAL/MOL
REMARK 922        TOTAL FREE ENERGY PREDICTED BY IDOCK:   -8.62 KCAL/MOL
REMARK 923 INTER-LIGAND FREE ENERGY PREDICTED BY IDOCK:   -6.92 KCAL/MOL
REMARK 924 INTRA-LIGAND FREE ENERGY PREDICTED BY IDOCK:   -1.69 KCAL/MOL
REMARK 927      BINDING AFFINITY PREDICTED BY RF-SCORE:    0.00 PKD
ROOT
HETATM    1  C   UNL     1     -14.389   8.050  72.059  1.00  0.00    -0.511 C  
HETATM    2  C   UNL     1     -12.983   8.001  71.469  1.00  0.00    -0.303 C  
ENDROOT
BRANCH   2   3
HETATM    3  N   UNL     1     -11.910   8.579  72.309  1.00  0.00    -0.379 NA 
BRANCH   3   4
HETATM    4  C   UNL     1     -11.129   7.536  73.003  1.00  0.00    -0.362 C  
BRANCH   4   5
HETATM    5  C   UNL     1     -11.211   6.120  72.401  1.00  0.00    -0.329 C  
BRANCH   5   6
HETATM    6  C   UNL     1      -9.949   5.684  71.650  1.00  0.00    -0.222 C  
BRANCH   6   7
HETATM    7  C   UNL     1      -9.967   6.199  70.226  1.00  0.00    -0.226 A  
HETATM    8  C   UNL     1      -8.890   6.944  69.725  1.00  0.00    -0.141 A  
HETATM    9  C   UNL     1      -8.880   7.364  68.393  1.00  0.00    -0.121 A  
HETATM   10  C   UNL     1     -11.033   5.888  69.370  1.00  0.00    -0.421 A  
HETATM   11  C   UNL     1      -9.943   7.044  67.550  1.00  0.00    -0.201 A  
HETATM   12  C   UNL     1     -11.022   6.308  68.039  1.00  0.00    -0.418 A  
ENDBRANCH   6   7
ENDBRANCH   5   6
ENDBRANCH   4   5
ENDBRANCH   3   4
BRANCH   3  13
HETATM   13  C   UNL     1     -11.031   9.437  71.486  1.00  0.00    -0.359 C  
BRANCH  13  14
HETATM   14  C   UNL     1     -11.710  10.106  70.291  1.00  0.00    -0.361 C  
BRANCH  14  15
HETATM   15  C   UNL     1     -10.748  10.376  69.130  1.00  0.00    -0.266 C  
BRANCH  15  16
HETATM   16  C   UNL     1     -11.230  11.588  68.374  1.00  0.00    -0.314 A  
HETATM   17  C   UNL     1     -11.834  13.908  66.935  1.00  0.00    -0.453 A  
HETATM   18  C   UNL     1     -11.729  13.958  68.327  1.00  0.00    -0.396 A  
HETATM   19  C   UNL     1     -11.357  11.542  66.979  1.00  0.00    -0.340 A  
HETATM   20  C   UNL     1     -11.656  12.703  66.265  1.00  0.00    -0.440 A  
HETATM   21  C   UNL     1     -11.434  12.801  69.044  1.00  0.00    -0.360 A  
ENDBRANCH  15  16
ENDBRANCH  14  15
ENDBRANCH  13  14
ENDBRANCH   3  13
ENDBRANCH   2   3
TORSDOF 9
ENDMDL
MODEL       93
REMARK 921   NORMALIZED FREE ENERGY PREDICTED BY IDOCK:   -4.65 KCAL/MOL
REMARK 922        TOTAL FREE ENERGY PREDICTED BY IDOCK:   -8.61 KCAL/MOL
REMARK 923 INTER-LIGAND FREE ENERGY PREDICTED BY IDOCK:   -6.51 KCAL/MOL
REMARK 924 INTRA-LIGAND FREE ENERGY PREDICTED BY IDOCK:   -2.10 KCAL/MOL
REMARK 927      BINDING AFFINITY PREDICTED BY RF-SCORE:    0.00 PKD
ROOT
HETATM    1  C   UNL     1     -11.265   4.823  73.358  1.00  0.00    -0.425 C  
HETATM    2  C   UNL     1     -10.896   5.923  72.368  1.00  0.00    -0.244 C  
ENDROOT
BRANCH   2   3
HETATM    3  N   UNL     1     -11.090   7.312  72.843  1.00  0.00    -0.324 NA 
BRANCH   3   4
HETATM    4  C   UNL     1      -9.827   8.077  72.839  1.00  0.00    -0.287 C  
BRANCH   4   5
HETATM    5  C   UNL     1      -8.849   7.760  71.691  1.00  0.00    -0.144 C  
BRANCH   5   6
HETATM    6  C   UNL     1      -8.351   8.994  70.933  1.00  0.00    -0.238 C  
BRANCH   6   7
HETATM    7  C   UNL     1      -9.059   9.127  69.601  1.00  0.00    -0.163 A  
HETATM    8  C   UNL     1      -8.981  10.321  68.869  1.00  0.00    -0.164 A  
HETATM    9  C   UNL     1      -9.581  10.420  67.612  1.00  0.00    -0.168 A  
HETATM   10  C   UNL     1      -9.754   8.040  69.052  1.00  0.00    -0.159 A  
HETATM   11  C   UNL     1     -10.264   9.331  67.074  1.00  0.00    -0.331 A  
HETATM   12  C   UNL     1     -10.353   8.140  67.795  1.00  0.00    -0.295 A  
ENDBRANCH   6   7
ENDBRANCH   5   6
ENDBRANCH   4   5
ENDBRANCH   3   4
BRANCH   3  13
HETATM   13  C   UNL     1     -12.119   7.988  72.025  1.00  0.00    -0.331 C  
BRANCH  13  14
HETATM   14  C   UNL     1     -12.034   9.515  72.005  1.00  0.00    -0.283 C  
BRANCH  14  15
HETATM   15  C   UNL     1     -12.341  10.112  70.628  1.00  0.00    -0.382 C  
BRANCH  15  16
HETATM   16  C   UNL     1     -12.426  11.611  70.760  1.00  0.00    -0.425 A  
HETATM   17  C   UNL     1     -12.850  14.373  70.863  1.00  0.00    -0.419 A  
HETATM   18  C   UNL     1     -12.168  13.812  69.781  1.00  0.00    -0.368 A  
HETATM   19  C   UNL     1     -13.092  12.184  71.852  1.00  0.00    -0.475 A  
HETATM   20  C   UNL     1     -13.303  13.562  71.898  1.00  0.00    -0.529 A  
HETATM   21  C   UNL     1     -11.951  12.437  69.733  1.00  0.00    -0.359 A  
ENDBRANCH  15  16
ENDBRANCH  14  15
ENDBRANCH  13  14
ENDBRANCH   3  13
ENDBRANCH   2   3
TORSDOF 9
ENDMDL
MODEL       94
REMARK 921   NORMALIZED FREE ENERGY PREDICTED BY IDOCK:   -4.63 KCAL/MOL
REMARK 922        TOTAL FREE ENERGY PREDICTED BY IDOCK:   -8.58 KCAL/MOL
REMARK 923 INTER-LIGAND FREE ENERGY PREDICTED BY IDOCK:   -7.85 KCAL/MOL
REMARK 924 INTRA-LIGAND FREE ENERGY PREDICTED BY IDOCK:   -0.73 KCAL/MOL
REMARK 927      BINDING AFFINITY PREDICTED BY RF-SCORE:    0.00 PKD
ROOT
HETATM    1  C   UNL     1     -10.410  13.626  65.762  1.00  0.00    -0.304 C  
HETATM    2  C   UNL     1     -10.296  13.223  67.228  1.00  0.00    -0.247 C  
ENDROOT
BRANCH   2   3
HETATM    3  N   UNL     1     -11.563  13.209  67.994  1.00  0.00    -0.312 NA 
BRANCH   3   4
HETATM    4  C   UNL     1     -11.792  11.912  68.660  1.00  0.00    -0.308 C  
BRANCH   4   5
HETATM    5  C   UNL     1     -11.568  11.886  70.184  1.00  0.00    -0.252 C  
BRANCH   5   6
HETATM    6  C   UNL     1     -12.760  11.352  70.984  1.00  0.00    -0.447 C  
BRANCH   6   7
HETATM    7  C   UNL     1     -12.603   9.871  71.257  1.00  0.00    -0.480 A  
HETATM    8  C   UNL     1     -11.328   9.293  71.332  1.00  0.00    -0.434 A  
HETATM    9  C   UNL     1     -11.183   7.939  71.647  1.00  0.00    -0.292 A  
HETATM   10  C   UNL     1     -13.727   9.068  71.497  1.00  0.00    -0.388 A  
HETATM   11  C   UNL     1     -12.308   7.152  71.888  1.00  0.00    -0.352 A  
HETATM   12  C   UNL     1     -13.581   7.716  71.810  1.00  0.00    -0.392 A  
ENDBRANCH   6   7
ENDBRANCH   5   6
ENDBRANCH   4   5
ENDBRANCH   3   4
BRANCH   3  13
HETATM   13  C   UNL     1     -11.572  14.315  68.976  1.00  0.00    -0.305 C  
BRANCH  13  14
HETATM   14  C   UNL     1     -11.548  15.720  68.373  1.00  0.00    -0.343 C  
BRANCH  14  15
HETATM   15  C   UNL     1     -10.711  16.707  69.192  1.00  0.00    -0.342 C  
BRANCH  15  16
HETATM   16  C   UNL     1     -10.390  17.901  68.328  1.00  0.00    -0.389 A  
HETATM   17  C   UNL     1     -10.086  20.197  66.762  1.00  0.00    -0.591 A  
HETATM   18  C   UNL     1     -10.438  18.985  66.163  1.00  0.00    -0.541 A  
HETATM   19  C   UNL     1     -10.017  19.116  68.920  1.00  0.00    -0.481 A  
HETATM   20  C   UNL     1      -9.869  20.259  68.134  1.00  0.00    -0.403 A  
HETATM   21  C   UNL     1     -10.584  17.841  66.943  1.00  0.00    -0.247 A  
ENDBRANCH  15  16
ENDBRANCH  14  15
ENDBRANCH  13  14
ENDBRANCH   3  13
ENDBRANCH   2   3
TORSDOF 9
ENDMDL
MODEL       95
REMARK 921   NORMALIZED FREE ENERGY PREDICTED BY IDOCK:   -4.63 KCAL/MOL
REMARK 922        TOTAL FREE ENERGY PREDICTED BY IDOCK:   -8.58 KCAL/MOL
REMARK 923 INTER-LIGAND FREE ENERGY PREDICTED BY IDOCK:   -7.90 KCAL/MOL
REMARK 924 INTRA-LIGAND FREE ENERGY PREDICTED BY IDOCK:   -0.68 KCAL/MOL
REMARK 927      BINDING AFFINITY PREDICTED BY RF-SCORE:    0.00 PKD
ROOT
HETATM    1  C   UNL     1      -8.827  11.558  66.632  1.00  0.00    -0.187 C  
HETATM    2  C   UNL     1     -10.299  11.792  66.308  1.00  0.00    -0.224 C  
ENDROOT
BRANCH   2   3
HETATM    3  N   UNL     1     -10.798  13.168  66.531  1.00  0.00    -0.278 NA 
BRANCH   3   4
HETATM    4  C   UNL     1     -11.600  13.270  67.766  1.00  0.00    -0.342 C  
BRANCH   4   5
HETATM    5  C   UNL     1     -11.862  11.947  68.512  1.00  0.00    -0.357 C  
BRANCH   5   6
HETATM    6  C   UNL     1     -12.012  12.102  70.029  1.00  0.00    -0.391 C  
BRANCH   6   7
HETATM    7  C   UNL     1     -12.012  10.749  70.709  1.00  0.00    -0.464 A  
HETATM    8  C   UNL     1     -10.924   9.877  70.560  1.00  0.00    -0.391 A  
HETATM    9  C   UNL     1     -10.898   8.656  71.238  1.00  0.00    -0.327 A  
HETATM   10  C   UNL     1     -13.074  10.372  71.545  1.00  0.00    -0.532 A  
HETATM   11  C   UNL     1     -11.956   8.295  72.070  1.00  0.00    -0.405 A  
HETATM   12  C   UNL     1     -13.046   9.152  72.222  1.00  0.00    -0.509 A  
ENDBRANCH   6   7
ENDBRANCH   5   6
ENDBRANCH   4   5
ENDBRANCH   3   4
BRANCH   3  13
HETATM   13  C   UNL     1      -9.667  14.119  66.555  1.00  0.00    -0.295 C  
BRANCH  13  14
HETATM   14  C   UNL     1      -9.969  15.503  65.977  1.00  0.00    -0.356 C  
BRANCH  14  15
HETATM   15  C   UNL     1      -8.781  16.465  66.081  1.00  0.00    -0.347 C  
BRANCH  15  16
HETATM   16  C   UNL     1      -9.247  17.737  66.743  1.00  0.00    -0.281 A  
HETATM   17  C   UNL     1     -10.312  19.925  68.120  1.00  0.00    -0.533 A  
HETATM   18  C   UNL     1     -10.831  19.564  66.875  1.00  0.00    -0.523 A  
HETATM   19  C   UNL     1      -8.717  18.117  67.984  1.00  0.00    -0.276 A  
HETATM   20  C   UNL     1      -9.254  19.208  68.668  1.00  0.00    -0.429 A  
HETATM   21  C   UNL     1     -10.297  18.478  66.187  1.00  0.00    -0.457 A  
ENDBRANCH  15  16
ENDBRANCH  14  15
ENDBRANCH  13  14
ENDBRANCH   3  13
ENDBRANCH   2   3
TORSDOF 9
ENDMDL
MODEL       96
REMARK 921   NORMALIZED FREE ENERGY PREDICTED BY IDOCK:   -4.63 KCAL/MOL
REMARK 922        TOTAL FREE ENERGY PREDICTED BY IDOCK:   -8.58 KCAL/MOL
REMARK 923 INTER-LIGAND FREE ENERGY PREDICTED BY IDOCK:   -7.23 KCAL/MOL
REMARK 924 INTRA-LIGAND FREE ENERGY PREDICTED BY IDOCK:   -1.35 KCAL/MOL
REMARK 927      BINDING AFFINITY PREDICTED BY RF-SCORE:    0.00 PKD
ROOT
HETATM    1  C   UNL     1     -10.337   8.014  68.271  1.00  0.00    -0.240 C  
HETATM    2  C   UNL     1      -9.671   9.208  68.944  1.00  0.00    -0.162 C  
ENDROOT
BRANCH   2   3
HETATM    3  N   UNL     1     -10.556  10.357  69.244  1.00  0.00    -0.216 NA 
BRANCH   3   4
HETATM    4  C   UNL     1     -11.500  10.628  68.143  1.00  0.00    -0.228 C  
BRANCH   4   5
HETATM    5  C   UNL     1     -11.438  12.042  67.532  1.00  0.00    -0.403 C  
BRANCH   5   6
HETATM    6  C   UNL     1     -10.054  12.696  67.608  1.00  0.00    -0.218 C  
BRANCH   6   7
HETATM    7  C   UNL     1     -10.122  14.145  67.173  1.00  0.00    -0.258 A  
HETATM    8  C   UNL     1     -10.074  14.483  65.813  1.00  0.00    -0.365 A  
HETATM    9  C   UNL     1     -10.200  15.814  65.410  1.00  0.00    -0.380 A  
HETATM   10  C   UNL     1     -10.293  15.166  68.119  1.00  0.00    -0.239 A  
HETATM   11  C   UNL     1     -10.375  16.819  66.359  1.00  0.00    -0.309 A  
HETATM   12  C   UNL     1     -10.419  16.496  67.715  1.00  0.00    -0.308 A  
ENDBRANCH   6   7
ENDBRANCH   5   6
ENDBRANCH   4   5
ENDBRANCH   3   4
BRANCH   3  13
HETATM   13  C   UNL     1     -11.277  10.123  70.513  1.00  0.00    -0.336 C  
BRANCH  13  14
HETATM   14  C   UNL     1     -12.676  10.736  70.588  1.00  0.00    -0.417 C  
BRANCH  14  15
HETATM   15  C   UNL     1     -12.977  11.372  71.948  1.00  0.00    -0.466 C  
BRANCH  15  16
HETATM   16  C   UNL     1     -13.108  12.863  71.766  1.00  0.00    -0.458 A  
HETATM   17  C   UNL     1     -13.183  15.657  71.679  1.00  0.00    -0.554 A  
HETATM   18  C   UNL     1     -14.185  14.952  72.349  1.00  0.00    -0.494 A  
HETATM   19  C   UNL     1     -12.116  13.576  71.078  1.00  0.00    -0.233 A  
HETATM   20  C   UNL     1     -12.156  14.970  71.039  1.00  0.00    -0.381 A  
HETATM   21  C   UNL     1     -14.151  13.560  72.387  1.00  0.00    -0.563 A  
ENDBRANCH  15  16
ENDBRANCH  14  15
ENDBRANCH  13  14
ENDBRANCH   3  13
ENDBRANCH   2   3
TORSDOF 9
ENDMDL
MODEL       97
REMARK 921   NORMALIZED FREE ENERGY PREDICTED BY IDOCK:   -4.62 KCAL/MOL
REMARK 922        TOTAL FREE ENERGY PREDICTED BY IDOCK:   -8.56 KCAL/MOL
REMARK 923 INTER-LIGAND FREE ENERGY PREDICTED BY IDOCK:   -6.76 KCAL/MOL
REMARK 924 INTRA-LIGAND FREE ENERGY PREDICTED BY IDOCK:   -1.80 KCAL/MOL
REMARK 927      BINDING AFFINITY PREDICTED BY RF-SCORE:    0.00 PKD
ROOT
HETATM    1  C   UNL     1     -13.044  11.355  71.694  1.00  0.00    -0.498 C  
HETATM    2  C   UNL     1     -12.566   9.992  71.205  1.00  0.00    -0.393 C  
ENDROOT
BRANCH   2   3
HETATM    3  N   UNL     1     -11.130   9.697  71.419  1.00  0.00    -0.365 NA 
BRANCH   3   4
HETATM    4  C   UNL     1     -10.920   8.340  71.961  1.00  0.00    -0.306 C  
BRANCH   4   5
HETATM    5  C   UNL     1     -11.747   7.216  71.305  1.00  0.00    -0.342 C  
BRANCH   5   6
HETATM    6  C   UNL     1     -10.909   6.044  70.785  1.00  0.00    -0.358 C  
BRANCH   6   7
HETATM    7  C   UNL     1     -10.386   6.334  69.394  1.00  0.00    -0.266 A  
HETATM    8  C   UNL     1     -11.271   6.461  68.313  1.00  0.00    -0.276 A  
HETATM    9  C   UNL     1     -10.793   6.790  67.043  1.00  0.00    -0.453 A  
HETATM   10  C   UNL     1      -9.016   6.538  69.176  1.00  0.00    -0.130 A  
HETATM   11  C   UNL     1      -9.430   6.997  66.840  1.00  0.00    -0.199 A  
HETATM   12  C   UNL     1      -8.540   6.867  67.905  1.00  0.00    -0.122 A  
ENDBRANCH   6   7
ENDBRANCH   5   6
ENDBRANCH   4   5
ENDBRANCH   3   4
BRANCH   3  13
HETATM   13  C   UNL     1     -10.382   9.883  70.157  1.00  0.00    -0.282 C  
BRANCH  13  14
HETATM   14  C   UNL     1     -11.248  10.045  68.907  1.00  0.00    -0.179 C  
BRANCH  14  15
HETATM   15  C   UNL     1     -10.448  10.494  67.680  1.00  0.00    -0.276 C  
BRANCH  15  16
HETATM   16  C   UNL     1     -11.072  11.751  67.131  1.00  0.00    -0.350 A  
HETATM   17  C   UNL     1     -12.498  13.962  66.182  1.00  0.00    -0.478 A  
HETATM   18  C   UNL     1     -12.180  12.912  65.317  1.00  0.00    -0.524 A  
HETATM   19  C   UNL     1     -11.376  12.818  67.988  1.00  0.00    -0.335 A  
HETATM   20  C   UNL     1     -12.090  13.917  67.511  1.00  0.00    -0.366 A  
HETATM   21  C   UNL     1     -11.465  11.814  65.788  1.00  0.00    -0.258 A  
ENDBRANCH  15  16
ENDBRANCH  14  15
ENDBRANCH  13  14
ENDBRANCH   3  13
ENDBRANCH   2   3
TORSDOF 9
ENDMDL
MODEL       98
REMARK 921   NORMALIZED FREE ENERGY PREDICTED BY IDOCK:   -4.60 KCAL/MOL
REMARK 922        TOTAL FREE ENERGY PREDICTED BY IDOCK:   -8.54 KCAL/MOL
REMARK 923 INTER-LIGAND FREE ENERGY PREDICTED BY IDOCK:   -6.46 KCAL/MOL
REMARK 924 INTRA-LIGAND FREE ENERGY PREDICTED BY IDOCK:   -2.09 KCAL/MOL
REMARK 927      BINDING AFFINITY PREDICTED BY RF-SCORE:    0.00 PKD
ROOT
HETATM    1  C   UNL     1     -13.577   9.376  72.094  1.00  0.00    -0.528 C  
HETATM    2  C   UNL     1     -13.031  10.770  71.801  1.00  0.00    -0.463 C  
ENDROOT
BRANCH   2   3
HETATM    3  N   UNL     1     -11.846  10.826  70.914  1.00  0.00    -0.322 NA 
BRANCH   3   4
HETATM    4  C   UNL     1     -11.005   9.620  71.040  1.00  0.00    -0.361 C  
BRANCH   4   5
HETATM    5  C   UNL     1     -10.902   8.736  69.782  1.00  0.00    -0.196 C  
BRANCH   5   6
HETATM    6  C   UNL     1      -9.477   8.579  69.241  1.00  0.00    -0.158 C  
BRANCH   6   7
HETATM    7  C   UNL     1      -9.307   9.343  67.945  1.00  0.00    -0.142 A  
HETATM    8  C   UNL     1     -10.124   9.061  66.840  1.00  0.00    -0.338 A  
HETATM    9  C   UNL     1     -10.009   9.809  65.667  1.00  0.00    -0.352 A  
HETATM   10  C   UNL     1      -8.372  10.383  67.848  1.00  0.00    -0.114 A  
HETATM   11  C   UNL     1      -9.080  10.844  65.585  1.00  0.00    -0.223 A  
HETATM   12  C   UNL     1      -8.259  11.130  66.675  1.00  0.00    -0.158 A  
ENDBRANCH   6   7
ENDBRANCH   5   6
ENDBRANCH   4   5
ENDBRANCH   3   4
BRANCH   3  13
HETATM   13  C   UNL     1     -12.272  11.030  69.513  1.00  0.00    -0.282 C  
BRANCH  13  14
HETATM   14  C   UNL     1     -11.661  12.248  68.819  1.00  0.00    -0.380 C  
BRANCH  14  15
HETATM   15  C   UNL     1     -11.901  12.255  67.306  1.00  0.00    -0.330 C  
BRANCH  15  16
HETATM   16  C   UNL     1     -11.424  13.572  66.748  1.00  0.00    -0.374 A  
HETATM   17  C   UNL     1     -10.257  15.910  65.751  1.00  0.00    -0.389 A  
HETATM   18  C   UNL     1     -10.542  15.798  67.113  1.00  0.00    -0.313 A  
HETATM   19  C   UNL     1     -11.154  13.699  65.378  1.00  0.00    -0.304 A  
HETATM   20  C   UNL     1     -10.569  14.866  64.886  1.00  0.00    -0.417 A  
HETATM   21  C   UNL     1     -11.128  14.636  67.609  1.00  0.00    -0.311 A  
ENDBRANCH  15  16
ENDBRANCH  14  15
ENDBRANCH  13  14
ENDBRANCH   3  13
ENDBRANCH   2   3
TORSDOF 9
ENDMDL
MODEL       99
REMARK 921   NORMALIZED FREE ENERGY PREDICTED BY IDOCK:   -4.60 KCAL/MOL
REMARK 922        TOTAL FREE ENERGY PREDICTED BY IDOCK:   -8.54 KCAL/MOL
REMARK 923 INTER-LIGAND FREE ENERGY PREDICTED BY IDOCK:   -8.10 KCAL/MOL
REMARK 924 INTRA-LIGAND FREE ENERGY PREDICTED BY IDOCK:   -0.44 KCAL/MOL
REMARK 927      BINDING AFFINITY PREDICTED BY RF-SCORE:    0.00 PKD
ROOT
HETATM    1  C   UNL     1     -11.532  15.649  64.440  1.00  0.00    -0.266 C  
HETATM    2  C   UNL     1     -10.357  15.560  65.408  1.00  0.00    -0.394 C  
ENDROOT
BRANCH   2   3
HETATM    3  N   UNL     1     -10.595  16.103  66.765  1.00  0.00    -0.302 NA 
BRANCH   3   4
HETATM    4  C   UNL     1     -10.796  15.032  67.760  1.00  0.00    -0.284 C  
BRANCH   4   5
HETATM    5  C   UNL     1     -10.291  15.332  69.185  1.00  0.00    -0.248 C  
BRANCH   5   6
HETATM    6  C   UNL     1     -11.154  16.335  69.958  1.00  0.00    -0.351 C  
BRANCH   6   7
HETATM    7  C   UNL     1     -11.999  15.627  70.996  1.00  0.00    -0.445 A  
HETATM    8  C   UNL     1     -12.710  14.465  70.664  1.00  0.00    -0.421 A  
HETATM    9  C   UNL     1     -13.437  13.778  71.639  1.00  0.00    -0.409 A  
HETATM   10  C   UNL     1     -12.035  16.089  72.320  1.00  0.00    -0.633 A  
HETATM   11  C   UNL     1     -13.461  14.244  72.952  1.00  0.00    -0.491 A  
HETATM   12  C   UNL     1     -12.763  15.401  73.293  1.00  0.00    -0.626 A  
ENDBRANCH   6   7
ENDBRANCH   5   6
ENDBRANCH   4   5
ENDBRANCH   3   4
BRANCH   3  13
HETATM   13  C   UNL     1      -9.477  16.987  67.159  1.00  0.00    -0.242 C  
BRANCH  13  14
HETATM   14  C   UNL     1      -9.834  18.469  67.282  1.00  0.00    -0.329 C  
BRANCH  14  15
HETATM   15  C   UNL     1      -8.929  19.373  66.439  1.00  0.00    -0.395 C  
BRANCH  15  16
HETATM   16  C   UNL     1      -7.842  19.928  67.324  1.00  0.00    -0.319 A  
HETATM   17  C   UNL     1      -5.652  20.730  68.867  1.00  0.00    -0.391 A  
HETATM   18  C   UNL     1      -6.597  19.851  69.400  1.00  0.00    -0.375 A  
HETATM   19  C   UNL     1      -6.900  20.826  66.802  1.00  0.00    -0.352 A  
HETATM   20  C   UNL     1      -5.808  21.220  67.575  1.00  0.00    -0.427 A  
HETATM   21  C   UNL     1      -7.691  19.457  68.634  1.00  0.00    -0.394 A  
ENDBRANCH  15  16
ENDBRANCH  14  15
ENDBRANCH  13  14
ENDBRANCH   3  13
ENDBRANCH   2   3
TORSDOF 9
ENDMDL
MODEL      100
REMARK 921   NORMALIZED FREE ENERGY PREDICTED BY IDOCK:   -4.60 KCAL/MOL
REMARK 922        TOTAL FREE ENERGY PREDICTED BY IDOCK:   -8.53 KCAL/MOL
REMARK 923 INTER-LIGAND FREE ENERGY PREDICTED BY IDOCK:   -5.80 KCAL/MOL
REMARK 924 INTRA-LIGAND FREE ENERGY PREDICTED BY IDOCK:   -2.73 KCAL/MOL
REMARK 927      BINDING AFFINITY PREDICTED BY RF-SCORE:    0.00 PKD
ROOT
HETATM    1  C   UNL     1     -10.298   6.182  67.067  1.00  0.00    -0.295 C  
HETATM    2  C   UNL     1      -9.013   6.945  66.764  1.00  0.00    -0.132 C  
ENDROOT
BRANCH   2   3
HETATM    3  N   UNL     1      -9.154   8.410  66.604  1.00  0.00    -0.154 NA 
BRANCH   3   4
HETATM    4  C   UNL     1      -8.893   8.841  65.216  1.00  0.00    -0.162 C  
BRANCH   4   5
HETATM    5  C   UNL     1      -8.969  10.358  64.956  1.00  0.00    -0.221 C  
BRANCH   5   6
HETATM    6  C   UNL     1      -9.829  10.744  63.748  1.00  0.00    -0.396 C  
BRANCH   6   7
HETATM    7  C   UNL     1     -10.671  11.964  64.058  1.00  0.00    -0.428 A  
HETATM    8  C   UNL     1     -10.064  13.178  64.410  1.00  0.00    -0.224 A  
HETATM    9  C   UNL     1     -10.840  14.318  64.633  1.00  0.00    -0.384 A  
HETATM   10  C   UNL     1     -12.068  11.913  63.940  1.00  0.00    -0.505 A  
HETATM   11  C   UNL     1     -12.227  14.257  64.508  1.00  0.00    -0.476 A  
HETATM   12  C   UNL     1     -12.842  13.053  64.164  1.00  0.00    -0.078 A  
ENDBRANCH   6   7
ENDBRANCH   5   6
ENDBRANCH   4   5
ENDBRANCH   3   4
BRANCH   3  13
HETATM   13  C   UNL     1     -10.497   8.840  67.046  1.00  0.00    -0.268 C  
BRANCH  13  14
HETATM   14  C   UNL     1     -10.509   9.878  68.170  1.00  0.00    -0.256 C  
BRANCH  14  15
HETATM   15  C   UNL     1     -11.676  10.863  68.060  1.00  0.00    -0.205 C  
BRANCH  15  16
HETATM   16  C   UNL     1     -11.123  12.266  68.028  1.00  0.00    -0.285 A  
HETATM   17  C   UNL     1     -10.093  14.854  68.271  1.00  0.00    -0.221 A  
HETATM   18  C   UNL     1     -11.474  14.655  68.216  1.00  0.00    -0.337 A  
HETATM   19  C   UNL     1      -9.737  12.474  68.064  1.00  0.00    -0.215 A  
HETATM   20  C   UNL     1      -9.228  13.768  68.189  1.00  0.00    -0.199 A  
HETATM   21  C   UNL     1     -11.986  13.366  68.089  1.00  0.00    -0.356 A  
ENDBRANCH  15  16
ENDBRANCH  14  15
ENDBRANCH  13  14
ENDBRANCH   3  13
ENDBRANCH   2   3
TORSDOF 9
ENDMDL
MODEL      101
REMARK 921   NORMALIZED FREE ENERGY PREDICTED BY IDOCK:   -4.59 KCAL/MOL
REMARK 922        TOTAL FREE ENERGY PREDICTED BY IDOCK:   -8.53 KCAL/MOL
REMARK 923 INTER-LIGAND FREE ENERGY PREDICTED BY IDOCK:   -6.94 KCAL/MOL
REMARK 924 INTRA-LIGAND FREE ENERGY PREDICTED BY IDOCK:   -1.59 KCAL/MOL
REMARK 927      BINDING AFFINITY PREDICTED BY RF-SCORE:    0.00 PKD
ROOT
HETATM    1  C   UNL     1      -9.685  10.157  64.998  1.00  0.00    -0.384 C  
HETATM    2  C   UNL     1      -8.827  10.706  66.132  1.00  0.00    -0.168 C  
ENDROOT
BRANCH   2   3
HETATM    3  N   UNL     1      -9.471  10.757  67.464  1.00  0.00    -0.154 NA 
BRANCH   3   4
HETATM    4  C   UNL     1     -10.943  10.717  67.367  1.00  0.00    -0.298 C  
BRANCH   4   5
HETATM    5  C   UNL     1     -11.685  11.986  67.829  1.00  0.00    -0.379 C  
BRANCH   5   6
HETATM    6  C   UNL     1     -10.768  13.185  68.096  1.00  0.00    -0.258 C  
BRANCH   6   7
HETATM    7  C   UNL     1     -11.276  13.998  69.269  1.00  0.00    -0.304 A  
HETATM    8  C   UNL     1     -10.805  15.300  69.489  1.00  0.00    -0.275 A  
HETATM    9  C   UNL     1     -11.321  16.071  70.533  1.00  0.00    -0.420 A  
HETATM   10  C   UNL     1     -12.266  13.482  70.117  1.00  0.00    -0.400 A  
HETATM   11  C   UNL     1     -12.309  15.550  71.366  1.00  0.00    -0.461 A  
HETATM   12  C   UNL     1     -12.780  14.254  71.161  1.00  0.00    -0.430 A  
ENDBRANCH   6   7
ENDBRANCH   5   6
ENDBRANCH   4   5
ENDBRANCH   3   4
BRANCH   3  13
HETATM   13  C   UNL     1      -8.968   9.654  68.311  1.00  0.00    -0.123 C  
BRANCH  13  14
HETATM   14  C   UNL     1      -9.323   9.760  69.795  1.00  0.00    -0.249 C  
BRANCH  14  15
HETATM   15  C   UNL     1      -9.895   8.460  70.367  1.00  0.00    -0.194 C  
BRANCH  15  16
HETATM   16  C   UNL     1     -11.189   8.772  71.077  1.00  0.00    -0.329 A  
HETATM   17  C   UNL     1     -13.724   9.306  72.127  1.00  0.00    -0.517 A  
HETATM   18  C   UNL     1     -12.948  10.348  71.614  1.00  0.00    -0.581 A  
HETATM   19  C   UNL     1     -11.965   7.735  71.611  1.00  0.00    -0.330 A  
HETATM   20  C   UNL     1     -13.231   8.006  72.132  1.00  0.00    -0.211 A  
HETATM   21  C   UNL     1     -11.683  10.082  71.097  1.00  0.00    -0.472 A  
ENDBRANCH  15  16
ENDBRANCH  14  15
ENDBRANCH  13  14
ENDBRANCH   3  13
ENDBRANCH   2   3
TORSDOF 9
ENDMDL
MODEL      102
REMARK 921   NORMALIZED FREE ENERGY PREDICTED BY IDOCK:   -4.59 KCAL/MOL
REMARK 922        TOTAL FREE ENERGY PREDICTED BY IDOCK:   -8.53 KCAL/MOL
REMARK 923 INTER-LIGAND FREE ENERGY PREDICTED BY IDOCK:   -6.83 KCAL/MOL
REMARK 924 INTRA-LIGAND FREE ENERGY PREDICTED BY IDOCK:   -1.69 KCAL/MOL
REMARK 927      BINDING AFFINITY PREDICTED BY RF-SCORE:    0.00 PKD
ROOT
HETATM    1  C   UNL     1      -7.415  10.661  66.163  1.00  0.00    -0.138 C  
HETATM    2  C   UNL     1      -8.646  10.357  65.316  1.00  0.00    -0.176 C  
ENDROOT
BRANCH   2   3
HETATM    3  N   UNL     1      -9.885  10.046  66.065  1.00  0.00    -0.239 NA 
BRANCH   3   4
HETATM    4  C   UNL     1     -10.032   8.598  66.312  1.00  0.00    -0.217 C  
BRANCH   4   5
HETATM    5  C   UNL     1      -9.522   8.091  67.675  1.00  0.00    -0.171 C  
BRANCH   5   6
HETATM    6  C   UNL     1     -10.416   7.027  68.322  1.00  0.00    -0.237 C  
BRANCH   6   7
HETATM    7  C   UNL     1     -10.730   7.392  69.758  1.00  0.00    -0.252 A  
HETATM    8  C   UNL     1     -11.705   6.685  70.475  1.00  0.00    -0.453 A  
HETATM    9  C   UNL     1     -11.949   6.981  71.818  1.00  0.00    -0.361 A  
HETATM   10  C   UNL     1     -10.009   8.403  70.410  1.00  0.00    -0.199 A  
HETATM   11  C   UNL     1     -11.222   7.983  72.457  1.00  0.00    -0.452 A  
HETATM   12  C   UNL     1     -10.253   8.697  71.752  1.00  0.00    -0.378 A  
ENDBRANCH   6   7
ENDBRANCH   5   6
ENDBRANCH   4   5
ENDBRANCH   3   4
BRANCH   3  13
HETATM   13  C   UNL     1      -9.911  10.803  67.335  1.00  0.00    -0.184 C  
BRANCH  13  14
HETATM   14  C   UNL     1     -11.293  11.295  67.770  1.00  0.00    -0.354 C  
BRANCH  14  15
HETATM   15  C   UNL     1     -11.256  12.682  68.418  1.00  0.00    -0.316 C  
BRANCH  15  16
HETATM   16  C   UNL     1     -11.915  12.600  69.772  1.00  0.00    -0.365 A  
HETATM   17  C   UNL     1     -13.402  12.445  72.134  1.00  0.00    -0.508 A  
HETATM   18  C   UNL     1     -13.056  13.691  71.608  1.00  0.00    -0.455 A  
HETATM   19  C   UNL     1     -12.249  11.352  70.316  1.00  0.00    -0.433 A  
HETATM   20  C   UNL     1     -12.993  11.280  71.494  1.00  0.00    -0.520 A  
HETATM   21  C   UNL     1     -12.310  13.768  70.435  1.00  0.00    -0.423 A  
ENDBRANCH  15  16
ENDBRANCH  14  15
ENDBRANCH  13  14
ENDBRANCH   3  13
ENDBRANCH   2   3
TORSDOF 9
ENDMDL
MODEL      103
REMARK 921   NORMALIZED FREE ENERGY PREDICTED BY IDOCK:   -4.59 KCAL/MOL
REMARK 922        TOTAL FREE ENERGY PREDICTED BY IDOCK:   -8.52 KCAL/MOL
REMARK 923 INTER-LIGAND FREE ENERGY PREDICTED BY IDOCK:   -6.56 KCAL/MOL
REMARK 924 INTRA-LIGAND FREE ENERGY PREDICTED BY IDOCK:   -1.97 KCAL/MOL
REMARK 927      BINDING AFFINITY PREDICTED BY RF-SCORE:    0.00 PKD
ROOT
HETATM    1  C   UNL     1     -10.952  15.378  64.874  1.00  0.00    -0.453 C  
HETATM    2  C   UNL     1     -11.054  13.891  64.555  1.00  0.00    -0.366 C  
ENDROOT
BRANCH   2   3
HETATM    3  N   UNL     1     -10.569  12.970  65.608  1.00  0.00    -0.278 NA 
BRANCH   3   4
HETATM    4  C   UNL     1     -10.990  13.401  66.955  1.00  0.00    -0.287 C  
BRANCH   4   5
HETATM    5  C   UNL     1     -11.669  12.326  67.826  1.00  0.00    -0.403 C  
BRANCH   5   6
HETATM    6  C   UNL     1     -10.793  11.799  68.968  1.00  0.00    -0.239 C  
BRANCH   6   7
HETATM    7  C   UNL     1     -11.630  11.054  69.986  1.00  0.00    -0.427 A  
HETATM    8  C   UNL     1     -11.490   9.668  70.146  1.00  0.00    -0.238 A  
HETATM    9  C   UNL     1     -12.216   8.992  71.129  1.00  0.00    -0.331 A  
HETATM   10  C   UNL     1     -12.516  11.746  70.824  1.00  0.00    -0.405 A  
HETATM   11  C   UNL     1     -13.089   9.692  71.960  1.00  0.00    -0.537 A  
HETATM   12  C   UNL     1     -13.241  11.069  71.806  1.00  0.00    -0.505 A  
ENDBRANCH   6   7
ENDBRANCH   5   6
ENDBRANCH   4   5
ENDBRANCH   3   4
BRANCH   3  13
HETATM   13  C   UNL     1     -11.028  11.593  65.327  1.00  0.00    -0.268 C  
BRANCH  13  14
HETATM   14  C   UNL     1      -9.917  10.585  65.030  1.00  0.00    -0.388 C  
BRANCH  14  15
HETATM   15  C   UNL     1      -8.906  10.457  66.174  1.00  0.00    -0.172 C  
BRANCH  15  16
HETATM   16  C   UNL     1      -9.276   9.261  67.014  1.00  0.00    -0.169 A  
HETATM   17  C   UNL     1      -9.777   6.882  68.395  1.00  0.00    -0.137 A  
HETATM   18  C   UNL     1     -10.588   7.248  67.318  1.00  0.00    -0.395 A  
HETATM   19  C   UNL     1      -8.479   8.897  68.108  1.00  0.00    -0.129 A  
HETATM   20  C   UNL     1      -8.731   7.708  68.792  1.00  0.00    -0.128 A  
HETATM   21  C   UNL     1     -10.342   8.436  66.634  1.00  0.00    -0.298 A  
ENDBRANCH  15  16
ENDBRANCH  14  15
ENDBRANCH  13  14
ENDBRANCH   3  13
ENDBRANCH   2   3
TORSDOF 9
ENDMDL
MODEL      104
REMARK 921   NORMALIZED FREE ENERGY PREDICTED BY IDOCK:   -4.59 KCAL/MOL
REMARK 922        TOTAL FREE ENERGY PREDICTED BY IDOCK:   -8.52 KCAL/MOL
REMARK 923 INTER-LIGAND FREE ENERGY PREDICTED BY IDOCK:   -6.73 KCAL/MOL
REMARK 924 INTRA-LIGAND FREE ENERGY PREDICTED BY IDOCK:   -1.79 KCAL/MOL
REMARK 927      BINDING AFFINITY PREDICTED BY RF-SCORE:    0.00 PKD
ROOT
HETATM    1  C   UNL     1      -7.953  12.913  67.736  1.00  0.00    -0.162 C  
HETATM    2  C   UNL     1      -8.270  11.922  66.622  1.00  0.00    -0.088 C  
ENDROOT
BRANCH   2   3
HETATM    3  N   UNL     1      -9.570  11.220  66.733  1.00  0.00    -0.190 NA 
BRANCH   3   4
HETATM    4  C   UNL     1     -10.194  11.004  65.413  1.00  0.00    -0.274 C  
BRANCH   4   5
HETATM    5  C   UNL     1     -11.272  12.025  65.001  1.00  0.00    -0.374 C  
BRANCH   5   6
HETATM    6  C   UNL     1     -12.028  12.648  66.179  1.00  0.00    -0.458 C  
BRANCH   6   7
HETATM    7  C   UNL     1     -11.512  14.042  66.470  1.00  0.00    -0.368 A  
HETATM    8  C   UNL     1     -11.724  14.633  67.724  1.00  0.00    -0.386 A  
HETATM    9  C   UNL     1     -11.194  15.893  68.011  1.00  0.00    -0.319 A  
HETATM   10  C   UNL     1     -10.764  14.739  65.510  1.00  0.00    -0.369 A  
HETATM   11  C   UNL     1     -10.447  16.573  67.050  1.00  0.00    -0.289 A  
HETATM   12  C   UNL     1     -10.234  15.998  65.798  1.00  0.00    -0.401 A  
ENDBRANCH   6   7
ENDBRANCH   5   6
ENDBRANCH   4   5
ENDBRANCH   3   4
BRANCH   3  13
HETATM   13  C   UNL     1      -9.393   9.939  67.450  1.00  0.00    -0.137 C  
BRANCH  13  14
HETATM   14  C   UNL     1      -9.565  10.015  68.967  1.00  0.00    -0.200 C  
BRANCH  14  15
HETATM   15  C   UNL     1     -10.822   9.292  69.463  1.00  0.00    -0.211 C  
BRANCH  15  16
HETATM   16  C   UNL     1     -11.691  10.283  70.195  1.00  0.00    -0.364 A  
HETATM   17  C   UNL     1     -13.070  12.160  71.742  1.00  0.00    -0.457 A  
HETATM   18  C   UNL     1     -13.164  10.801  72.046  1.00  0.00    -0.466 A  
HETATM   19  C   UNL     1     -11.617  11.648  69.883  1.00  0.00    -0.366 A  
HETATM   20  C   UNL     1     -12.305  12.581  70.660  1.00  0.00    -0.369 A  
HETATM   21  C   UNL     1     -12.482   9.865  71.272  1.00  0.00    -0.479 A  
ENDBRANCH  15  16
ENDBRANCH  14  15
ENDBRANCH  13  14
ENDBRANCH   3  13
ENDBRANCH   2   3
TORSDOF 9
ENDMDL
MODEL      105
REMARK 921   NORMALIZED FREE ENERGY PREDICTED BY IDOCK:   -4.58 KCAL/MOL
REMARK 922        TOTAL FREE ENERGY PREDICTED BY IDOCK:   -8.51 KCAL/MOL
REMARK 923 INTER-LIGAND FREE ENERGY PREDICTED BY IDOCK:   -7.51 KCAL/MOL
REMARK 924 INTRA-LIGAND FREE ENERGY PREDICTED BY IDOCK:   -1.00 KCAL/MOL
REMARK 927      BINDING AFFINITY PREDICTED BY RF-SCORE:    0.00 PKD
ROOT
HETATM    1  C   UNL     1     -12.524  12.711  64.733  1.00  0.00    -0.555 C  
HETATM    2  C   UNL     1     -11.201  11.962  64.850  1.00  0.00    -0.292 C  
ENDROOT
BRANCH   2   3
HETATM    3  N   UNL     1     -10.574  11.964  66.192  1.00  0.00    -0.249 NA 
BRANCH   3   4
HETATM    4  C   UNL     1     -10.791  13.241  66.900  1.00  0.00    -0.276 C  
BRANCH   4   5
HETATM    5  C   UNL     1     -11.603  13.159  68.207  1.00  0.00    -0.370 C  
BRANCH   5   6
HETATM    6  C   UNL     1     -11.594  14.449  69.033  1.00  0.00    -0.330 C  
BRANCH   6   7
HETATM    7  C   UNL     1     -12.444  14.295  70.277  1.00  0.00    -0.422 A  
HETATM    8  C   UNL     1     -12.573  13.047  70.902  1.00  0.00    -0.364 A  
HETATM    9  C   UNL     1     -13.306  12.920  72.084  1.00  0.00    -0.615 A  
HETATM   10  C   UNL     1     -13.068  15.410  70.855  1.00  0.00    -0.528 A  
HETATM   11  C   UNL     1     -13.916  14.036  72.652  1.00  0.00    -0.428 A  
HETATM   12  C   UNL     1     -13.800  15.282  72.036  1.00  0.00    -0.626 A  
ENDBRANCH   6   7
ENDBRANCH   5   6
ENDBRANCH   4   5
ENDBRANCH   3   4
BRANCH   3  13
HETATM   13  C   UNL     1     -11.080  10.826  66.989  1.00  0.00    -0.174 C  
BRANCH  13  14
HETATM   14  C   UNL     1     -10.009  10.032  67.739  1.00  0.00    -0.203 C  
BRANCH  14  15
HETATM   15  C   UNL     1     -10.381   8.558  67.925  1.00  0.00    -0.281 C  
BRANCH  15  16
HETATM   16  C   UNL     1     -10.751   8.332  69.370  1.00  0.00    -0.160 A  
HETATM   17  C   UNL     1     -11.142   7.947  72.111  1.00  0.00    -0.351 A  
HETATM   18  C   UNL     1     -10.899   6.851  71.281  1.00  0.00    -0.263 A  
HETATM   19  C   UNL     1     -11.015   9.425  70.206  1.00  0.00    -0.305 A  
HETATM   20  C   UNL     1     -11.206   9.229  71.574  1.00  0.00    -0.457 A  
HETATM   21  C   UNL     1     -10.711   7.043  69.914  1.00  0.00    -0.265 A  
ENDBRANCH  15  16
ENDBRANCH  14  15
ENDBRANCH  13  14
ENDBRANCH   3  13
ENDBRANCH   2   3
TORSDOF 9
ENDMDL
MODEL      106
REMARK 921   NORMALIZED FREE ENERGY PREDICTED BY IDOCK:   -4.58 KCAL/MOL
REMARK 922        TOTAL FREE ENERGY PREDICTED BY IDOCK:   -8.51 KCAL/MOL
REMARK 923 INTER-LIGAND FREE ENERGY PREDICTED BY IDOCK:   -7.02 KCAL/MOL
REMARK 924 INTRA-LIGAND FREE ENERGY PREDICTED BY IDOCK:   -1.49 KCAL/MOL
REMARK 927      BINDING AFFINITY PREDICTED BY RF-SCORE:    0.00 PKD
ROOT
HETATM    1  C   UNL     1     -11.240  15.767  67.706  1.00  0.00    -0.286 C  
HETATM    2  C   UNL     1     -11.711  14.410  67.193  1.00  0.00    -0.400 C  
ENDROOT
BRANCH   2   3
HETATM    3  N   UNL     1     -11.525  13.269  68.117  1.00  0.00    -0.291 NA 
BRANCH   3   4
HETATM    4  C   UNL     1     -10.097  12.995  68.374  1.00  0.00    -0.225 C  
BRANCH   4   5
HETATM    5  C   UNL     1      -9.548  11.677  67.792  1.00  0.00    -0.178 C  
BRANCH   5   6
HETATM    6  C   UNL     1     -10.592  10.837  67.050  1.00  0.00    -0.312 C  
BRANCH   6   7
HETATM    7  C   UNL     1     -10.295  10.802  65.565  1.00  0.00    -0.308 A  
HETATM    8  C   UNL     1     -10.839  11.767  64.707  1.00  0.00    -0.358 A  
HETATM    9  C   UNL     1     -10.513  11.771  63.349  1.00  0.00    -0.485 A  
HETATM   10  C   UNL     1      -9.424   9.838  65.036  1.00  0.00    -0.337 A  
HETATM   11  C   UNL     1      -9.642  10.812  62.836  1.00  0.00    -0.366 A  
HETATM   12  C   UNL     1      -9.099   9.843  63.679  1.00  0.00    -0.294 A  
ENDBRANCH   6   7
ENDBRANCH   5   6
ENDBRANCH   4   5
ENDBRANCH   3   4
BRANCH   3  13
HETATM   13  C   UNL     1     -12.250  13.519  69.381  1.00  0.00    -0.228 C  
BRANCH  13  14
HETATM   14  C   UNL     1     -12.077  12.441  70.453  1.00  0.00    -0.381 C  
BRANCH  14  15
HETATM   15  C   UNL     1     -12.751  11.117  70.082  1.00  0.00    -0.157 C  
BRANCH  15  16
HETATM   16  C   UNL     1     -12.050   9.998  70.810  1.00  0.00    -0.418 A  
HETATM   17  C   UNL     1     -10.708   8.118  72.387  1.00  0.00    -0.404 A  
HETATM   18  C   UNL     1      -9.993   8.917  71.492  1.00  0.00    -0.391 A  
HETATM   19  C   UNL     1     -12.764   9.179  71.695  1.00  0.00    -0.429 A  
HETATM   20  C   UNL     1     -12.090   8.245  72.482  1.00  0.00    -0.400 A  
HETATM   21  C   UNL     1     -10.662   9.849  70.702  1.00  0.00    -0.372 A  
ENDBRANCH  15  16
ENDBRANCH  14  15
ENDBRANCH  13  14
ENDBRANCH   3  13
ENDBRANCH   2   3
TORSDOF 9
ENDMDL
MODEL      107
REMARK 921   NORMALIZED FREE ENERGY PREDICTED BY IDOCK:   -4.58 KCAL/MOL
REMARK 922        TOTAL FREE ENERGY PREDICTED BY IDOCK:   -8.50 KCAL/MOL
REMARK 923 INTER-LIGAND FREE ENERGY PREDICTED BY IDOCK:   -7.38 KCAL/MOL
REMARK 924 INTRA-LIGAND FREE ENERGY PREDICTED BY IDOCK:   -1.12 KCAL/MOL
REMARK 927      BINDING AFFINITY PREDICTED BY RF-SCORE:    0.00 PKD
ROOT
HETATM    1  C   UNL     1     -11.019  12.777  68.579  1.00  0.00    -0.288 C  
HETATM    2  C   UNL     1     -12.024  12.908  67.441  1.00  0.00    -0.300 C  
ENDROOT
BRANCH   2   3
HETATM    3  N   UNL     1     -11.918  14.139  66.623  1.00  0.00    -0.427 NA 
BRANCH   3   4
HETATM    4  C   UNL     1     -10.523  14.607  66.511  1.00  0.00    -0.290 C  
BRANCH   4   5
HETATM    5  C   UNL     1     -10.254  15.671  65.429  1.00  0.00    -0.401 C  
BRANCH   5   6
HETATM    6  C   UNL     1     -10.855  17.046  65.738  1.00  0.00    -0.046 C  
BRANCH   6   7
HETATM    7  C   UNL     1      -9.925  17.852  66.621  1.00  0.00    -0.355 A  
HETATM    8  C   UNL     1     -10.441  18.700  67.611  1.00  0.00    -0.468 A  
HETATM    9  C   UNL     1      -9.581  19.394  68.465  1.00  0.00    -0.472 A  
HETATM   10  C   UNL     1      -8.534  17.717  66.500  1.00  0.00    -0.294 A  
HETATM   11  C   UNL     1      -8.201  19.248  68.340  1.00  0.00    -0.383 A  
HETATM   12  C   UNL     1      -7.677  18.411  67.355  1.00  0.00    -0.226 A  
ENDBRANCH   6   7
ENDBRANCH   5   6
ENDBRANCH   4   5
ENDBRANCH   3   4
BRANCH   3  13
HETATM   13  C   UNL     1     -12.508  13.911  65.287  1.00  0.00    -0.478 C  
BRANCH  13  14
HETATM   14  C   UNL     1     -12.356  12.489  64.744  1.00  0.00    -0.544 C  
BRANCH  14  15
HETATM   15  C   UNL     1     -11.393  12.404  63.555  1.00  0.00    -0.553 C  
BRANCH  15  16
HETATM   16  C   UNL     1     -10.431  11.268  63.794  1.00  0.00    -0.459 A  
HETATM   17  C   UNL     1      -8.454   9.368  64.341  1.00  0.00    -0.196 A  
HETATM   18  C   UNL     1      -8.514   9.970  63.082  1.00  0.00    -0.181 A  
HETATM   19  C   UNL     1     -10.377  10.645  65.049  1.00  0.00    -0.341 A  
HETATM   20  C   UNL     1      -9.387   9.700  65.317  1.00  0.00    -0.322 A  
HETATM   21  C   UNL     1      -9.503  10.912  62.808  1.00  0.00    -0.359 A  
ENDBRANCH  15  16
ENDBRANCH  14  15
ENDBRANCH  13  14
ENDBRANCH   3  13
ENDBRANCH   2   3
TORSDOF 9
ENDMDL
MODEL      108
REMARK 921   NORMALIZED FREE ENERGY PREDICTED BY IDOCK:   -4.56 KCAL/MOL
REMARK 922        TOTAL FREE ENERGY PREDICTED BY IDOCK:   -8.48 KCAL/MOL
REMARK 923 INTER-LIGAND FREE ENERGY PREDICTED BY IDOCK:   -6.64 KCAL/MOL
REMARK 924 INTRA-LIGAND FREE ENERGY PREDICTED BY IDOCK:   -1.84 KCAL/MOL
REMARK 927      BINDING AFFINITY PREDICTED BY RF-SCORE:    0.00 PKD
ROOT
HETATM    1  C   UNL     1      -7.832   6.424  68.448  1.00  0.00    -0.105 C  
HETATM    2  C   UNL     1      -7.382   7.867  68.642  1.00  0.00    -0.090 C  
ENDROOT
BRANCH   2   3
HETATM    3  N   UNL     1      -8.441   8.828  69.028  1.00  0.00    -0.129 NA 
BRANCH   3   4
HETATM    4  C   UNL     1      -8.269   9.312  70.412  1.00  0.00    -0.178 C  
BRANCH   4   5
HETATM    5  C   UNL     1      -9.355   8.880  71.417  1.00  0.00    -0.338 C  
BRANCH   5   6
HETATM    6  C   UNL     1     -10.282   7.775  70.902  1.00  0.00    -0.207 C  
BRANCH   6   7
HETATM    7  C   UNL     1     -11.712   8.031  71.329  1.00  0.00    -0.311 A  
HETATM    8  C   UNL     1     -12.083   9.273  71.865  1.00  0.00    -0.440 A  
HETATM    9  C   UNL     1     -13.415   9.529  72.199  1.00  0.00    -0.535 A  
HETATM   10  C   UNL     1     -12.698   7.051  71.142  1.00  0.00    -0.361 A  
HETATM   11  C   UNL     1     -14.387   8.549  72.003  1.00  0.00    -0.537 A  
HETATM   12  C   UNL     1     -14.028   7.309  71.477  1.00  0.00    -0.486 A  
ENDBRANCH   6   7
ENDBRANCH   5   6
ENDBRANCH   4   5
ENDBRANCH   3   4
BRANCH   3  13
HETATM   13  C   UNL     1      -8.472   9.957  68.074  1.00  0.00    -0.117 C  
BRANCH  13  14
HETATM   14  C   UNL     1      -9.700  10.005  67.164  1.00  0.00    -0.217 C  
BRANCH  14  15
HETATM   15  C   UNL     1     -11.019  10.023  67.942  1.00  0.00    -0.311 C  
BRANCH  15  16
HETATM   16  C   UNL     1     -11.392  11.456  68.227  1.00  0.00    -0.354 A  
HETATM   17  C   UNL     1     -11.790  14.160  68.817  1.00  0.00    -0.384 A  
HETATM   18  C   UNL     1     -11.907  13.201  69.825  1.00  0.00    -0.386 A  
HETATM   19  C   UNL     1     -11.295  12.422  67.216  1.00  0.00    -0.384 A  
HETATM   20  C   UNL     1     -11.492  13.770  67.516  1.00  0.00    -0.359 A  
HETATM   21  C   UNL     1     -11.715  11.854  69.530  1.00  0.00    -0.410 A  
ENDBRANCH  15  16
ENDBRANCH  14  15
ENDBRANCH  13  14
ENDBRANCH   3  13
ENDBRANCH   2   3
TORSDOF 9
ENDMDL
MODEL      109
REMARK 921   NORMALIZED FREE ENERGY PREDICTED BY IDOCK:   -4.56 KCAL/MOL
REMARK 922        TOTAL FREE ENERGY PREDICTED BY IDOCK:   -8.48 KCAL/MOL
REMARK 923 INTER-LIGAND FREE ENERGY PREDICTED BY IDOCK:   -6.76 KCAL/MOL
REMARK 924 INTRA-LIGAND FREE ENERGY PREDICTED BY IDOCK:   -1.72 KCAL/MOL
REMARK 927      BINDING AFFINITY PREDICTED BY RF-SCORE:    0.00 PKD
ROOT
HETATM    1  C   UNL     1     -11.705   9.779  71.118  1.00  0.00    -0.465 C  
HETATM    2  C   UNL     1     -12.143  11.088  70.470  1.00  0.00    -0.377 C  
ENDROOT
BRANCH   2   3
HETATM    3  N   UNL     1     -11.274  11.594  69.384  1.00  0.00    -0.255 NA 
BRANCH   3   4
HETATM    4  C   UNL     1     -11.472  10.847  68.126  1.00  0.00    -0.295 C  
BRANCH   4   5
HETATM    5  C   UNL     1     -10.206  10.226  67.504  1.00  0.00    -0.254 C  
BRANCH   5   6
HETATM    6  C   UNL     1     -10.357   8.751  67.116  1.00  0.00    -0.364 C  
BRANCH   6   7
HETATM    7  C   UNL     1     -10.091   7.854  68.307  1.00  0.00    -0.225 A  
HETATM    8  C   UNL     1      -9.108   8.191  69.247  1.00  0.00    -0.151 A  
HETATM    9  C   UNL     1      -8.907   7.395  70.377  1.00  0.00    -0.149 A  
HETATM   10  C   UNL     1     -10.864   6.702  68.517  1.00  0.00    -0.319 A  
HETATM   11  C   UNL     1      -9.685   6.257  70.579  1.00  0.00    -0.196 A  
HETATM   12  C   UNL     1     -10.662   5.908  69.647  1.00  0.00    -0.415 A  
ENDBRANCH   6   7
ENDBRANCH   5   6
ENDBRANCH   4   5
ENDBRANCH   3   4
BRANCH   3  13
HETATM   13  C   UNL     1     -11.507  13.040  69.181  1.00  0.00    -0.299 C  
BRANCH  13  14
HETATM   14  C   UNL     1     -10.458  13.753  68.327  1.00  0.00    -0.251 C  
BRANCH  14  15
HETATM   15  C   UNL     1     -11.075  14.667  67.263  1.00  0.00    -0.331 C  
BRANCH  15  16
HETATM   16  C   UNL     1     -11.281  13.868  66.001  1.00  0.00    -0.300 A  
HETATM   17  C   UNL     1     -11.708  12.146  63.839  1.00  0.00    -0.546 A  
HETATM   18  C   UNL     1     -10.415  12.340  64.332  1.00  0.00    -0.355 A  
HETATM   19  C   UNL     1     -12.572  13.684  65.488  1.00  0.00    -0.541 A  
HETATM   20  C   UNL     1     -12.780  12.822  64.411  1.00  0.00    -0.370 A  
HETATM   21  C   UNL     1     -10.202  13.202  65.405  1.00  0.00    -0.301 A  
ENDBRANCH  15  16
ENDBRANCH  14  15
ENDBRANCH  13  14
ENDBRANCH   3  13
ENDBRANCH   2   3
TORSDOF 9
ENDMDL
MODEL      110
REMARK 921   NORMALIZED FREE ENERGY PREDICTED BY IDOCK:   -4.56 KCAL/MOL
REMARK 922        TOTAL FREE ENERGY PREDICTED BY IDOCK:   -8.48 KCAL/MOL
REMARK 923 INTER-LIGAND FREE ENERGY PREDICTED BY IDOCK:   -7.35 KCAL/MOL
REMARK 924 INTRA-LIGAND FREE ENERGY PREDICTED BY IDOCK:   -1.13 KCAL/MOL
REMARK 927      BINDING AFFINITY PREDICTED BY RF-SCORE:    0.00 PKD
ROOT
HETATM    1  C   UNL     1     -13.189  15.679  71.560  1.00  0.00    -0.555 C  
HETATM    2  C   UNL     1     -12.183  15.723  70.415  1.00  0.00    -0.356 C  
ENDROOT
BRANCH   2   3
HETATM    3  N   UNL     1     -11.459  14.461  70.142  1.00  0.00    -0.249 NA 
BRANCH   3   4
HETATM    4  C   UNL     1     -12.381  13.356  69.815  1.00  0.00    -0.159 C  
BRANCH   4   5
HETATM    5  C   UNL     1     -12.297  12.114  70.725  1.00  0.00    -0.391 C  
BRANCH   5   6
HETATM    6  C   UNL     1     -12.120  10.794  69.968  1.00  0.00    -0.423 C  
BRANCH   6   7
HETATM    7  C   UNL     1     -10.884  10.062  70.449  1.00  0.00    -0.380 A  
HETATM    8  C   UNL     1     -10.927   9.282  71.614  1.00  0.00    -0.433 A  
HETATM    9  C   UNL     1      -9.805   8.558  72.021  1.00  0.00    -0.383 A  
HETATM   10  C   UNL     1      -9.696  10.106  69.706  1.00  0.00    -0.232 A  
HETATM   11  C   UNL     1      -8.631   8.604  71.271  1.00  0.00    -0.236 A  
HETATM   12  C   UNL     1      -8.575   9.381  70.115  1.00  0.00    -0.233 A  
ENDBRANCH   6   7
ENDBRANCH   5   6
ENDBRANCH   4   5
ENDBRANCH   3   4
BRANCH   3  13
HETATM   13  C   UNL     1     -10.475  14.666  69.058  1.00  0.00    -0.246 C  
BRANCH  13  14
HETATM   14  C   UNL     1     -10.954  14.266  67.662  1.00  0.00    -0.286 C  
BRANCH  14  15
HETATM   15  C   UNL     1     -10.053  13.221  66.998  1.00  0.00    -0.242 C  
BRANCH  15  16
HETATM   16  C   UNL     1     -10.742  12.705  65.760  1.00  0.00    -0.295 A  
HETATM   17  C   UNL     1     -11.993  12.030  63.352  1.00  0.00    -0.571 A  
HETATM   18  C   UNL     1     -12.756  12.474  64.434  1.00  0.00    -0.447 A  
HETATM   19  C   UNL     1      -9.985  12.240  64.676  1.00  0.00    -0.212 A  
HETATM   20  C   UNL     1     -10.613  11.907  63.476  1.00  0.00    -0.507 A  
HETATM   21  C   UNL     1     -12.133  12.804  65.635  1.00  0.00    -0.514 A  
ENDBRANCH  15  16
ENDBRANCH  14  15
ENDBRANCH  13  14
ENDBRANCH   3  13
ENDBRANCH   2   3
TORSDOF 9
ENDMDL
MODEL      111
REMARK 921   NORMALIZED FREE ENERGY PREDICTED BY IDOCK:   -4.56 KCAL/MOL
REMARK 922        TOTAL FREE ENERGY PREDICTED BY IDOCK:   -8.47 KCAL/MOL
REMARK 923 INTER-LIGAND FREE ENERGY PREDICTED BY IDOCK:   -7.32 KCAL/MOL
REMARK 924 INTRA-LIGAND FREE ENERGY PREDICTED BY IDOCK:   -1.15 KCAL/MOL
REMARK 927      BINDING AFFINITY PREDICTED BY RF-SCORE:    0.00 PKD
ROOT
HETATM    1  C   UNL     1      -8.874   8.603  65.141  1.00  0.00    -0.147 C  
HETATM    2  C   UNL     1      -8.969   7.578  66.266  1.00  0.00    -0.167 C  
ENDROOT
BRANCH   2   3
HETATM    3  N   UNL     1      -9.944   7.883  67.338  1.00  0.00    -0.179 NA 
BRANCH   3   4
HETATM    4  C   UNL     1      -9.822   6.952  68.476  1.00  0.00    -0.144 C  
BRANCH   4   5
HETATM    5  C   UNL     1     -11.143   6.367  69.013  1.00  0.00    -0.424 C  
BRANCH   5   6
HETATM    6  C   UNL     1     -11.249   6.360  70.542  1.00  0.00    -0.414 C  
BRANCH   6   7
HETATM    7  C   UNL     1     -12.085   7.525  71.027  1.00  0.00    -0.305 A  
HETATM    8  C   UNL     1     -13.362   7.311  71.564  1.00  0.00    -0.435 A  
HETATM    9  C   UNL     1     -14.106   8.380  72.069  1.00  0.00    -0.495 A  
HETATM   10  C   UNL     1     -11.572   8.830  71.000  1.00  0.00    -0.337 A  
HETATM   11  C   UNL     1     -13.583   9.671  72.042  1.00  0.00    -0.467 A  
HETATM   12  C   UNL     1     -12.316   9.898  71.504  1.00  0.00    -0.504 A  
ENDBRANCH   6   7
ENDBRANCH   5   6
ENDBRANCH   4   5
ENDBRANCH   3   4
BRANCH   3  13
HETATM   13  C   UNL     1      -9.785   9.284  67.782  1.00  0.00    -0.150 C  
BRANCH  13  14
HETATM   14  C   UNL     1     -11.029  10.160  67.627  1.00  0.00    -0.331 C  
BRANCH  14  15
HETATM   15  C   UNL     1     -10.712  11.658  67.663  1.00  0.00    -0.249 C  
BRANCH  15  16
HETATM   16  C   UNL     1     -11.234  12.292  66.397  1.00  0.00    -0.370 A  
HETATM   17  C   UNL     1     -11.973  13.665  64.077  1.00  0.00    -0.478 A  
HETATM   18  C   UNL     1     -12.514  14.037  65.309  1.00  0.00    -0.495 A  
HETATM   19  C   UNL     1     -10.711  11.911  65.154  1.00  0.00    -0.339 A  
HETATM   20  C   UNL     1     -11.081  12.601  63.999  1.00  0.00    -0.453 A  
HETATM   21  C   UNL     1     -12.150  13.349  66.464  1.00  0.00    -0.444 A  
ENDBRANCH  15  16
ENDBRANCH  14  15
ENDBRANCH  13  14
ENDBRANCH   3  13
ENDBRANCH   2   3
TORSDOF 9
ENDMDL
MODEL      112
REMARK 921   NORMALIZED FREE ENERGY PREDICTED BY IDOCK:   -4.55 KCAL/MOL
REMARK 922        TOTAL FREE ENERGY PREDICTED BY IDOCK:   -8.46 KCAL/MOL
REMARK 923 INTER-LIGAND FREE ENERGY PREDICTED BY IDOCK:   -6.63 KCAL/MOL
REMARK 924 INTRA-LIGAND FREE ENERGY PREDICTED BY IDOCK:   -1.83 KCAL/MOL
REMARK 927      BINDING AFFINITY PREDICTED BY RF-SCORE:    0.00 PKD
ROOT
HETATM    1  C   UNL     1     -13.876  14.921  72.478  1.00  0.00    -0.564 C  
HETATM    2  C   UNL     1     -12.776  15.842  71.961  1.00  0.00    -0.449 C  
ENDROOT
BRANCH   2   3
HETATM    3  N   UNL     1     -11.850  15.249  70.969  1.00  0.00    -0.312 NA 
BRANCH   3   4
HETATM    4  C   UNL     1     -12.520  14.241  70.123  1.00  0.00    -0.335 C  
BRANCH   4   5
HETATM    5  C   UNL     1     -11.858  12.850  70.079  1.00  0.00    -0.356 C  
BRANCH   5   6
HETATM    6  C   UNL     1     -11.817  12.220  68.683  1.00  0.00    -0.354 C  
BRANCH   6   7
HETATM    7  C   UNL     1     -11.286  10.803  68.750  1.00  0.00    -0.352 A  
HETATM    8  C   UNL     1     -11.187  10.138  69.980  1.00  0.00    -0.361 A  
HETATM    9  C   UNL     1     -10.757   8.809  70.033  1.00  0.00    -0.236 A  
HETATM   10  C   UNL     1     -10.943  10.115  67.577  1.00  0.00    -0.319 A  
HETATM   11  C   UNL     1     -10.424   8.134  68.860  1.00  0.00    -0.202 A  
HETATM   12  C   UNL     1     -10.514   8.787  67.632  1.00  0.00    -0.310 A  
ENDBRANCH   6   7
ENDBRANCH   5   6
ENDBRANCH   4   5
ENDBRANCH   3   4
BRANCH   3  13
HETATM   13  C   UNL     1     -11.245  16.314  70.141  1.00  0.00    -0.333 C  
BRANCH  13  14
HETATM   14  C   UNL     1     -11.455  16.165  68.634  1.00  0.00    -0.340 C  
BRANCH  14  15
HETATM   15  C   UNL     1     -10.149  16.249  67.838  1.00  0.00    -0.247 C  
BRANCH  15  16
HETATM   16  C   UNL     1     -10.088  15.080  66.887  1.00  0.00    -0.249 A  
HETATM   17  C   UNL     1     -10.173  12.776  65.306  1.00  0.00    -0.296 A  
HETATM   18  C   UNL     1      -9.221  12.891  66.321  1.00  0.00    -0.087 A  
HETATM   19  C   UNL     1     -11.028  14.966  65.853  1.00  0.00    -0.338 A  
HETATM   20  C   UNL     1     -11.068  13.813  65.069  1.00  0.00    -0.348 A  
HETATM   21  C   UNL     1      -9.175  14.042  67.104  1.00  0.00    -0.240 A  
ENDBRANCH  15  16
ENDBRANCH  14  15
ENDBRANCH  13  14
ENDBRANCH   3  13
ENDBRANCH   2   3
TORSDOF 9
ENDMDL
MODEL      113
REMARK 921   NORMALIZED FREE ENERGY PREDICTED BY IDOCK:   -4.54 KCAL/MOL
REMARK 922        TOTAL FREE ENERGY PREDICTED BY IDOCK:   -8.44 KCAL/MOL
REMARK 923 INTER-LIGAND FREE ENERGY PREDICTED BY IDOCK:   -7.04 KCAL/MOL
REMARK 924 INTRA-LIGAND FREE ENERGY PREDICTED BY IDOCK:   -1.40 KCAL/MOL
REMARK 927      BINDING AFFINITY PREDICTED BY RF-SCORE:    0.00 PKD
ROOT
HETATM    1  C   UNL     1     -14.338   7.656  71.530  1.00  0.00    -0.589 C  
HETATM    2  C   UNL     1     -12.960   7.012  71.632  1.00  0.00    -0.352 C  
ENDROOT
BRANCH   2   3
HETATM    3  N   UNL     1     -11.815   7.946  71.726  1.00  0.00    -0.280 NA 
BRANCH   3   4
HETATM    4  C   UNL     1     -10.863   7.766  70.613  1.00  0.00    -0.237 C  
BRANCH   4   5
HETATM    5  C   UNL     1     -10.803   6.354  69.998  1.00  0.00    -0.366 C  
BRANCH   5   6
HETATM    6  C   UNL     1     -11.054   6.318  68.487  1.00  0.00    -0.397 C  
BRANCH   6   7
HETATM    7  C   UNL     1     -10.055   7.189  67.756  1.00  0.00    -0.215 A  
HETATM    8  C   UNL     1     -10.480   8.331  67.062  1.00  0.00    -0.384 A  
HETATM    9  C   UNL     1      -9.550   9.168  66.441  1.00  0.00    -0.309 A  
HETATM   10  C   UNL     1      -8.684   6.900  67.810  1.00  0.00    -0.120 A  
HETATM   11  C   UNL     1      -8.189   8.874  66.507  1.00  0.00    -0.114 A  
HETATM   12  C   UNL     1      -7.756   7.737  67.189  1.00  0.00    -0.105 A  
ENDBRANCH   6   7
ENDBRANCH   5   6
ENDBRANCH   4   5
ENDBRANCH   3   4
BRANCH   3  13
HETATM   13  C   UNL     1     -12.304   9.341  71.783  1.00  0.00    -0.379 C  
BRANCH  13  14
HETATM   14  C   UNL     1     -11.714  10.279  70.729  1.00  0.00    -0.453 C  
BRANCH  14  15
HETATM   15  C   UNL     1     -12.281  11.700  70.811  1.00  0.00    -0.443 C  
BRANCH  15  16
HETATM   16  C   UNL     1     -11.972  12.417  69.521  1.00  0.00    -0.324 A  
HETATM   17  C   UNL     1     -11.698  13.747  67.077  1.00  0.00    -0.420 A  
HETATM   18  C   UNL     1     -11.641  12.352  67.123  1.00  0.00    -0.435 A  
HETATM   19  C   UNL     1     -12.008  13.818  69.470  1.00  0.00    -0.399 A  
HETATM   20  C   UNL     1     -11.874  14.476  68.248  1.00  0.00    -0.347 A  
HETATM   21  C   UNL     1     -11.771  11.691  68.341  1.00  0.00    -0.374 A  
ENDBRANCH  15  16
ENDBRANCH  14  15
ENDBRANCH  13  14
ENDBRANCH   3  13
ENDBRANCH   2   3
TORSDOF 9
ENDMDL
MODEL      114
REMARK 921   NORMALIZED FREE ENERGY PREDICTED BY IDOCK:   -4.54 KCAL/MOL
REMARK 922        TOTAL FREE ENERGY PREDICTED BY IDOCK:   -8.44 KCAL/MOL
REMARK 923 INTER-LIGAND FREE ENERGY PREDICTED BY IDOCK:   -6.52 KCAL/MOL
REMARK 924 INTRA-LIGAND FREE ENERGY PREDICTED BY IDOCK:   -1.92 KCAL/MOL
REMARK 927      BINDING AFFINITY PREDICTED BY RF-SCORE:    0.00 PKD
ROOT
HETATM    1  C   UNL     1     -11.010  16.206  64.616  1.00  0.00    -0.263 C  
HETATM    2  C   UNL     1     -11.041  15.134  65.700  1.00  0.00    -0.334 C  
ENDROOT
BRANCH   2   3
HETATM    3  N   UNL     1     -11.793  13.902  65.368  1.00  0.00    -0.339 NA 
BRANCH   3   4
HETATM    4  C   UNL     1     -11.002  12.982  64.526  1.00  0.00    -0.358 C  
BRANCH   4   5
HETATM    5  C   UNL     1     -10.913  11.525  65.019  1.00  0.00    -0.305 C  
BRANCH   5   6
HETATM    6  C   UNL     1      -9.485  11.042  65.293  1.00  0.00    -0.259 C  
BRANCH   6   7
HETATM    7  C   UNL     1      -9.428  10.233  66.571  1.00  0.00    -0.212 A  
HETATM    8  C   UNL     1     -10.351   9.203  66.804  1.00  0.00    -0.308 A  
HETATM    9  C   UNL     1     -10.258   8.417  67.954  1.00  0.00    -0.273 A  
HETATM   10  C   UNL     1      -8.415  10.461  67.514  1.00  0.00    -0.115 A  
HETATM   11  C   UNL     1      -9.244   8.650  68.881  1.00  0.00    -0.145 A  
HETATM   12  C   UNL     1      -8.324   9.674  68.663  1.00  0.00    -0.114 A  
ENDBRANCH   6   7
ENDBRANCH   5   6
ENDBRANCH   4   5
ENDBRANCH   3   4
BRANCH   3  13
HETATM   13  C   UNL     1     -12.238  13.231  66.609  1.00  0.00    -0.298 C  
BRANCH  13  14
HETATM   14  C   UNL     1     -11.668  13.815  67.902  1.00  0.00    -0.395 C  
BRANCH  14  15
HETATM   15  C   UNL     1     -10.892  12.787  68.730  1.00  0.00    -0.270 C  
BRANCH  15  16
HETATM   16  C   UNL     1     -11.712  12.423  69.942  1.00  0.00    -0.339 A  
HETATM   17  C   UNL     1     -13.477  11.762  72.008  1.00  0.00    -0.319 A  
HETATM   18  C   UNL     1     -13.153  13.099  71.767  1.00  0.00    -0.478 A  
HETATM   19  C   UNL     1     -12.025  11.082  70.202  1.00  0.00    -0.443 A  
HETATM   20  C   UNL     1     -12.908  10.757  71.232  1.00  0.00    -0.540 A  
HETATM   21  C   UNL     1     -12.270  13.428  70.742  1.00  0.00    -0.409 A  
ENDBRANCH  15  16
ENDBRANCH  14  15
ENDBRANCH  13  14
ENDBRANCH   3  13
ENDBRANCH   2   3
TORSDOF 9
ENDMDL
MODEL      115
REMARK 921   NORMALIZED FREE ENERGY PREDICTED BY IDOCK:   -4.52 KCAL/MOL
REMARK 922        TOTAL FREE ENERGY PREDICTED BY IDOCK:   -8.42 KCAL/MOL
REMARK 923 INTER-LIGAND FREE ENERGY PREDICTED BY IDOCK:   -6.88 KCAL/MOL
REMARK 924 INTRA-LIGAND FREE ENERGY PREDICTED BY IDOCK:   -1.54 KCAL/MOL
REMARK 927      BINDING AFFINITY PREDICTED BY RF-SCORE:    0.00 PKD
ROOT
HETATM    1  C   UNL     1     -10.352   5.273  67.320  1.00  0.00    -0.254 C  
HETATM    2  C   UNL     1      -9.166   6.223  67.450  1.00  0.00    -0.116 C  
ENDROOT
BRANCH   2   3
HETATM    3  N   UNL     1      -9.426   7.487  68.176  1.00  0.00    -0.143 NA 
BRANCH   3   4
HETATM    4  C   UNL     1      -8.737   7.526  69.480  1.00  0.00    -0.137 C  
BRANCH   4   5
HETATM    5  C   UNL     1      -9.619   7.856  70.700  1.00  0.00    -0.167 C  
BRANCH   5   6
HETATM    6  C   UNL     1     -11.119   7.909  70.392  1.00  0.00    -0.249 C  
BRANCH   6   7
HETATM    7  C   UNL     1     -11.669   9.298  70.640  1.00  0.00    -0.276 A  
HETATM    8  C   UNL     1     -11.269  10.375  69.836  1.00  0.00    -0.371 A  
HETATM    9  C   UNL     1     -11.824  11.643  70.026  1.00  0.00    -0.435 A  
HETATM   10  C   UNL     1     -12.629   9.517  71.639  1.00  0.00    -0.476 A  
HETATM   11  C   UNL     1     -12.782  11.847  71.017  1.00  0.00    -0.354 A  
HETATM   12  C   UNL     1     -13.183  10.784  71.827  1.00  0.00    -0.523 A  
ENDBRANCH   6   7
ENDBRANCH   5   6
ENDBRANCH   4   5
ENDBRANCH   3   4
BRANCH   3  13
HETATM   13  C   UNL     1      -9.036   8.641  67.338  1.00  0.00    -0.133 C  
BRANCH  13  14
HETATM   14  C   UNL     1     -10.175   9.281  66.543  1.00  0.00    -0.316 C  
BRANCH  14  15
HETATM   15  C   UNL     1      -9.684  10.070  65.326  1.00  0.00    -0.373 C  
BRANCH  15  16
HETATM   16  C   UNL     1     -10.475  11.351  65.230  1.00  0.00    -0.340 A  
HETATM   17  C   UNL     1     -12.181  13.553  64.988  1.00  0.00    -0.453 A  
HETATM   18  C   UNL     1     -11.479  13.088  63.874  1.00  0.00    -0.490 A  
HETATM   19  C   UNL     1     -11.167  11.834  66.348  1.00  0.00    -0.382 A  
HETATM   20  C   UNL     1     -12.020  12.932  66.222  1.00  0.00    -0.472 A  
HETATM   21  C   UNL     1     -10.624  11.996  63.996  1.00  0.00    -0.423 A  
ENDBRANCH  15  16
ENDBRANCH  14  15
ENDBRANCH  13  14
ENDBRANCH   3  13
ENDBRANCH   2   3
TORSDOF 9
ENDMDL
MODEL      116
REMARK 921   NORMALIZED FREE ENERGY PREDICTED BY IDOCK:   -4.51 KCAL/MOL
REMARK 922        TOTAL FREE ENERGY PREDICTED BY IDOCK:   -8.40 KCAL/MOL
REMARK 923 INTER-LIGAND FREE ENERGY PREDICTED BY IDOCK:   -6.30 KCAL/MOL
REMARK 924 INTRA-LIGAND FREE ENERGY PREDICTED BY IDOCK:   -2.10 KCAL/MOL
REMARK 927      BINDING AFFINITY PREDICTED BY RF-SCORE:    0.00 PKD
ROOT
HETATM    1  C   UNL     1     -10.523   5.486  67.049  1.00  0.00    -0.336 C  
HETATM    2  C   UNL     1      -9.590   6.478  66.363  1.00  0.00    -0.104 C  
ENDROOT
BRANCH   2   3
HETATM    3  N   UNL     1      -9.554   7.840  66.943  1.00  0.00    -0.183 NA 
BRANCH   3   4
HETATM    4  C   UNL     1      -8.621   7.929  68.084  1.00  0.00    -0.123 C  
BRANCH   4   5
HETATM    5  C   UNL     1      -9.125   8.719  69.307  1.00  0.00    -0.145 C  
BRANCH   5   6
HETATM    6  C   UNL     1     -10.420   8.173  69.915  1.00  0.00    -0.226 C  
BRANCH   6   7
HETATM    7  C   UNL     1     -11.319   9.305  70.367  1.00  0.00    -0.283 A  
HETATM    8  C   UNL     1     -12.197   9.130  71.447  1.00  0.00    -0.407 A  
HETATM    9  C   UNL     1     -12.979  10.194  71.902  1.00  0.00    -0.549 A  
HETATM   10  C   UNL     1     -11.245  10.563  69.751  1.00  0.00    -0.361 A  
HETATM   11  C   UNL     1     -12.892  11.441  71.285  1.00  0.00    -0.481 A  
HETATM   12  C   UNL     1     -12.027  11.625  70.207  1.00  0.00    -0.445 A  
ENDBRANCH   6   7
ENDBRANCH   5   6
ENDBRANCH   4   5
ENDBRANCH   3   4
BRANCH   3  13
HETATM   13  C   UNL     1      -9.205   8.826  65.898  1.00  0.00    -0.220 C  
BRANCH  13  14
HETATM   14  C   UNL     1     -10.014  10.123  65.934  1.00  0.00    -0.334 C  
BRANCH  14  15
HETATM   15  C   UNL     1      -9.192  11.327  66.404  1.00  0.00    -0.206 C  
BRANCH  15  16
HETATM   16  C   UNL     1     -10.135  12.377  66.934  1.00  0.00    -0.230 A  
HETATM   17  C   UNL     1     -11.795  14.498  67.686  1.00  0.00    -0.395 A  
HETATM   18  C   UNL     1     -10.495  14.417  68.191  1.00  0.00    -0.237 A  
HETATM   19  C   UNL     1     -11.447  12.455  66.448  1.00  0.00    -0.427 A  
HETATM   20  C   UNL     1     -12.270  13.516  66.823  1.00  0.00    -0.392 A  
HETATM   21  C   UNL     1      -9.671  13.357  67.821  1.00  0.00    -0.216 A  
ENDBRANCH  15  16
ENDBRANCH  14  15
ENDBRANCH  13  14
ENDBRANCH   3  13
ENDBRANCH   2   3
TORSDOF 9
ENDMDL
MODEL      117
REMARK 921   NORMALIZED FREE ENERGY PREDICTED BY IDOCK:   -4.51 KCAL/MOL
REMARK 922        TOTAL FREE ENERGY PREDICTED BY IDOCK:   -8.40 KCAL/MOL
REMARK 923 INTER-LIGAND FREE ENERGY PREDICTED BY IDOCK:   -6.46 KCAL/MOL
REMARK 924 INTRA-LIGAND FREE ENERGY PREDICTED BY IDOCK:   -1.94 KCAL/MOL
REMARK 927      BINDING AFFINITY PREDICTED BY RF-SCORE:    0.00 PKD
ROOT
HETATM    1  C   UNL     1      -9.323  18.122  68.552  1.00  0.00    -0.321 C  
HETATM    2  C   UNL     1     -10.368  17.074  68.184  1.00  0.00    -0.347 C  
ENDROOT
BRANCH   2   3
HETATM    3  N   UNL     1     -10.419  15.878  69.056  1.00  0.00    -0.220 NA 
BRANCH   3   4
HETATM    4  C   UNL     1     -11.689  15.142  68.909  1.00  0.00    -0.333 C  
BRANCH   4   5
HETATM    5  C   UNL     1     -11.728  13.733  69.533  1.00  0.00    -0.380 C  
BRANCH   5   6
HETATM    6  C   UNL     1     -12.203  12.636  68.574  1.00  0.00     0.040 C  
BRANCH   6   7
HETATM    7  C   UNL     1     -11.699  11.279  69.020  1.00  0.00    -0.410 A  
HETATM    8  C   UNL     1     -11.091  10.410  68.103  1.00  0.00    -0.344 A  
HETATM    9  C   UNL     1     -10.570   9.186  68.529  1.00  0.00    -0.209 A  
HETATM   10  C   UNL     1     -11.780  10.897  70.367  1.00  0.00    -0.444 A  
HETATM   11  C   UNL     1     -10.651   8.819  69.871  1.00  0.00    -0.230 A  
HETATM   12  C   UNL     1     -11.259   9.673  70.790  1.00  0.00    -0.403 A  
ENDBRANCH   6   7
ENDBRANCH   5   6
ENDBRANCH   4   5
ENDBRANCH   3   4
BRANCH   3  13
HETATM   13  C   UNL     1      -9.263  14.999  68.777  1.00  0.00    -0.200 C  
BRANCH  13  14
HETATM   14  C   UNL     1      -8.915  14.835  67.297  1.00  0.00    -0.210 C  
BRANCH  14  15
HETATM   15  C   UNL     1      -9.149  13.411  66.783  1.00  0.00    -0.221 C  
BRANCH  15  16
HETATM   16  C   UNL     1     -10.228  13.450  65.730  1.00  0.00    -0.300 A  
HETATM   17  C   UNL     1     -12.427  13.500  64.004  1.00  0.00    -0.294 A  
HETATM   18  C   UNL     1     -11.830  12.283  64.338  1.00  0.00    -0.464 A  
HETATM   19  C   UNL     1     -10.819  14.670  65.374  1.00  0.00    -0.365 A  
HETATM   20  C   UNL     1     -11.918  14.689  64.515  1.00  0.00    -0.473 A  
HETATM   21  C   UNL     1     -10.731  12.258  65.193  1.00  0.00    -0.330 A  
ENDBRANCH  15  16
ENDBRANCH  14  15
ENDBRANCH  13  14
ENDBRANCH   3  13
ENDBRANCH   2   3
TORSDOF 9
ENDMDL
MODEL      118
REMARK 921   NORMALIZED FREE ENERGY PREDICTED BY IDOCK:   -4.50 KCAL/MOL
REMARK 922        TOTAL FREE ENERGY PREDICTED BY IDOCK:   -8.39 KCAL/MOL
REMARK 923 INTER-LIGAND FREE ENERGY PREDICTED BY IDOCK:   -6.70 KCAL/MOL
REMARK 924 INTRA-LIGAND FREE ENERGY PREDICTED BY IDOCK:   -1.69 KCAL/MOL
REMARK 927      BINDING AFFINITY PREDICTED BY RF-SCORE:    0.00 PKD
ROOT
HETATM    1  C   UNL     1      -5.705  10.996  66.541  1.00  0.00    -0.119 C  
HETATM    2  C   UNL     1      -7.067  10.500  67.014  1.00  0.00    -0.094 C  
ENDROOT
BRANCH   2   3
HETATM    3  N   UNL     1      -8.243  11.163  66.405  1.00  0.00    -0.166 NA 
BRANCH   3   4
HETATM    4  C   UNL     1      -8.978  10.259  65.499  1.00  0.00    -0.173 C  
BRANCH   4   5
HETATM    5  C   UNL     1      -9.224  10.786  64.072  1.00  0.00    -0.252 C  
BRANCH   5   6
HETATM    6  C   UNL     1     -10.693  11.090  63.760  1.00  0.00    -0.294 C  
BRANCH   6   7
HETATM    7  C   UNL     1     -11.123  12.385  64.416  1.00  0.00    -0.381 A  
HETATM    8  C   UNL     1     -12.388  12.496  65.010  1.00  0.00    -0.522 A  
HETATM    9  C   UNL     1     -12.759  13.670  65.670  1.00  0.00    -0.505 A  
HETATM   10  C   UNL     1     -10.241  13.473  64.491  1.00  0.00    -0.296 A  
HETATM   11  C   UNL     1     -11.872  14.743  65.743  1.00  0.00    -0.202 A  
HETATM   12  C   UNL     1     -10.613  14.646  65.151  1.00  0.00    -0.441 A  
ENDBRANCH   6   7
ENDBRANCH   5   6
ENDBRANCH   4   5
ENDBRANCH   3   4
BRANCH   3  13
HETATM   13  C   UNL     1      -9.132  11.689  67.463  1.00  0.00    -0.172 C  
BRANCH  13  14
HETATM   14  C   UNL     1     -10.015  10.645  68.147  1.00  0.00    -0.176 C  
BRANCH  14  15
HETATM   15  C   UNL     1     -11.507  10.984  68.072  1.00  0.00    -0.365 C  
BRANCH  15  16
HETATM   16  C   UNL     1     -11.936  11.571  69.393  1.00  0.00    -0.392 A  
HETATM   17  C   UNL     1     -13.008  12.680  71.725  1.00  0.00    -0.417 A  
HETATM   18  C   UNL     1     -12.462  13.511  70.744  1.00  0.00    -0.428 A  
HETATM   19  C   UNL     1     -12.467  10.742  70.391  1.00  0.00    -0.430 A  
HETATM   20  C   UNL     1     -13.004  11.300  71.551  1.00  0.00    -0.520 A  
HETATM   21  C   UNL     1     -11.922  12.958  69.586  1.00  0.00    -0.358 A  
ENDBRANCH  15  16
ENDBRANCH  14  15
ENDBRANCH  13  14
ENDBRANCH   3  13
ENDBRANCH   2   3
TORSDOF 9
ENDMDL
MODEL      119
REMARK 921   NORMALIZED FREE ENERGY PREDICTED BY IDOCK:   -4.50 KCAL/MOL
REMARK 922        TOTAL FREE ENERGY PREDICTED BY IDOCK:   -8.38 KCAL/MOL
REMARK 923 INTER-LIGAND FREE ENERGY PREDICTED BY IDOCK:   -7.10 KCAL/MOL
REMARK 924 INTRA-LIGAND FREE ENERGY PREDICTED BY IDOCK:   -1.28 KCAL/MOL
REMARK 927      BINDING AFFINITY PREDICTED BY RF-SCORE:    0.00 PKD
ROOT
HETATM    1  C   UNL     1      -8.756   8.436  72.075  1.00  0.00    -0.267 C  
HETATM    2  C   UNL     1      -9.023   8.778  70.613  1.00  0.00    -0.186 C  
ENDROOT
BRANCH   2   3
HETATM    3  N   UNL     1     -10.110   9.753  70.366  1.00  0.00    -0.270 NA 
BRANCH   3   4
HETATM    4  C   UNL     1     -10.675   9.617  69.009  1.00  0.00    -0.211 C  
BRANCH   4   5
HETATM    5  C   UNL     1     -10.977  10.935  68.269  1.00  0.00    -0.293 C  
BRANCH   5   6
HETATM    6  C   UNL     1      -9.965  11.285  67.174  1.00  0.00    -0.219 C  
BRANCH   6   7
HETATM    7  C   UNL     1     -10.673  11.664  65.890  1.00  0.00    -0.328 A  
HETATM    8  C   UNL     1     -10.160  11.263  64.648  1.00  0.00    -0.343 A  
HETATM    9  C   UNL     1     -10.848  11.559  63.470  1.00  0.00    -0.473 A  
HETATM   10  C   UNL     1     -11.885  12.370  65.927  1.00  0.00    -0.467 A  
HETATM   11  C   UNL     1     -12.054  12.257  63.519  1.00  0.00    -0.649 A  
HETATM   12  C   UNL     1     -12.571  12.665  64.748  1.00  0.00    -0.530 A  
ENDBRANCH   6   7
ENDBRANCH   5   6
ENDBRANCH   4   5
ENDBRANCH   3   4
BRANCH   3  13
HETATM   13  C   UNL     1     -11.163   9.608  71.393  1.00  0.00    -0.356 C  
BRANCH  13  14
HETATM   14  C   UNL     1     -12.442   8.917  70.919  1.00  0.00    -0.083 C  
BRANCH  14  15
HETATM   15  C   UNL     1     -12.826   7.712  71.784  1.00  0.00    -0.357 C  
BRANCH  15  16
HETATM   16  C   UNL     1     -11.888   6.574  71.470  1.00  0.00    -0.386 A  
HETATM   17  C   UNL     1      -9.924   4.666  70.903  1.00  0.00    -0.273 A  
HETATM   18  C   UNL     1     -10.552   5.353  69.862  1.00  0.00    -0.351 A  
HETATM   19  C   UNL     1     -11.269   5.867  72.510  1.00  0.00    -0.341 A  
HETATM   20  C   UNL     1     -10.287   4.918  72.222  1.00  0.00    -0.267 A  
HETATM   21  C   UNL     1     -11.534   6.299  70.144  1.00  0.00    -0.452 A  
ENDBRANCH  15  16
ENDBRANCH  14  15
ENDBRANCH  13  14
ENDBRANCH   3  13
ENDBRANCH   2   3
TORSDOF 9
ENDMDL
MODEL      120
REMARK 921   NORMALIZED FREE ENERGY PREDICTED BY IDOCK:   -4.50 KCAL/MOL
REMARK 922        TOTAL FREE ENERGY PREDICTED BY IDOCK:   -8.38 KCAL/MOL
REMARK 923 INTER-LIGAND FREE ENERGY PREDICTED BY IDOCK:   -7.49 KCAL/MOL
REMARK 924 INTRA-LIGAND FREE ENERGY PREDICTED BY IDOCK:   -0.90 KCAL/MOL
REMARK 927      BINDING AFFINITY PREDICTED BY RF-SCORE:    0.00 PKD
ROOT
HETATM    1  C   UNL     1      -8.666   8.262  67.284  1.00  0.00    -0.126 C  
HETATM    2  C   UNL     1      -9.889   8.936  66.673  1.00  0.00    -0.262 C  
ENDROOT
BRANCH   2   3
HETATM    3  N   UNL     1     -10.882   9.468  67.634  1.00  0.00    -0.251 NA 
BRANCH   3   4
HETATM    4  C   UNL     1     -10.543   9.118  69.027  1.00  0.00    -0.199 C  
BRANCH   4   5
HETATM    5  C   UNL     1     -10.689  10.252  70.062  1.00  0.00    -0.345 C  
BRANCH   5   6
HETATM    6  C   UNL     1     -12.087  10.358  70.680  1.00  0.00    -0.443 C  
BRANCH   6   7
HETATM    7  C   UNL     1     -12.431  11.801  70.982  1.00  0.00    -0.411 A  
HETATM    8  C   UNL     1     -11.966  12.832  70.154  1.00  0.00    -0.371 A  
HETATM    9  C   UNL     1     -12.336  14.157  70.397  1.00  0.00    -0.428 A  
HETATM   10  C   UNL     1     -13.269  12.124  72.060  1.00  0.00    -0.496 A  
HETATM   11  C   UNL     1     -13.174  14.464  71.468  1.00  0.00    -0.419 A  
HETATM   12  C   UNL     1     -13.638  13.448  72.302  1.00  0.00    -0.703 A  
ENDBRANCH   6   7
ENDBRANCH   5   6
ENDBRANCH   4   5
ENDBRANCH   3   4
BRANCH   3  13
HETATM   13  C   UNL     1     -11.009  10.932  67.472  1.00  0.00    -0.293 C  
BRANCH  13  14
HETATM   14  C   UNL     1     -10.666  11.464  66.080  1.00  0.00    -0.320 C  
BRANCH  14  15
HETATM   15  C   UNL     1     -11.799  12.288  65.460  1.00  0.00    -0.420 C  
BRANCH  15  16
HETATM   16  C   UNL     1     -11.462  13.751  65.596  1.00  0.00    -0.318 A  
HETATM   17  C   UNL     1     -10.569  16.398  65.722  1.00  0.00    -0.327 A  
HETATM   18  C   UNL     1     -10.350  15.535  66.798  1.00  0.00    -0.288 A  
HETATM   19  C   UNL     1     -11.696  14.628  64.527  1.00  0.00    -0.410 A  
HETATM   20  C   UNL     1     -11.246  15.947  64.594  1.00  0.00    -0.361 A  
HETATM   21  C   UNL     1     -10.800  14.219  66.738  1.00  0.00    -0.298 A  
ENDBRANCH  15  16
ENDBRANCH  14  15
ENDBRANCH  13  14
ENDBRANCH   3  13
ENDBRANCH   2   3
TORSDOF 9
ENDMDL
MODEL      121
REMARK 921   NORMALIZED FREE ENERGY PREDICTED BY IDOCK:   -4.49 KCAL/MOL
REMARK 922        TOTAL FREE ENERGY PREDICTED BY IDOCK:   -8.37 KCAL/MOL
REMARK 923 INTER-LIGAND FREE ENERGY PREDICTED BY IDOCK:   -6.60 KCAL/MOL
REMARK 924 INTRA-LIGAND FREE ENERGY PREDICTED BY IDOCK:   -1.76 KCAL/MOL
REMARK 927      BINDING AFFINITY PREDICTED BY RF-SCORE:    0.00 PKD
ROOT
HETATM    1  C   UNL     1     -10.243  12.242  63.774  1.00  0.00    -0.427 C  
HETATM    2  C   UNL     1     -10.600  10.978  64.550  1.00  0.00    -0.313 C  
ENDROOT
BRANCH   2   3
HETATM    3  N   UNL     1     -10.095  10.909  65.940  1.00  0.00    -0.243 NA 
BRANCH   3   4
HETATM    4  C   UNL     1     -10.329  12.167  66.675  1.00  0.00    -0.208 C  
BRANCH   4   5
HETATM    5  C   UNL     1     -11.647  12.250  67.469  1.00  0.00    -0.422 C  
BRANCH   5   6
HETATM    6  C   UNL     1     -11.477  12.711  68.920  1.00  0.00    -0.354 C  
BRANCH   6   7
HETATM    7  C   UNL     1     -11.705  11.560  69.878  1.00  0.00    -0.420 A  
HETATM    8  C   UNL     1     -10.773  10.516  69.972  1.00  0.00    -0.282 A  
HETATM    9  C   UNL     1     -10.953   9.489  70.901  1.00  0.00    -0.407 A  
HETATM   10  C   UNL     1     -12.821  11.550  70.728  1.00  0.00    -0.222 A  
HETATM   11  C   UNL     1     -12.063   9.493  71.744  1.00  0.00    -0.459 A  
HETATM   12  C   UNL     1     -12.999  10.523  71.656  1.00  0.00    -0.581 A  
ENDBRANCH   6   7
ENDBRANCH   5   6
ENDBRANCH   4   5
ENDBRANCH   3   4
BRANCH   3  13
HETATM   13  C   UNL     1     -10.709   9.764  66.645  1.00  0.00    -0.036 C  
BRANCH  13  14
HETATM   14  C   UNL     1      -9.942   8.445  66.532  1.00  0.00    -0.335 C  
BRANCH  14  15
HETATM   15  C   UNL     1     -10.759   7.238  67.004  1.00  0.00    -0.406 C  
BRANCH  15  16
HETATM   16  C   UNL     1     -10.367   6.915  68.424  1.00  0.00    -0.213 A  
HETATM   17  C   UNL     1      -9.538   6.051  70.950  1.00  0.00    -0.196 A  
HETATM   18  C   UNL     1     -10.839   5.790  70.516  1.00  0.00    -0.348 A  
HETATM   19  C   UNL     1      -9.069   7.191  68.874  1.00  0.00    -0.131 A  
HETATM   20  C   UNL     1      -8.659   6.756  70.135  1.00  0.00    -0.140 A  
HETATM   21  C   UNL     1     -11.254   6.225  69.259  1.00  0.00    -0.458 A  
ENDBRANCH  15  16
ENDBRANCH  14  15
ENDBRANCH  13  14
ENDBRANCH   3  13
ENDBRANCH   2   3
TORSDOF 9
ENDMDL
MODEL      122
REMARK 921   NORMALIZED FREE ENERGY PREDICTED BY IDOCK:   -4.49 KCAL/MOL
REMARK 922        TOTAL FREE ENERGY PREDICTED BY IDOCK:   -8.36 KCAL/MOL
REMARK 923 INTER-LIGAND FREE ENERGY PREDICTED BY IDOCK:   -7.10 KCAL/MOL
REMARK 924 INTRA-LIGAND FREE ENERGY PREDICTED BY IDOCK:   -1.26 KCAL/MOL
REMARK 927      BINDING AFFINITY PREDICTED BY RF-SCORE:    0.00 PKD
ROOT
HETATM    1  C   UNL     1     -10.148  19.376  66.626  1.00  0.00    -0.503 C  
HETATM    2  C   UNL     1     -10.814  18.495  67.677  1.00  0.00    -0.275 C  
ENDROOT
BRANCH   2   3
HETATM    3  N   UNL     1     -10.243  17.138  67.838  1.00  0.00    -0.314 NA 
BRANCH   3   4
HETATM    4  C   UNL     1      -9.348  17.051  69.009  1.00  0.00    -0.167 C  
BRANCH   4   5
HETATM    5  C   UNL     1      -7.897  16.621  68.718  1.00  0.00    -0.238 C  
BRANCH   5   6
HETATM    6  C   UNL     1      -6.845  17.670  69.095  1.00  0.00    -0.229 C  
BRANCH   6   7
HETATM    7  C   UNL     1      -6.712  18.711  68.003  1.00  0.00    -0.230 A  
HETATM    8  C   UNL     1      -6.560  18.324  66.664  1.00  0.00    -0.224 A  
HETATM    9  C   UNL     1      -6.501  19.285  65.652  1.00  0.00    -0.274 A  
HETATM   10  C   UNL     1      -6.796  20.078  68.308  1.00  0.00    -0.337 A  
HETATM   11  C   UNL     1      -6.591  20.639  65.967  1.00  0.00    -0.263 A  
HETATM   12  C   UNL     1      -6.736  21.037  67.296  1.00  0.00    -0.430 A  
ENDBRANCH   6   7
ENDBRANCH   5   6
ENDBRANCH   4   5
ENDBRANCH   3   4
BRANCH   3  13
HETATM   13  C   UNL     1     -11.330  16.139  67.929  1.00  0.00    -0.182 C  
BRANCH  13  14
HETATM   14  C   UNL     1     -10.938  14.715  67.535  1.00  0.00    -0.301 C  
BRANCH  14  15
HETATM   15  C   UNL     1     -12.148  13.799  67.324  1.00  0.00    -0.393 C  
BRANCH  15  16
HETATM   16  C   UNL     1     -11.950  13.024  66.046  1.00  0.00    -0.498 A  
HETATM   17  C   UNL     1     -11.329  11.747  63.638  1.00  0.00    -0.525 A  
HETATM   18  C   UNL     1     -12.128  12.892  63.634  1.00  0.00    -0.611 A  
HETATM   19  C   UNL     1     -11.165  11.863  66.044  1.00  0.00    -0.377 A  
HETATM   20  C   UNL     1     -10.856  11.231  64.839  1.00  0.00    -0.299 A  
HETATM   21  C   UNL     1     -12.442  13.525  64.835  1.00  0.00    -0.429 A  
ENDBRANCH  15  16
ENDBRANCH  14  15
ENDBRANCH  13  14
ENDBRANCH   3  13
ENDBRANCH   2   3
TORSDOF 9
ENDMDL
MODEL      123
REMARK 921   NORMALIZED FREE ENERGY PREDICTED BY IDOCK:   -4.48 KCAL/MOL
REMARK 922        TOTAL FREE ENERGY PREDICTED BY IDOCK:   -8.35 KCAL/MOL
REMARK 923 INTER-LIGAND FREE ENERGY PREDICTED BY IDOCK:   -7.38 KCAL/MOL
REMARK 924 INTRA-LIGAND FREE ENERGY PREDICTED BY IDOCK:   -0.98 KCAL/MOL
REMARK 927      BINDING AFFINITY PREDICTED BY RF-SCORE:    0.00 PKD
ROOT
HETATM    1  C   UNL     1     -11.178  15.983  64.564  1.00  0.00    -0.309 C  
HETATM    2  C   UNL     1     -10.410  16.381  65.820  1.00  0.00    -0.369 C  
ENDROOT
BRANCH   2   3
HETATM    3  N   UNL     1     -10.843  15.728  67.076  1.00  0.00    -0.305 NA 
BRANCH   3   4
HETATM    4  C   UNL     1      -9.974  14.590  67.435  1.00  0.00    -0.227 C  
BRANCH   4   5
HETATM    5  C   UNL     1     -10.648  13.448  68.221  1.00  0.00    -0.264 C  
BRANCH   5   6
HETATM    6  C   UNL     1     -11.879  12.854  67.530  1.00  0.00    -0.407 C  
BRANCH   6   7
HETATM    7  C   UNL     1     -11.575  12.522  66.084  1.00  0.00    -0.448 A  
HETATM    8  C   UNL     1     -10.381  11.873  65.739  1.00  0.00    -0.285 A  
HETATM    9  C   UNL     1     -10.130  11.512  64.413  1.00  0.00    -0.328 A  
HETATM   10  C   UNL     1     -12.508  12.806  65.076  1.00  0.00    -0.572 A  
HETATM   11  C   UNL     1     -11.068  11.794  63.421  1.00  0.00    -0.448 A  
HETATM   12  C   UNL     1     -12.256  12.444  63.752  1.00  0.00    -0.626 A  
ENDBRANCH   6   7
ENDBRANCH   5   6
ENDBRANCH   4   5
ENDBRANCH   3   4
BRANCH   3  13
HETATM   13  C   UNL     1     -10.892  16.721  68.171  1.00  0.00    -0.353 C  
BRANCH  13  14
HETATM   14  C   UNL     1     -10.867  18.183  67.724  1.00  0.00    -0.250 C  
BRANCH  14  15
HETATM   15  C   UNL     1      -9.810  19.014  68.459  1.00  0.00    -0.473 C  
BRANCH  15  16
HETATM   16  C   UNL     1      -8.577  19.100  67.594  1.00  0.00    -0.327 A  
HETATM   17  C   UNL     1      -6.422  19.051  65.814  1.00  0.00    -0.280 A  
HETATM   18  C   UNL     1      -6.432  18.199  66.921  1.00  0.00    -0.205 A  
HETATM   19  C   UNL     1      -8.551  19.966  66.493  1.00  0.00    -0.390 A  
HETATM   20  C   UNL     1      -7.474  19.936  65.606  1.00  0.00    -0.285 A  
HETATM   21  C   UNL     1      -7.503  18.228  67.811  1.00  0.00    -0.224 A  
ENDBRANCH  15  16
ENDBRANCH  14  15
ENDBRANCH  13  14
ENDBRANCH   3  13
ENDBRANCH   2   3
TORSDOF 9
ENDMDL
MODEL      124
REMARK 921   NORMALIZED FREE ENERGY PREDICTED BY IDOCK:   -4.47 KCAL/MOL
REMARK 922        TOTAL FREE ENERGY PREDICTED BY IDOCK:   -8.34 KCAL/MOL
REMARK 923 INTER-LIGAND FREE ENERGY PREDICTED BY IDOCK:   -7.56 KCAL/MOL
REMARK 924 INTRA-LIGAND FREE ENERGY PREDICTED BY IDOCK:   -0.78 KCAL/MOL
REMARK 927      BINDING AFFINITY PREDICTED BY RF-SCORE:    0.00 PKD
ROOT
HETATM    1  C   UNL     1     -14.372   7.524  71.620  1.00  0.00    -0.621 C  
HETATM    2  C   UNL     1     -12.875   7.232  71.631  1.00  0.00    -0.375 C  
ENDROOT
BRANCH   2   3
HETATM    3  N   UNL     1     -12.030   8.158  70.842  1.00  0.00    -0.237 NA 
BRANCH   3   4
HETATM    4  C   UNL     1     -11.590   9.318  71.640  1.00  0.00    -0.393 C  
BRANCH   4   5
HETATM    5  C   UNL     1     -11.941  10.705  71.065  1.00  0.00    -0.442 C  
BRANCH   5   6
HETATM    6  C   UNL     1     -13.158  11.365  71.721  1.00  0.00    -0.523 C  
BRANCH   6   7
HETATM    7  C   UNL     1     -13.132  12.865  71.513  1.00  0.00    -0.390 A  
HETATM    8  C   UNL     1     -14.067  13.689  72.155  1.00  0.00    -0.553 A  
HETATM    9  C   UNL     1     -14.002  15.077  72.012  1.00  0.00    -0.605 A  
HETATM   10  C   UNL     1     -12.137  13.457  70.722  1.00  0.00    -0.333 A  
HETATM   11  C   UNL     1     -13.005  15.654  71.229  1.00  0.00    -0.556 A  
HETATM   12  C   UNL     1     -12.073  14.844  70.581  1.00  0.00    -0.366 A  
ENDBRANCH   6   7
ENDBRANCH   5   6
ENDBRANCH   4   5
ENDBRANCH   3   4
BRANCH   3  13
HETATM   13  C   UNL     1     -10.870   7.431  70.282  1.00  0.00    -0.245 C  
BRANCH  13  14
HETATM   14  C   UNL     1     -10.219   8.088  69.064  1.00  0.00    -0.217 C  
BRANCH  14  15
HETATM   15  C   UNL     1      -9.960   7.102  67.921  1.00  0.00    -0.186 C  
BRANCH  15  16
HETATM   16  C   UNL     1      -9.600   7.882  66.682  1.00  0.00    -0.293 A  
HETATM   17  C   UNL     1      -8.722   9.470  64.554  1.00  0.00    -0.232 A  
HETATM   18  C   UNL     1      -9.767   9.911  65.369  1.00  0.00    -0.375 A  
HETATM   19  C   UNL     1      -8.565   7.437  65.848  1.00  0.00    -0.165 A  
HETATM   20  C   UNL     1      -8.128   8.234  64.789  1.00  0.00    -0.151 A  
HETATM   21  C   UNL     1     -10.208   9.117  66.425  1.00  0.00    -0.300 A  
ENDBRANCH  15  16
ENDBRANCH  14  15
ENDBRANCH  13  14
ENDBRANCH   3  13
ENDBRANCH   2   3
TORSDOF 9
ENDMDL
MODEL      125
REMARK 921   NORMALIZED FREE ENERGY PREDICTED BY IDOCK:   -4.47 KCAL/MOL
REMARK 922        TOTAL FREE ENERGY PREDICTED BY IDOCK:   -8.34 KCAL/MOL
REMARK 923 INTER-LIGAND FREE ENERGY PREDICTED BY IDOCK:   -6.84 KCAL/MOL
REMARK 924 INTRA-LIGAND FREE ENERGY PREDICTED BY IDOCK:   -1.49 KCAL/MOL
REMARK 927      BINDING AFFINITY PREDICTED BY RF-SCORE:    0.00 PKD
ROOT
HETATM    1  C   UNL     1      -7.900  12.712  67.467  1.00  0.00    -0.175 C  
HETATM    2  C   UNL     1      -8.225  13.573  68.683  1.00  0.00    -0.040 C  
ENDROOT
BRANCH   2   3
HETATM    3  N   UNL     1      -8.451  15.011  68.414  1.00  0.00    -0.147 NA 
BRANCH   3   4
HETATM    4  C   UNL     1      -9.880  15.370  68.495  1.00  0.00    -0.207 C  
BRANCH   4   5
HETATM    5  C   UNL     1     -10.635  15.443  67.153  1.00  0.00    -0.305 C  
BRANCH   5   6
HETATM    6  C   UNL     1     -11.788  14.441  67.028  1.00  0.00    -0.437 C  
BRANCH   6   7
HETATM    7  C   UNL     1     -11.606  13.564  65.807  1.00  0.00    -0.351 A  
HETATM    8  C   UNL     1     -12.703  12.904  65.235  1.00  0.00    -0.389 A  
HETATM    9  C   UNL     1     -12.545  12.147  64.072  1.00  0.00    -0.507 A  
HETATM   10  C   UNL     1     -10.349  13.446  65.195  1.00  0.00    -0.349 A  
HETATM   11  C   UNL     1     -11.292  12.042  63.470  1.00  0.00    -0.528 A  
HETATM   12  C   UNL     1     -10.193  12.689  64.033  1.00  0.00    -0.363 A  
ENDBRANCH   6   7
ENDBRANCH   5   6
ENDBRANCH   4   5
ENDBRANCH   3   4
BRANCH   3  13
HETATM   13  C   UNL     1      -7.646  15.832  69.344  1.00  0.00    -0.214 C  
BRANCH  13  14
HETATM   14  C   UNL     1      -6.735  16.864  68.679  1.00  0.00    -0.178 C  
BRANCH  14  15
HETATM   15  C   UNL     1      -7.114  18.307  69.024  1.00  0.00    -0.249 C  
BRANCH  15  16
HETATM   16  C   UNL     1      -8.336  18.689  68.228  1.00  0.00    -0.350 A  
HETATM   17  C   UNL     1     -10.479  19.673  66.725  1.00  0.00    -0.605 A  
HETATM   18  C   UNL     1     -10.509  19.753  68.119  1.00  0.00    -0.494 A  
HETATM   19  C   UNL     1      -8.321  18.594  66.830  1.00  0.00    -0.287 A  
HETATM   20  C   UNL     1      -9.391  19.089  66.084  1.00  0.00    -0.232 A  
HETATM   21  C   UNL     1      -9.444  19.257  68.868  1.00  0.00    -0.437 A  
ENDBRANCH  15  16
ENDBRANCH  14  15
ENDBRANCH  13  14
ENDBRANCH   3  13
ENDBRANCH   2   3
TORSDOF 9
ENDMDL
MODEL      126
REMARK 921   NORMALIZED FREE ENERGY PREDICTED BY IDOCK:   -4.46 KCAL/MOL
REMARK 922        TOTAL FREE ENERGY PREDICTED BY IDOCK:   -8.32 KCAL/MOL
REMARK 923 INTER-LIGAND FREE ENERGY PREDICTED BY IDOCK:   -7.46 KCAL/MOL
REMARK 924 INTRA-LIGAND FREE ENERGY PREDICTED BY IDOCK:   -0.85 KCAL/MOL
REMARK 927      BINDING AFFINITY PREDICTED BY RF-SCORE:    0.00 PKD
ROOT
HETATM    1  C   UNL     1      -8.041  12.733  68.000  1.00  0.00    -0.162 C  
HETATM    2  C   UNL     1      -9.059  13.435  67.107  1.00  0.00    -0.235 C  
ENDROOT
BRANCH   2   3
HETATM    3  N   UNL     1     -10.290  13.909  67.781  1.00  0.00    -0.237 NA 
BRANCH   3   4
HETATM    4  C   UNL     1     -10.768  15.187  67.219  1.00  0.00    -0.305 C  
BRANCH   4   5
HETATM    5  C   UNL     1     -11.258  16.231  68.242  1.00  0.00    -0.324 C  
BRANCH   5   6
HETATM    6  C   UNL     1     -10.159  16.768  69.165  1.00  0.00    -0.280 C  
BRANCH   6   7
HETATM    7  C   UNL     1      -9.496  17.986  68.558  1.00  0.00    -0.326 A  
HETATM    8  C   UNL     1      -8.114  18.002  68.323  1.00  0.00    -0.296 A  
HETATM    9  C   UNL     1      -7.514  19.102  67.705  1.00  0.00    -0.283 A  
HETATM   10  C   UNL     1     -10.263  19.094  68.167  1.00  0.00    -0.489 A  
HETATM   11  C   UNL     1      -8.287  20.194  67.316  1.00  0.00    -0.394 A  
HETATM   12  C   UNL     1      -9.662  20.192  67.550  1.00  0.00    -0.557 A  
ENDBRANCH   6   7
ENDBRANCH   5   6
ENDBRANCH   4   5
ENDBRANCH   3   4
BRANCH   3  13
HETATM   13  C   UNL     1     -11.340  12.871  67.701  1.00  0.00    -0.303 C  
BRANCH  13  14
HETATM   14  C   UNL     1     -11.748  12.256  69.041  1.00  0.00    -0.376 C  
BRANCH  14  15
HETATM   15  C   UNL     1     -10.880  11.059  69.437  1.00  0.00    -0.278 C  
BRANCH  15  16
HETATM   16  C   UNL     1     -11.557  10.324  70.567  1.00  0.00    -0.424 A  
HETATM   17  C   UNL     1     -12.962   8.808  72.450  1.00  0.00    -0.442 A  
HETATM   18  C   UNL     1     -13.479  10.029  72.010  1.00  0.00    -0.448 A  
HETATM   19  C   UNL     1     -11.034   9.108  71.027  1.00  0.00    -0.375 A  
HETATM   20  C   UNL     1     -11.740   8.354  71.965  1.00  0.00    -0.417 A  
HETATM   21  C   UNL     1     -12.776  10.787  71.077  1.00  0.00    -0.513 A  
ENDBRANCH  15  16
ENDBRANCH  14  15
ENDBRANCH  13  14
ENDBRANCH   3  13
ENDBRANCH   2   3
TORSDOF 9
ENDMDL
MODEL      127
REMARK 921   NORMALIZED FREE ENERGY PREDICTED BY IDOCK:   -4.45 KCAL/MOL
REMARK 922        TOTAL FREE ENERGY PREDICTED BY IDOCK:   -8.31 KCAL/MOL
REMARK 923 INTER-LIGAND FREE ENERGY PREDICTED BY IDOCK:   -7.20 KCAL/MOL
REMARK 924 INTRA-LIGAND FREE ENERGY PREDICTED BY IDOCK:   -1.10 KCAL/MOL
REMARK 927      BINDING AFFINITY PREDICTED BY RF-SCORE:    0.00 PKD
ROOT
HETATM    1  C   UNL     1      -8.837   8.582  72.129  1.00  0.00    -0.286 C  
HETATM    2  C   UNL     1      -9.229   9.099  70.749  1.00  0.00    -0.262 C  
ENDROOT
BRANCH   2   3
HETATM    3  N   UNL     1     -10.673   9.356  70.542  1.00  0.00    -0.252 NA 
BRANCH   3   4
HETATM    4  C   UNL     1     -11.443   9.216  71.793  1.00  0.00    -0.381 C  
BRANCH   4   5
HETATM    5  C   UNL     1     -12.477   8.073  71.825  1.00  0.00    -0.355 C  
BRANCH   5   6
HETATM    6  C   UNL     1     -12.186   6.937  70.839  1.00  0.00    -0.404 C  
BRANCH   6   7
HETATM    7  C   UNL     1     -11.330   5.870  71.487  1.00  0.00    -0.256 A  
HETATM    8  C   UNL     1     -11.533   5.512  72.828  1.00  0.00    -0.339 A  
HETATM    9  C   UNL     1     -10.785   4.483  73.406  1.00  0.00    -0.320 A  
HETATM   10  C   UNL     1     -10.360   5.183  70.742  1.00  0.00    -0.294 A  
HETATM   11  C   UNL     1      -9.829   3.804  72.653  1.00  0.00    -0.210 A  
HETATM   12  C   UNL     1      -9.614   4.156  71.321  1.00  0.00    -0.242 A  
ENDBRANCH   6   7
ENDBRANCH   5   6
ENDBRANCH   4   5
ENDBRANCH   3   4
BRANCH   3  13
HETATM   13  C   UNL     1     -10.868  10.696  69.949  1.00  0.00    -0.241 C  
BRANCH  13  14
HETATM   14  C   UNL     1     -11.068  10.713  68.433  1.00  0.00    -0.328 C  
BRANCH  14  15
HETATM   15  C   UNL     1     -11.714  12.008  67.930  1.00  0.00    -0.393 C  
BRANCH  15  16
HETATM   16  C   UNL     1     -11.491  12.112  66.443  1.00  0.00    -0.430 A  
HETATM   17  C   UNL     1     -11.319  12.125  63.652  1.00  0.00    -0.545 A  
HETATM   18  C   UNL     1     -10.623  11.165  64.389  1.00  0.00    -0.411 A  
HETATM   19  C   UNL     1     -12.171  13.085  65.697  1.00  0.00    -0.521 A  
HETATM   20  C   UNL     1     -12.085  13.086  64.305  1.00  0.00    -0.480 A  
HETATM   21  C   UNL     1     -10.704  11.163  65.780  1.00  0.00    -0.252 A  
ENDBRANCH  15  16
ENDBRANCH  14  15
ENDBRANCH  13  14
ENDBRANCH   3  13
ENDBRANCH   2   3
TORSDOF 9
ENDMDL
MODEL      128
REMARK 921   NORMALIZED FREE ENERGY PREDICTED BY IDOCK:   -4.45 KCAL/MOL
REMARK 922        TOTAL FREE ENERGY PREDICTED BY IDOCK:   -8.30 KCAL/MOL
REMARK 923 INTER-LIGAND FREE ENERGY PREDICTED BY IDOCK:   -6.40 KCAL/MOL
REMARK 924 INTRA-LIGAND FREE ENERGY PREDICTED BY IDOCK:   -1.91 KCAL/MOL
REMARK 927      BINDING AFFINITY PREDICTED BY RF-SCORE:    0.00 PKD
ROOT
HETATM    1  C   UNL     1     -10.688  14.525  64.924  1.00  0.00    -0.448 C  
HETATM    2  C   UNL     1     -10.480  13.623  66.136  1.00  0.00    -0.297 C  
ENDROOT
BRANCH   2   3
HETATM    3  N   UNL     1     -10.975  12.234  65.999  1.00  0.00    -0.281 NA 
BRANCH   3   4
HETATM    4  C   UNL     1      -9.904  11.305  65.589  1.00  0.00    -0.234 C  
BRANCH   4   5
HETATM    5  C   UNL     1     -10.259   9.806  65.629  1.00  0.00    -0.178 C  
BRANCH   5   6
HETATM    6  C   UNL     1      -9.071   8.888  65.933  1.00  0.00    -0.271 C  
BRANCH   6   7
HETATM    7  C   UNL     1      -9.398   7.947  67.073  1.00  0.00    -0.200 A  
HETATM    8  C   UNL     1     -10.684   7.403  67.200  1.00  0.00    -0.400 A  
HETATM    9  C   UNL     1     -10.967   6.486  68.216  1.00  0.00    -0.362 A  
HETATM   10  C   UNL     1      -8.405   7.560  67.985  1.00  0.00    -0.124 A  
HETATM   11  C   UNL     1      -9.971   6.105  69.112  1.00  0.00    -0.190 A  
HETATM   12  C   UNL     1      -8.690   6.644  68.999  1.00  0.00    -0.129 A  
ENDBRANCH   6   7
ENDBRANCH   5   6
ENDBRANCH   4   5
ENDBRANCH   3   4
BRANCH   3  13
HETATM   13  C   UNL     1     -11.600  11.793  67.265  1.00  0.00    -0.269 C  
BRANCH  13  14
HETATM   14  C   UNL     1     -10.799  12.109  68.529  1.00  0.00    -0.267 C  
BRANCH  14  15
HETATM   15  C   UNL     1     -10.084  10.883  69.104  1.00  0.00    -0.198 C  
BRANCH  15  16
HETATM   16  C   UNL     1     -10.993  10.220  70.108  1.00  0.00    -0.377 A  
HETATM   17  C   UNL     1     -12.587   9.201  72.167  1.00  0.00    -0.451 A  
HETATM   18  C   UNL     1     -11.289   8.718  71.985  1.00  0.00    -0.441 A  
HETATM   19  C   UNL     1     -12.303  10.686  70.284  1.00  0.00    -0.406 A  
HETATM   20  C   UNL     1     -13.094  10.177  71.314  1.00  0.00    -0.490 A  
HETATM   21  C   UNL     1     -10.498   9.222  70.956  1.00  0.00    -0.384 A  
ENDBRANCH  15  16
ENDBRANCH  14  15
ENDBRANCH  13  14
ENDBRANCH   3  13
ENDBRANCH   2   3
TORSDOF 9
ENDMDL
MODEL      129
REMARK 921   NORMALIZED FREE ENERGY PREDICTED BY IDOCK:   -4.44 KCAL/MOL
REMARK 922        TOTAL FREE ENERGY PREDICTED BY IDOCK:   -8.29 KCAL/MOL
REMARK 923 INTER-LIGAND FREE ENERGY PREDICTED BY IDOCK:   -6.63 KCAL/MOL
REMARK 924 INTRA-LIGAND FREE ENERGY PREDICTED BY IDOCK:   -1.66 KCAL/MOL
REMARK 927      BINDING AFFINITY PREDICTED BY RF-SCORE:    0.00 PKD
ROOT
HETATM    1  C   UNL     1      -6.078  12.834  69.930  1.00  0.00    -0.122 C  
HETATM    2  C   UNL     1      -6.567  12.790  68.487  1.00  0.00    -0.086 C  
ENDROOT
BRANCH   2   3
HETATM    3  N   UNL     1      -8.036  12.798  68.301  1.00  0.00    -0.151 NA 
BRANCH   3   4
HETATM    4  C   UNL     1      -8.449  13.699  67.207  1.00  0.00    -0.194 C  
BRANCH   4   5
HETATM    5  C   UNL     1      -9.008  15.069  67.636  1.00  0.00    -0.180 C  
BRANCH   5   6
HETATM    6  C   UNL     1      -9.240  16.042  66.475  1.00  0.00    -0.307 C  
BRANCH   6   7
HETATM    7  C   UNL     1      -9.588  17.422  66.993  1.00  0.00    -0.273 A  
HETATM    8  C   UNL     1     -10.396  18.283  66.237  1.00  0.00    -0.422 A  
HETATM    9  C   UNL     1     -10.767  19.531  66.744  1.00  0.00    -0.569 A  
HETATM   10  C   UNL     1      -9.155  17.836  68.261  1.00  0.00    -0.281 A  
HETATM   11  C   UNL     1     -10.336  19.929  68.008  1.00  0.00    -0.547 A  
HETATM   12  C   UNL     1      -9.527  19.083  68.766  1.00  0.00    -0.433 A  
ENDBRANCH   6   7
ENDBRANCH   5   6
ENDBRANCH   4   5
ENDBRANCH   3   4
BRANCH   3  13
HETATM   13  C   UNL     1      -8.524  11.423  68.066  1.00  0.00    -0.145 C  
BRANCH  13  14
HETATM   14  C   UNL     1      -9.983  11.176  68.453  1.00  0.00    -0.193 C  
BRANCH  14  15
HETATM   15  C   UNL     1     -10.820  10.617  67.298  1.00  0.00    -0.345 C  
BRANCH  15  16
HETATM   16  C   UNL     1     -11.314  11.768  66.458  1.00  0.00    -0.370 A  
HETATM   17  C   UNL     1     -11.965  14.039  64.964  1.00  0.00    -0.409 A  
HETATM   18  C   UNL     1     -12.319  13.966  66.313  1.00  0.00    -0.489 A  
HETATM   19  C   UNL     1     -10.979  11.839  65.099  1.00  0.00    -0.351 A  
HETATM   20  C   UNL     1     -11.304  12.976  64.358  1.00  0.00    -0.397 A  
HETATM   21  C   UNL     1     -12.000  12.832  67.055  1.00  0.00    -0.364 A  
ENDBRANCH  15  16
ENDBRANCH  14  15
ENDBRANCH  13  14
ENDBRANCH   3  13
ENDBRANCH   2   3
TORSDOF 9
ENDMDL
MODEL      130
REMARK 921   NORMALIZED FREE ENERGY PREDICTED BY IDOCK:   -4.44 KCAL/MOL
REMARK 922        TOTAL FREE ENERGY PREDICTED BY IDOCK:   -8.29 KCAL/MOL
REMARK 923 INTER-LIGAND FREE ENERGY PREDICTED BY IDOCK:   -6.76 KCAL/MOL
REMARK 924 INTRA-LIGAND FREE ENERGY PREDICTED BY IDOCK:   -1.53 KCAL/MOL
REMARK 927      BINDING AFFINITY PREDICTED BY RF-SCORE:    0.00 PKD
ROOT
HETATM    1  C   UNL     1     -10.296   8.864  71.757  1.00  0.00    -0.426 C  
HETATM    2  C   UNL     1     -11.551   9.162  70.944  1.00  0.00    -0.291 C  
ENDROOT
BRANCH   2   3
HETATM    3  N   UNL     1     -11.328   9.742  69.600  1.00  0.00    -0.174 NA 
BRANCH   3   4
HETATM    4  C   UNL     1     -11.938  11.080  69.468  1.00  0.00    -0.342 C  
BRANCH   4   5
HETATM    5  C   UNL     1     -11.130  12.113  68.659  1.00  0.00    -0.297 C  
BRANCH   5   6
HETATM    6  C   UNL     1     -11.968  12.928  67.669  1.00  0.00    -0.344 C  
BRANCH   6   7
HETATM    7  C   UNL     1     -11.750  12.440  66.252  1.00  0.00    -0.457 A  
HETATM    8  C   UNL     1     -12.525  12.944  65.198  1.00  0.00    -0.561 A  
HETATM    9  C   UNL     1     -12.279  12.540  63.884  1.00  0.00    -0.590 A  
HETATM   10  C   UNL     1     -10.730  11.521  65.965  1.00  0.00    -0.332 A  
HETATM   11  C   UNL     1     -11.259  11.631  63.610  1.00  0.00    -0.497 A  
HETATM   12  C   UNL     1     -10.486  11.119  64.651  1.00  0.00    -0.400 A  
ENDBRANCH   6   7
ENDBRANCH   5   6
ENDBRANCH   4   5
ENDBRANCH   3   4
BRANCH   3  13
HETATM   13  C   UNL     1      -9.880   9.791  69.304  1.00  0.00    -0.199 C  
BRANCH  13  14
HETATM   14  C   UNL     1      -9.419   8.881  68.165  1.00  0.00    -0.155 C  
BRANCH  14  15
HETATM   15  C   UNL     1     -10.564   8.076  67.543  1.00  0.00    -0.302 C  
BRANCH  15  16
HETATM   16  C   UNL     1     -10.338   6.613  67.831  1.00  0.00    -0.227 A  
HETATM   17  C   UNL     1      -9.625   3.968  68.392  1.00  0.00    -0.186 A  
HETATM   18  C   UNL     1      -9.673   4.412  67.069  1.00  0.00    -0.232 A  
HETATM   19  C   UNL     1     -10.307   6.155  69.156  1.00  0.00    -0.271 A  
HETATM   20  C   UNL     1      -9.948   4.835  69.431  1.00  0.00    -0.269 A  
HETATM   21  C   UNL     1     -10.034   5.728  66.790  1.00  0.00    -0.207 A  
ENDBRANCH  15  16
ENDBRANCH  14  15
ENDBRANCH  13  14
ENDBRANCH   3  13
ENDBRANCH   2   3
TORSDOF 9
ENDMDL
MODEL      131
REMARK 921   NORMALIZED FREE ENERGY PREDICTED BY IDOCK:   -4.43 KCAL/MOL
REMARK 922        TOTAL FREE ENERGY PREDICTED BY IDOCK:   -8.28 KCAL/MOL
REMARK 923 INTER-LIGAND FREE ENERGY PREDICTED BY IDOCK:   -6.88 KCAL/MOL
REMARK 924 INTRA-LIGAND FREE ENERGY PREDICTED BY IDOCK:   -1.40 KCAL/MOL
REMARK 927      BINDING AFFINITY PREDICTED BY RF-SCORE:    0.00 PKD
ROOT
HETATM    1  C   UNL     1      -7.127   9.759  70.260  1.00  0.00    -0.145 C  
HETATM    2  C   UNL     1      -7.255   9.972  68.756  1.00  0.00    -0.076 C  
ENDROOT
BRANCH   2   3
HETATM    3  N   UNL     1      -8.501   9.466  68.135  1.00  0.00    -0.120 NA 
BRANCH   3   4
HETATM    4  C   UNL     1      -8.458   9.550  66.662  1.00  0.00    -0.133 C  
BRANCH   4   5
HETATM    5  C   UNL     1      -9.770   9.969  65.971  1.00  0.00    -0.301 C  
BRANCH   5   6
HETATM    6  C   UNL     1     -10.628  10.939  66.791  1.00  0.00    -0.313 C  
BRANCH   6   7
HETATM    7  C   UNL     1     -11.207  12.022  65.906  1.00  0.00    -0.385 A  
HETATM    8  C   UNL     1     -11.520  13.282  66.435  1.00  0.00    -0.364 A  
HETATM    9  C   UNL     1     -11.994  14.300  65.604  1.00  0.00    -0.390 A  
HETATM   10  C   UNL     1     -11.384  11.801  64.532  1.00  0.00    -0.349 A  
HETATM   11  C   UNL     1     -12.161  14.070  64.240  1.00  0.00    -0.476 A  
HETATM   12  C   UNL     1     -11.858  12.819  63.703  1.00  0.00    -0.603 A  
ENDBRANCH   6   7
ENDBRANCH   5   6
ENDBRANCH   4   5
ENDBRANCH   3   4
BRANCH   3  13
HETATM   13  C   UNL     1      -8.760   8.080  68.578  1.00  0.00    -0.131 C  
BRANCH  13  14
HETATM   14  C   UNL     1     -10.195   7.798  69.028  1.00  0.00    -0.213 C  
BRANCH  14  15
HETATM   15  C   UNL     1     -10.372   7.883  70.547  1.00  0.00    -0.205 C  
BRANCH  15  16
HETATM   16  C   UNL     1     -11.410   8.933  70.854  1.00  0.00    -0.336 A  
HETATM   17  C   UNL     1     -13.158  10.962  71.656  1.00  0.00    -0.538 A  
HETATM   18  C   UNL     1     -13.316   9.667  72.155  1.00  0.00    -0.545 A  
HETATM   19  C   UNL     1     -11.269  10.231  70.342  1.00  0.00    -0.407 A  
HETATM   20  C   UNL     1     -12.143  11.240  70.748  1.00  0.00    -0.450 A  
HETATM   21  C   UNL     1     -12.449   8.656  71.751  1.00  0.00    -0.397 A  
ENDBRANCH  15  16
ENDBRANCH  14  15
ENDBRANCH  13  14
ENDBRANCH   3  13
ENDBRANCH   2   3
TORSDOF 9
ENDMDL
MODEL      132
REMARK 921   NORMALIZED FREE ENERGY PREDICTED BY IDOCK:   -4.43 KCAL/MOL
REMARK 922        TOTAL FREE ENERGY PREDICTED BY IDOCK:   -8.28 KCAL/MOL
REMARK 923 INTER-LIGAND FREE ENERGY PREDICTED BY IDOCK:   -6.13 KCAL/MOL
REMARK 924 INTRA-LIGAND FREE ENERGY PREDICTED BY IDOCK:   -2.15 KCAL/MOL
REMARK 927      BINDING AFFINITY PREDICTED BY RF-SCORE:    0.00 PKD
ROOT
HETATM    1  C   UNL     1     -10.454  19.948  66.011  1.00  0.00    -0.580 C  
HETATM    2  C   UNL     1     -10.897  19.123  67.215  1.00  0.00    -0.431 C  
ENDROOT
BRANCH   2   3
HETATM    3  N   UNL     1      -9.839  18.324  67.875  1.00  0.00    -0.303 NA 
BRANCH   3   4
HETATM    4  C   UNL     1      -8.612  19.112  68.099  1.00  0.00    -0.324 C  
BRANCH   4   5
HETATM    5  C   UNL     1      -7.328  18.562  67.447  1.00  0.00    -0.222 C  
BRANCH   5   6
HETATM    6  C   UNL     1      -7.557  17.347  66.542  1.00  0.00    -0.317 C  
BRANCH   6   7
HETATM    7  C   UNL     1      -7.403  16.059  67.324  1.00  0.00    -0.243 A  
HETATM    8  C   UNL     1      -6.544  15.997  68.431  1.00  0.00    -0.120 A  
HETATM    9  C   UNL     1      -6.451  14.827  69.188  1.00  0.00    -0.109 A  
HETATM   10  C   UNL     1      -8.160  14.927  66.988  1.00  0.00    -0.200 A  
HETATM   11  C   UNL     1      -7.213  13.711  68.849  1.00  0.00    -0.083 A  
HETATM   12  C   UNL     1      -8.066  13.759  67.746  1.00  0.00    -0.176 A  
ENDBRANCH   6   7
ENDBRANCH   5   6
ENDBRANCH   4   5
ENDBRANCH   3   4
BRANCH   3  13
HETATM   13  C   UNL     1     -10.347  17.765  69.146  1.00  0.00    -0.157 C  
BRANCH  13  14
HETATM   14  C   UNL     1     -10.366  16.238  69.223  1.00  0.00    -0.277 C  
BRANCH  14  15
HETATM   15  C   UNL     1     -11.768  15.648  69.047  1.00  0.00    -0.408 C  
BRANCH  15  16
HETATM   16  C   UNL     1     -11.710  14.572  67.992  1.00  0.00    -0.373 A  
HETATM   17  C   UNL     1     -11.303  12.575  66.078  1.00  0.00    -0.386 A  
HETATM   18  C   UNL     1     -11.299  13.918  65.696  1.00  0.00    -0.310 A  
HETATM   19  C   UNL     1     -11.733  13.221  68.364  1.00  0.00    -0.389 A  
HETATM   20  C   UNL     1     -11.527  12.228  67.406  1.00  0.00    -0.422 A  
HETATM   21  C   UNL     1     -11.508  14.913  66.649  1.00  0.00    -0.297 A  
ENDBRANCH  15  16
ENDBRANCH  14  15
ENDBRANCH  13  14
ENDBRANCH   3  13
ENDBRANCH   2   3
TORSDOF 9
ENDMDL
MODEL      133
REMARK 921   NORMALIZED FREE ENERGY PREDICTED BY IDOCK:   -4.42 KCAL/MOL
REMARK 922        TOTAL FREE ENERGY PREDICTED BY IDOCK:   -8.26 KCAL/MOL
REMARK 923 INTER-LIGAND FREE ENERGY PREDICTED BY IDOCK:   -7.56 KCAL/MOL
REMARK 924 INTRA-LIGAND FREE ENERGY PREDICTED BY IDOCK:   -0.70 KCAL/MOL
REMARK 927      BINDING AFFINITY PREDICTED BY RF-SCORE:    0.00 PKD
ROOT
HETATM    1  C   UNL     1     -12.077  16.190  72.313  1.00  0.00    -0.616 C  
HETATM    2  C   UNL     1     -12.385  15.070  71.324  1.00  0.00    -0.323 C  
ENDROOT
BRANCH   2   3
HETATM    3  N   UNL     1     -11.951  15.304  69.928  1.00  0.00    -0.323 NA 
BRANCH   3   4
HETATM    4  C   UNL     1     -10.754  16.164  69.859  1.00  0.00    -0.328 C  
BRANCH   4   5
HETATM    5  C   UNL     1     -10.208  16.448  68.446  1.00  0.00    -0.259 C  
BRANCH   5   6
HETATM    6  C   UNL     1     -10.278  17.922  68.032  1.00  0.00    -0.381 C  
BRANCH   6   7
HETATM    7  C   UNL     1      -8.889  18.517  67.929  1.00  0.00    -0.301 A  
HETATM    8  C   UNL     1      -7.755  17.701  68.047  1.00  0.00    -0.232 A  
HETATM    9  C   UNL     1      -6.476  18.241  67.888  1.00  0.00    -0.195 A  
HETATM   10  C   UNL     1      -8.717  19.881  67.655  1.00  0.00    -0.395 A  
HETATM   11  C   UNL     1      -6.318  19.597  67.611  1.00  0.00    -0.231 A  
HETATM   12  C   UNL     1      -7.439  20.419  67.496  1.00  0.00    -0.357 A  
ENDBRANCH   6   7
ENDBRANCH   5   6
ENDBRANCH   4   5
ENDBRANCH   3   4
BRANCH   3  13
HETATM   13  C   UNL     1     -11.713  14.012  69.249  1.00  0.00    -0.326 C  
BRANCH  13  14
HETATM   14  C   UNL     1     -11.827  12.777  70.144  1.00  0.00    -0.326 C  
BRANCH  14  15
HETATM   15  C   UNL     1     -11.710  11.463  69.366  1.00  0.00    -0.406 C  
BRANCH  15  16
HETATM   16  C   UNL     1     -11.745  10.317  70.346  1.00  0.00    -0.404 A  
HETATM   17  C   UNL     1     -11.760   8.399  72.380  1.00  0.00    -0.452 A  
HETATM   18  C   UNL     1     -10.566   8.714  71.727  1.00  0.00    -0.395 A  
HETATM   19  C   UNL     1     -12.943   9.981  70.992  1.00  0.00    -0.445 A  
HETATM   20  C   UNL     1     -12.944   9.025  72.008  1.00  0.00    -0.470 A  
HETATM   21  C   UNL     1     -10.560   9.666  70.710  1.00  0.00    -0.392 A  
ENDBRANCH  15  16
ENDBRANCH  14  15
ENDBRANCH  13  14
ENDBRANCH   3  13
ENDBRANCH   2   3
TORSDOF 9
ENDMDL
MODEL      134
REMARK 921   NORMALIZED FREE ENERGY PREDICTED BY IDOCK:   -4.40 KCAL/MOL
REMARK 922        TOTAL FREE ENERGY PREDICTED BY IDOCK:   -8.23 KCAL/MOL
REMARK 923 INTER-LIGAND FREE ENERGY PREDICTED BY IDOCK:   -7.18 KCAL/MOL
REMARK 924 INTRA-LIGAND FREE ENERGY PREDICTED BY IDOCK:   -1.05 KCAL/MOL
REMARK 927      BINDING AFFINITY PREDICTED BY RF-SCORE:    0.00 PKD
ROOT
HETATM    1  C   UNL     1     -12.270  11.483  69.613  1.00  0.00    -0.296 C  
HETATM    2  C   UNL     1     -11.069  12.422  69.575  1.00  0.00    -0.016 C  
ENDROOT
BRANCH   2   3
HETATM    3  N   UNL     1     -10.657  12.890  68.231  1.00  0.00    -0.240 NA 
BRANCH   3   4
HETATM    4  C   UNL     1     -11.752  12.777  67.248  1.00  0.00    -0.378 C  
BRANCH   4   5
HETATM    5  C   UNL     1     -11.421  12.009  65.954  1.00  0.00    -0.392 C  
BRANCH   5   6
HETATM    6  C   UNL     1     -10.465  10.828  66.153  1.00  0.00    -0.278 C  
BRANCH   6   7
HETATM    7  C   UNL     1      -9.888  10.376  64.829  1.00  0.00    -0.406 A  
HETATM    8  C   UNL     1     -10.147  11.098  63.655  1.00  0.00    -0.432 A  
HETATM    9  C   UNL     1      -9.563  10.715  62.446  1.00  0.00    -0.181 A  
HETATM   10  C   UNL     1      -9.037   9.262  64.765  1.00  0.00    -0.201 A  
HETATM   11  C   UNL     1      -8.714   9.611  62.396  1.00  0.00    -0.242 A  
HETATM   12  C   UNL     1      -8.454   8.882  63.556  1.00  0.00    -0.146 A  
ENDBRANCH   6   7
ENDBRANCH   5   6
ENDBRANCH   4   5
ENDBRANCH   3   4
BRANCH   3  13
HETATM   13  C   UNL     1     -10.160  14.280  68.310  1.00  0.00    -0.238 C  
BRANCH  13  14
HETATM   14  C   UNL     1     -11.195  15.317  68.747  1.00  0.00    -0.293 C  
BRANCH  14  15
HETATM   15  C   UNL     1     -10.821  16.019  70.056  1.00  0.00    -0.353 C  
BRANCH  15  16
HETATM   16  C   UNL     1     -11.983  15.911  71.011  1.00  0.00    -0.453 A  
HETATM   17  C   UNL     1     -14.032  15.437  72.853  1.00  0.00    -0.380 A  
HETATM   18  C   UNL     1     -14.205  15.089  71.512  1.00  0.00    -0.633 A  
HETATM   19  C   UNL     1     -11.824  16.277  72.355  1.00  0.00    -0.606 A  
HETATM   20  C   UNL     1     -12.848  16.035  73.271  1.00  0.00    -0.649 A  
HETATM   21  C   UNL     1     -13.187  15.331  70.593  1.00  0.00    -0.370 A  
ENDBRANCH  15  16
ENDBRANCH  14  15
ENDBRANCH  13  14
ENDBRANCH   3  13
ENDBRANCH   2   3
TORSDOF 9
ENDMDL
MODEL      135
REMARK 921   NORMALIZED FREE ENERGY PREDICTED BY IDOCK:   -4.39 KCAL/MOL
REMARK 922        TOTAL FREE ENERGY PREDICTED BY IDOCK:   -8.22 KCAL/MOL
REMARK 923 INTER-LIGAND FREE ENERGY PREDICTED BY IDOCK:   -7.13 KCAL/MOL
REMARK 924 INTRA-LIGAND FREE ENERGY PREDICTED BY IDOCK:   -1.09 KCAL/MOL
REMARK 927      BINDING AFFINITY PREDICTED BY RF-SCORE:    0.00 PKD
ROOT
HETATM    1  C   UNL     1      -6.626   7.384  68.098  1.00  0.00    -0.050 C  
HETATM    2  C   UNL     1      -6.905   8.860  68.362  1.00  0.00    -0.065 C  
ENDROOT
BRANCH   2   3
HETATM    3  N   UNL     1      -8.304   9.201  68.707  1.00  0.00    -0.120 NA 
BRANCH   3   4
HETATM    4  C   UNL     1      -8.417   9.753  70.071  1.00  0.00    -0.206 C  
BRANCH   4   5
HETATM    5  C   UNL     1      -9.187   8.888  71.088  1.00  0.00    -0.324 C  
BRANCH   5   6
HETATM    6  C   UNL     1     -10.200   7.929  70.454  1.00  0.00    -0.197 C  
BRANCH   6   7
HETATM    7  C   UNL     1     -11.590   8.180  71.000  1.00  0.00    -0.301 A  
HETATM    8  C   UNL     1     -12.518   7.133  71.093  1.00  0.00    -0.400 A  
HETATM    9  C   UNL     1     -13.777   7.352  71.656  1.00  0.00    -0.468 A  
HETATM   10  C   UNL     1     -11.950   9.449  71.475  1.00  0.00    -0.456 A  
HETATM   11  C   UNL     1     -14.122   8.617  72.129  1.00  0.00    -0.511 A  
HETATM   12  C   UNL     1     -13.209   9.667  72.037  1.00  0.00    -0.546 A  
ENDBRANCH   6   7
ENDBRANCH   5   6
ENDBRANCH   4   5
ENDBRANCH   3   4
BRANCH   3  13
HETATM   13  C   UNL     1      -8.856  10.142  67.709  1.00  0.00    -0.125 C  
BRANCH  13  14
HETATM   14  C   UNL     1     -10.301   9.870  67.289  1.00  0.00    -0.303 C  
BRANCH  14  15
HETATM   15  C   UNL     1     -11.198  11.108  67.400  1.00  0.00    -0.363 C  
BRANCH  15  16
HETATM   16  C   UNL     1     -11.329  11.732  66.033  1.00  0.00    -0.335 A  
HETATM   17  C   UNL     1     -11.823  12.721  63.465  1.00  0.00    -0.618 A  
HETATM   18  C   UNL     1     -11.013  11.596  63.636  1.00  0.00    -0.507 A  
HETATM   19  C   UNL     1     -12.125  12.872  65.856  1.00  0.00    -0.503 A  
HETATM   20  C   UNL     1     -12.370  13.360  64.572  1.00  0.00    -0.415 A  
HETATM   21  C   UNL     1     -10.763  11.107  64.916  1.00  0.00    -0.318 A  
ENDBRANCH  15  16
ENDBRANCH  14  15
ENDBRANCH  13  14
ENDBRANCH   3  13
ENDBRANCH   2   3
TORSDOF 9
ENDMDL
MODEL      136
REMARK 921   NORMALIZED FREE ENERGY PREDICTED BY IDOCK:   -4.39 KCAL/MOL
REMARK 922        TOTAL FREE ENERGY PREDICTED BY IDOCK:   -8.22 KCAL/MOL
REMARK 923 INTER-LIGAND FREE ENERGY PREDICTED BY IDOCK:   -6.41 KCAL/MOL
REMARK 924 INTRA-LIGAND FREE ENERGY PREDICTED BY IDOCK:   -1.81 KCAL/MOL
REMARK 927      BINDING AFFINITY PREDICTED BY RF-SCORE:    0.00 PKD
ROOT
HETATM    1  C   UNL     1     -13.067  12.631  71.820  1.00  0.00    -0.461 C  
HETATM    2  C   UNL     1     -12.736  11.435  70.933  1.00  0.00    -0.303 C  
ENDROOT
BRANCH   2   3
HETATM    3  N   UNL     1     -12.035  11.746  69.665  1.00  0.00    -0.317 NA 
BRANCH   3   4
HETATM    4  C   UNL     1     -11.663  13.171  69.576  1.00  0.00    -0.319 C  
BRANCH   4   5
HETATM    5  C   UNL     1     -12.036  13.885  68.262  1.00  0.00    -0.392 C  
BRANCH   5   6
HETATM    6  C   UNL     1     -10.866  14.055  67.287  1.00  0.00    -0.288 C  
BRANCH   6   7
HETATM    7  C   UNL     1     -11.129  13.306  65.997  1.00  0.00    -0.298 A  
HETATM    8  C   UNL     1     -12.435  12.942  65.639  1.00  0.00    -0.400 A  
HETATM    9  C   UNL     1     -12.682  12.307  64.419  1.00  0.00    -0.384 A  
HETATM   10  C   UNL     1     -10.078  13.016  65.115  1.00  0.00    -0.238 A  
HETATM   11  C   UNL     1     -11.630  12.029  63.548  1.00  0.00    -0.553 A  
HETATM   12  C   UNL     1     -10.327  12.381  63.897  1.00  0.00    -0.450 A  
ENDBRANCH   6   7
ENDBRANCH   5   6
ENDBRANCH   4   5
ENDBRANCH   3   4
BRANCH   3  13
HETATM   13  C   UNL     1     -10.846  10.879  69.519  1.00  0.00    -0.238 C  
BRANCH  13  14
HETATM   14  C   UNL     1     -11.032   9.671  68.599  1.00  0.00    -0.152 C  
BRANCH  14  15
HETATM   15  C   UNL     1     -10.791  10.003  67.123  1.00  0.00    -0.240 C  
BRANCH  15  16
HETATM   16  C   UNL     1      -9.960   8.904  66.511  1.00  0.00    -0.358 A  
HETATM   17  C   UNL     1      -8.197   6.950  65.565  1.00  0.00    -0.135 A  
HETATM   18  C   UNL     1      -8.239   8.206  64.956  1.00  0.00    -0.157 A  
HETATM   19  C   UNL     1      -9.926   7.634  67.105  1.00  0.00    -0.297 A  
HETATM   20  C   UNL     1      -9.043   6.664  66.631  1.00  0.00    -0.159 A  
HETATM   21  C   UNL     1      -9.122   9.177  65.423  1.00  0.00    -0.271 A  
ENDBRANCH  15  16
ENDBRANCH  14  15
ENDBRANCH  13  14
ENDBRANCH   3  13
ENDBRANCH   2   3
TORSDOF 9
ENDMDL
MODEL      137
REMARK 921   NORMALIZED FREE ENERGY PREDICTED BY IDOCK:   -4.38 KCAL/MOL
REMARK 922        TOTAL FREE ENERGY PREDICTED BY IDOCK:   -8.20 KCAL/MOL
REMARK 923 INTER-LIGAND FREE ENERGY PREDICTED BY IDOCK:   -6.82 KCAL/MOL
REMARK 924 INTRA-LIGAND FREE ENERGY PREDICTED BY IDOCK:   -1.38 KCAL/MOL
REMARK 927      BINDING AFFINITY PREDICTED BY RF-SCORE:    0.00 PKD
ROOT
HETATM    1  C   UNL     1     -10.372   5.688  70.077  1.00  0.00    -0.345 C  
HETATM    2  C   UNL     1     -11.507   6.699  69.949  1.00  0.00    -0.354 C  
ENDROOT
BRANCH   2   3
HETATM    3  N   UNL     1     -11.268   8.021  70.574  1.00  0.00    -0.264 NA 
BRANCH   3   4
HETATM    4  C   UNL     1     -12.142   8.244  71.742  1.00  0.00    -0.319 C  
BRANCH   4   5
HETATM    5  C   UNL     1     -12.678   9.678  71.919  1.00  0.00    -0.499 C  
BRANCH   5   6
HETATM    6  C   UNL     1     -12.740  10.489  70.620  1.00  0.00    -0.441 C  
BRANCH   6   7
HETATM    7  C   UNL     1     -12.703  11.974  70.913  1.00  0.00    -0.291 A  
HETATM    8  C   UNL     1     -12.032  12.853  70.051  1.00  0.00    -0.380 A  
HETATM    9  C   UNL     1     -12.053  14.230  70.288  1.00  0.00    -0.403 A  
HETATM   10  C   UNL     1     -13.389  12.500  72.018  1.00  0.00    -0.528 A  
HETATM   11  C   UNL     1     -12.743  14.740  71.386  1.00  0.00    -0.401 A  
HETATM   12  C   UNL     1     -13.409  13.875  72.253  1.00  0.00    -0.599 A  
ENDBRANCH   6   7
ENDBRANCH   5   6
ENDBRANCH   4   5
ENDBRANCH   3   4
BRANCH   3  13
HETATM   13  C   UNL     1      -9.844   8.154  70.946  1.00  0.00    -0.176 C  
BRANCH  13  14
HETATM   14  C   UNL     1      -9.009   9.035  70.016  1.00  0.00    -0.184 C  
BRANCH  14  15
HETATM   15  C   UNL     1      -9.819  10.171  69.383  1.00  0.00    -0.247 C  
BRANCH  15  16
HETATM   16  C   UNL     1      -9.931   9.916  67.901  1.00  0.00    -0.190 A  
HETATM   17  C   UNL     1      -9.880   9.596  65.124  1.00  0.00    -0.209 A  
HETATM   18  C   UNL     1     -10.532  10.695  65.688  1.00  0.00    -0.235 A  
HETATM   19  C   UNL     1      -9.295   8.806  67.329  1.00  0.00    -0.181 A  
HETATM   20  C   UNL     1      -9.270   8.652  65.943  1.00  0.00    -0.264 A  
HETATM   21  C   UNL     1     -10.563  10.850  67.072  1.00  0.00    -0.307 A  
ENDBRANCH  15  16
ENDBRANCH  14  15
ENDBRANCH  13  14
ENDBRANCH   3  13
ENDBRANCH   2   3
TORSDOF 9
ENDMDL
MODEL      138
REMARK 921   NORMALIZED FREE ENERGY PREDICTED BY IDOCK:   -4.38 KCAL/MOL
REMARK 922        TOTAL FREE ENERGY PREDICTED BY IDOCK:   -8.20 KCAL/MOL
REMARK 923 INTER-LIGAND FREE ENERGY PREDICTED BY IDOCK:   -7.14 KCAL/MOL
REMARK 924 INTRA-LIGAND FREE ENERGY PREDICTED BY IDOCK:   -1.06 KCAL/MOL
REMARK 927      BINDING AFFINITY PREDICTED BY RF-SCORE:    0.00 PKD
ROOT
HETATM    1  C   UNL     1      -9.505   5.637  66.511  1.00  0.00    -0.165 C  
HETATM    2  C   UNL     1      -9.148   7.086  66.825  1.00  0.00    -0.143 C  
ENDROOT
BRANCH   2   3
HETATM    3  N   UNL     1      -9.654   7.611  68.113  1.00  0.00    -0.148 NA 
BRANCH   3   4
HETATM    4  C   UNL     1      -8.916   7.055  69.264  1.00  0.00    -0.138 C  
BRANCH   4   5
HETATM    5  C   UNL     1      -9.778   6.480  70.405  1.00  0.00    -0.186 C  
BRANCH   5   6
HETATM    6  C   UNL     1     -11.269   6.374  70.071  1.00  0.00    -0.475 C  
BRANCH   6   7
HETATM    7  C   UNL     1     -12.067   7.402  70.846  1.00  0.00    -0.290 A  
HETATM    8  C   UNL     1     -11.599   8.718  70.973  1.00  0.00    -0.337 A  
HETATM    9  C   UNL     1     -12.366   9.680  71.634  1.00  0.00    -0.489 A  
HETATM   10  C   UNL     1     -13.313   7.070  71.397  1.00  0.00    -0.335 A  
HETATM   11  C   UNL     1     -13.605   9.339  72.172  1.00  0.00    -0.536 A  
HETATM   12  C   UNL     1     -14.078   8.033  72.056  1.00  0.00    -0.426 A  
ENDBRANCH   6   7
ENDBRANCH   5   6
ENDBRANCH   4   5
ENDBRANCH   3   4
BRANCH   3  13
HETATM   13  C   UNL     1      -9.598   9.089  68.114  1.00  0.00    -0.148 C  
BRANCH  13  14
HETATM   14  C   UNL     1     -10.373   9.769  66.985  1.00  0.00    -0.305 C  
BRANCH  14  15
HETATM   15  C   UNL     1     -11.177  10.984  67.459  1.00  0.00    -0.372 C  
BRANCH  15  16
HETATM   16  C   UNL     1     -11.380  11.914  66.290  1.00  0.00    -0.394 A  
HETATM   17  C   UNL     1     -12.013  13.485  64.065  1.00  0.00    -0.501 A  
HETATM   18  C   UNL     1     -11.218  12.347  63.913  1.00  0.00    -0.487 A  
HETATM   19  C   UNL     1     -12.161  13.069  66.439  1.00  0.00    -0.428 A  
HETATM   20  C   UNL     1     -12.476  13.848  65.326  1.00  0.00    -0.504 A  
HETATM   21  C   UNL     1     -10.898  11.568  65.022  1.00  0.00    -0.336 A  
ENDBRANCH  15  16
ENDBRANCH  14  15
ENDBRANCH  13  14
ENDBRANCH   3  13
ENDBRANCH   2   3
TORSDOF 9
ENDMDL
MODEL      139
REMARK 921   NORMALIZED FREE ENERGY PREDICTED BY IDOCK:   -4.38 KCAL/MOL
REMARK 922        TOTAL FREE ENERGY PREDICTED BY IDOCK:   -8.20 KCAL/MOL
REMARK 923 INTER-LIGAND FREE ENERGY PREDICTED BY IDOCK:   -5.93 KCAL/MOL
REMARK 924 INTRA-LIGAND FREE ENERGY PREDICTED BY IDOCK:   -2.27 KCAL/MOL
REMARK 927      BINDING AFFINITY PREDICTED BY RF-SCORE:    0.00 PKD
ROOT
HETATM    1  C   UNL     1      -9.347   9.270  70.453  1.00  0.00    -0.295 C  
HETATM    2  C   UNL     1      -9.424   9.938  69.085  1.00  0.00    -0.196 C  
ENDROOT
BRANCH   2   3
HETATM    3  N   UNL     1     -10.701   9.771  68.355  1.00  0.00    -0.228 NA 
BRANCH   3   4
HETATM    4  C   UNL     1     -11.506  11.009  68.361  1.00  0.00    -0.308 C  
BRANCH   4   5
HETATM    5  C   UNL     1     -10.896  12.206  69.116  1.00  0.00    -0.165 C  
BRANCH   5   6
HETATM    6  C   UNL     1      -9.842  12.979  68.318  1.00  0.00    -0.225 C  
BRANCH   6   7
HETATM    7  C   UNL     1     -10.152  14.462  68.314  1.00  0.00    -0.239 A  
HETATM    8  C   UNL     1      -9.234  15.380  67.787  1.00  0.00    -0.183 A  
HETATM    9  C   UNL     1      -9.549  16.740  67.726  1.00  0.00    -0.241 A  
HETATM   10  C   UNL     1     -11.388  14.932  68.783  1.00  0.00    -0.304 A  
HETATM   11  C   UNL     1     -10.782  17.194  68.190  1.00  0.00    -0.366 A  
HETATM   12  C   UNL     1     -11.701  16.290  68.722  1.00  0.00    -0.138 A  
ENDBRANCH   6   7
ENDBRANCH   5   6
ENDBRANCH   4   5
ENDBRANCH   3   4
BRANCH   3  13
HETATM   13  C   UNL     1     -10.438   9.319  66.972  1.00  0.00    -0.233 C  
BRANCH  13  14
HETATM   14  C   UNL     1      -9.728  10.338  66.079  1.00  0.00    -0.274 C  
BRANCH  14  15
HETATM   15  C   UNL     1     -10.558  10.742  64.857  1.00  0.00    -0.258 C  
BRANCH  15  16
HETATM   16  C   UNL     1     -10.992  12.177  65.022  1.00  0.00    -0.355 A  
HETATM   17  C   UNL     1     -11.916  14.816  65.050  1.00  0.00    -0.318 A  
HETATM   18  C   UNL     1     -10.630  14.531  64.586  1.00  0.00    -0.298 A  
HETATM   19  C   UNL     1     -12.274  12.472  65.505  1.00  0.00    -0.442 A  
HETATM   20  C   UNL     1     -12.732  13.790  65.514  1.00  0.00    -0.530 A  
HETATM   21  C   UNL     1     -10.168  13.218  64.577  1.00  0.00    -0.332 A  
ENDBRANCH  15  16
ENDBRANCH  14  15
ENDBRANCH  13  14
ENDBRANCH   3  13
ENDBRANCH   2   3
TORSDOF 9
ENDMDL
MODEL      140
REMARK 921   NORMALIZED FREE ENERGY PREDICTED BY IDOCK:   -4.37 KCAL/MOL
REMARK 922        TOTAL FREE ENERGY PREDICTED BY IDOCK:   -8.19 KCAL/MOL
REMARK 923 INTER-LIGAND FREE ENERGY PREDICTED BY IDOCK:   -7.40 KCAL/MOL
REMARK 924 INTRA-LIGAND FREE ENERGY PREDICTED BY IDOCK:   -0.79 KCAL/MOL
REMARK 927      BINDING AFFINITY PREDICTED BY RF-SCORE:    0.00 PKD
ROOT
HETATM    1  C   UNL     1     -13.365  12.882  72.090  1.00  0.00    -0.615 C  
HETATM    2  C   UNL     1     -13.164  11.409  71.747  1.00  0.00    -0.367 C  
ENDROOT
BRANCH   2   3
HETATM    3  N   UNL     1     -12.021  11.103  70.857  1.00  0.00    -0.311 NA 
BRANCH   3   4
HETATM    4  C   UNL     1     -11.423   9.788  71.159  1.00  0.00    -0.398 C  
BRANCH   4   5
HETATM    5  C   UNL     1     -12.393   8.710  71.681  1.00  0.00    -0.384 C  
BRANCH   5   6
HETATM    6  C   UNL     1     -11.701   7.461  72.237  1.00  0.00    -0.326 C  
BRANCH   6   7
HETATM    7  C   UNL     1     -10.891   6.773  71.158  1.00  0.00    -0.275 A  
HETATM    8  C   UNL     1     -11.497   6.370  69.960  1.00  0.00    -0.496 A  
HETATM    9  C   UNL     1     -10.735   5.792  68.942  1.00  0.00    -0.334 A  
HETATM   10  C   UNL     1      -9.511   6.580  71.318  1.00  0.00    -0.172 A  
HETATM   11  C   UNL     1      -9.364   5.612  69.110  1.00  0.00    -0.151 A  
HETATM   12  C   UNL     1      -8.751   6.003  70.299  1.00  0.00    -0.143 A  
ENDBRANCH   6   7
ENDBRANCH   5   6
ENDBRANCH   4   5
ENDBRANCH   3   4
BRANCH   3  13
HETATM   13  C   UNL     1     -12.447  11.178  69.443  1.00  0.00    -0.017 C  
BRANCH  13  14
HETATM   14  C   UNL     1     -11.411  11.764  68.483  1.00  0.00    -0.353 C  
BRANCH  14  15
HETATM   15  C   UNL     1     -12.021  12.734  67.466  1.00  0.00    -0.342 C  
BRANCH  15  16
HETATM   16  C   UNL     1     -11.543  12.352  66.088  1.00  0.00    -0.452 A  
HETATM   17  C   UNL     1     -10.859  11.420  63.542  1.00  0.00    -0.430 A  
HETATM   18  C   UNL     1     -10.184  10.939  64.666  1.00  0.00    -0.411 A  
HETATM   19  C   UNL     1     -12.202  12.846  64.954  1.00  0.00    -0.504 A  
HETATM   20  C   UNL     1     -11.859  12.376  63.686  1.00  0.00    -0.610 A  
HETATM   21  C   UNL     1     -10.521  11.408  65.933  1.00  0.00    -0.309 A  
ENDBRANCH  15  16
ENDBRANCH  14  15
ENDBRANCH  13  14
ENDBRANCH   3  13
ENDBRANCH   2   3
TORSDOF 9
ENDMDL
MODEL      141
REMARK 921   NORMALIZED FREE ENERGY PREDICTED BY IDOCK:   -4.37 KCAL/MOL
REMARK 922        TOTAL FREE ENERGY PREDICTED BY IDOCK:   -8.19 KCAL/MOL
REMARK 923 INTER-LIGAND FREE ENERGY PREDICTED BY IDOCK:   -6.84 KCAL/MOL
REMARK 924 INTRA-LIGAND FREE ENERGY PREDICTED BY IDOCK:   -1.35 KCAL/MOL
REMARK 927      BINDING AFFINITY PREDICTED BY RF-SCORE:    0.00 PKD
ROOT
HETATM    1  C   UNL     1      -8.615   9.679  64.927  1.00  0.00    -0.188 C  
HETATM    2  C   UNL     1      -8.189   9.186  66.306  1.00  0.00    -0.111 C  
ENDROOT
BRANCH   2   3
HETATM    3  N   UNL     1      -9.001   9.672  67.445  1.00  0.00    -0.131 NA 
BRANCH   3   4
HETATM    4  C   UNL     1     -10.448   9.561  67.177  1.00  0.00    -0.253 C  
BRANCH   4   5
HETATM    5  C   UNL     1     -11.281  10.832  67.436  1.00  0.00    -0.315 C  
BRANCH   5   6
HETATM    6  C   UNL     1     -10.450  12.115  67.541  1.00  0.00    -0.229 C  
BRANCH   6   7
HETATM    7  C   UNL     1     -10.887  13.124  66.499  1.00  0.00    -0.291 A  
HETATM    8  C   UNL     1     -10.121  14.273  66.256  1.00  0.00    -0.308 A  
HETATM    9  C   UNL     1     -10.491  15.170  65.252  1.00  0.00    -0.434 A  
HETATM   10  C   UNL     1     -12.032  12.895  65.722  1.00  0.00    -0.496 A  
HETATM   11  C   UNL     1     -11.628  14.929  64.482  1.00  0.00    -0.356 A  
HETATM   12  C   UNL     1     -12.400  13.793  64.719  1.00  0.00    -0.420 A  
ENDBRANCH   6   7
ENDBRANCH   5   6
ENDBRANCH   4   5
ENDBRANCH   3   4
BRANCH   3  13
HETATM   13  C   UNL     1      -8.634   8.939  68.676  1.00  0.00    -0.133 C  
BRANCH  13  14
HETATM   14  C   UNL     1      -8.774   9.737  69.973  1.00  0.00    -0.237 C  
BRANCH  14  15
HETATM   15  C   UNL     1      -9.261   8.885  71.149  1.00  0.00    -0.324 C  
BRANCH  15  16
HETATM   16  C   UNL     1     -10.713   9.199  71.403  1.00  0.00    -0.414 A  
HETATM   17  C   UNL     1     -13.469   9.611  71.633  1.00  0.00    -0.455 A  
HETATM   18  C   UNL     1     -12.690  10.499  70.887  1.00  0.00    -0.495 A  
HETATM   19  C   UNL     1     -11.498   8.323  72.166  1.00  0.00    -0.427 A  
HETATM   20  C   UNL     1     -12.873   8.532  72.275  1.00  0.00    -0.404 A  
HETATM   21  C   UNL     1     -11.317  10.297  70.778  1.00  0.00    -0.421 A  
ENDBRANCH  15  16
ENDBRANCH  14  15
ENDBRANCH  13  14
ENDBRANCH   3  13
ENDBRANCH   2   3
TORSDOF 9
ENDMDL
MODEL      142
REMARK 921   NORMALIZED FREE ENERGY PREDICTED BY IDOCK:   -4.36 KCAL/MOL
REMARK 922        TOTAL FREE ENERGY PREDICTED BY IDOCK:   -8.17 KCAL/MOL
REMARK 923 INTER-LIGAND FREE ENERGY PREDICTED BY IDOCK:   -6.84 KCAL/MOL
REMARK 924 INTRA-LIGAND FREE ENERGY PREDICTED BY IDOCK:   -1.33 KCAL/MOL
REMARK 927      BINDING AFFINITY PREDICTED BY RF-SCORE:    0.00 PKD
ROOT
HETATM    1  C   UNL     1      -9.352   9.355  69.141  1.00  0.00    -0.159 C  
HETATM    2  C   UNL     1      -8.499   9.150  67.893  1.00  0.00    -0.117 C  
ENDROOT
BRANCH   2   3
HETATM    3  N   UNL     1      -8.997   8.143  66.928  1.00  0.00    -0.135 NA 
BRANCH   3   4
HETATM    4  C   UNL     1     -10.469   8.031  66.958  1.00  0.00    -0.340 C  
BRANCH   4   5
HETATM    5  C   UNL     1     -11.034   6.616  67.189  1.00  0.00    -0.478 C  
BRANCH   5   6
HETATM    6  C   UNL     1     -10.132   5.712  68.035  1.00  0.00    -0.211 C  
BRANCH   6   7
HETATM    7  C   UNL     1     -10.550   5.748  69.490  1.00  0.00    -0.390 A  
HETATM    8  C   UNL     1      -9.789   5.090  70.466  1.00  0.00    -0.290 A  
HETATM    9  C   UNL     1     -10.142   5.177  71.815  1.00  0.00    -0.260 A  
HETATM   10  C   UNL     1     -11.672   6.489  69.890  1.00  0.00    -0.349 A  
HETATM   11  C   UNL     1     -11.255   5.920  72.201  1.00  0.00    -0.342 A  
HETATM   12  C   UNL     1     -12.023   6.574  71.239  1.00  0.00    -0.364 A  
ENDBRANCH   6   7
ENDBRANCH   5   6
ENDBRANCH   4   5
ENDBRANCH   3   4
BRANCH   3  13
HETATM   13  C   UNL     1      -8.520   8.467  65.567  1.00  0.00    -0.167 C  
BRANCH  13  14
HETATM   14  C   UNL     1      -8.450   9.960  65.242  1.00  0.00    -0.158 C  
BRANCH  14  15
HETATM   15  C   UNL     1      -9.263  10.339  64.000  1.00  0.00    -0.311 C  
BRANCH  15  16
HETATM   16  C   UNL     1     -10.460  11.146  64.435  1.00  0.00    -0.418 A  
HETATM   17  C   UNL     1     -12.513  12.890  65.187  1.00  0.00    -0.561 A  
HETATM   18  C   UNL     1     -11.611  12.420  66.144  1.00  0.00    -0.452 A  
HETATM   19  C   UNL     1     -11.381  11.607  63.483  1.00  0.00    -0.447 A  
HETATM   20  C   UNL     1     -12.401  12.479  63.863  1.00  0.00    -0.576 A  
HETATM   21  C   UNL     1     -10.592  11.546  65.770  1.00  0.00    -0.315 A  
ENDBRANCH  15  16
ENDBRANCH  14  15
ENDBRANCH  13  14
ENDBRANCH   3  13
ENDBRANCH   2   3
TORSDOF 9
ENDMDL
MODEL      143
REMARK 921   NORMALIZED FREE ENERGY PREDICTED BY IDOCK:   -4.34 KCAL/MOL
REMARK 922        TOTAL FREE ENERGY PREDICTED BY IDOCK:   -8.15 KCAL/MOL
REMARK 923 INTER-LIGAND FREE ENERGY PREDICTED BY IDOCK:   -5.59 KCAL/MOL
REMARK 924 INTRA-LIGAND FREE ENERGY PREDICTED BY IDOCK:   -2.56 KCAL/MOL
REMARK 927      BINDING AFFINITY PREDICTED BY RF-SCORE:    0.00 PKD
ROOT
HETATM    1  C   UNL     1     -11.388   2.161  73.679  1.00  0.00    -0.322 C  
HETATM    2  C   UNL     1     -11.076   3.612  73.332  1.00  0.00    -0.198 C  
ENDROOT
BRANCH   2   3
HETATM    3  N   UNL     1      -9.801   4.144  73.864  1.00  0.00    -0.114 NA 
BRANCH   3   4
HETATM    4  C   UNL     1      -8.681   3.932  72.925  1.00  0.00    -0.098 C  
BRANCH   4   5
HETATM    5  C   UNL     1      -9.072   3.631  71.465  1.00  0.00    -0.175 C  
BRANCH   5   6
HETATM    6  C   UNL     1      -8.271   4.421  70.426  1.00  0.00    -0.074 C  
BRANCH   6   7
HETATM    7  C   UNL     1      -9.144   5.460  69.753  1.00  0.00    -0.157 A  
HETATM    8  C   UNL     1      -8.568   6.537  69.065  1.00  0.00    -0.125 A  
HETATM    9  C   UNL     1      -9.373   7.459  68.392  1.00  0.00    -0.144 A  
HETATM   10  C   UNL     1     -10.541   5.328  69.757  1.00  0.00    -0.283 A  
HETATM   11  C   UNL     1     -10.759   7.313  68.398  1.00  0.00    -0.165 A  
HETATM   12  C   UNL     1     -11.344   6.249  69.084  1.00  0.00    -0.358 A  
ENDBRANCH   6   7
ENDBRANCH   5   6
ENDBRANCH   4   5
ENDBRANCH   3   4
BRANCH   3  13
HETATM   13  C   UNL     1      -9.949   5.578  74.194  1.00  0.00    -0.219 C  
BRANCH  13  14
HETATM   14  C   UNL     1     -10.703   6.409  73.156  1.00  0.00    -0.294 C  
BRANCH  14  15
HETATM   15  C   UNL     1      -9.930   7.655  72.712  1.00  0.00    -0.298 C  
BRANCH  15  16
HETATM   16  C   UNL     1     -10.908   8.654  72.149  1.00  0.00    -0.424 A  
HETATM   17  C   UNL     1     -12.773  10.308  70.882  1.00  0.00    -0.462 A  
HETATM   18  C   UNL     1     -11.418  10.409  70.559  1.00  0.00    -0.431 A  
HETATM   19  C   UNL     1     -12.267   8.572  72.482  1.00  0.00    -0.383 A  
HETATM   20  C   UNL     1     -13.194   9.398  71.845  1.00  0.00    -0.507 A  
HETATM   21  C   UNL     1     -10.489   9.590  71.195  1.00  0.00    -0.358 A  
ENDBRANCH  15  16
ENDBRANCH  14  15
ENDBRANCH  13  14
ENDBRANCH   3  13
ENDBRANCH   2   3
TORSDOF 9
ENDMDL
MODEL      144
REMARK 921   NORMALIZED FREE ENERGY PREDICTED BY IDOCK:   -4.34 KCAL/MOL
REMARK 922        TOTAL FREE ENERGY PREDICTED BY IDOCK:   -8.15 KCAL/MOL
REMARK 923 INTER-LIGAND FREE ENERGY PREDICTED BY IDOCK:   -6.37 KCAL/MOL
REMARK 924 INTRA-LIGAND FREE ENERGY PREDICTED BY IDOCK:   -1.77 KCAL/MOL
REMARK 927      BINDING AFFINITY PREDICTED BY RF-SCORE:    0.00 PKD
ROOT
HETATM    1  C   UNL     1     -10.301   5.687  66.526  1.00  0.00    -0.287 C  
HETATM    2  C   UNL     1      -9.689   7.084  66.532  1.00  0.00    -0.125 C  
ENDROOT
BRANCH   2   3
HETATM    3  N   UNL     1      -9.438   7.673  67.868  1.00  0.00    -0.142 NA 
BRANCH   3   4
HETATM    4  C   UNL     1      -8.084   7.360  68.363  1.00  0.00    -0.125 C  
BRANCH   4   5
HETATM    5  C   UNL     1      -8.012   6.676  69.743  1.00  0.00    -0.120 C  
BRANCH   5   6
HETATM    6  C   UNL     1      -9.178   5.726  70.033  1.00  0.00    -0.168 C  
BRANCH   6   7
HETATM    7  C   UNL     1     -10.250   6.424  70.843  1.00  0.00    -0.226 A  
HETATM    8  C   UNL     1     -11.592   6.378  70.438  1.00  0.00    -0.440 A  
HETATM    9  C   UNL     1     -12.587   6.969  71.220  1.00  0.00    -0.418 A  
HETATM   10  C   UNL     1      -9.926   7.077  72.041  1.00  0.00    -0.172 A  
HETATM   11  C   UNL     1     -12.253   7.609  72.412  1.00  0.00    -0.208 A  
HETATM   12  C   UNL     1     -10.921   7.666  72.822  1.00  0.00    -0.432 A  
ENDBRANCH   6   7
ENDBRANCH   5   6
ENDBRANCH   4   5
ENDBRANCH   3   4
BRANCH   3  13
HETATM   13  C   UNL     1      -9.660   9.134  67.825  1.00  0.00    -0.146 C  
BRANCH  13  14
HETATM   14  C   UNL     1     -10.447   9.707  69.005  1.00  0.00    -0.229 C  
BRANCH  14  15
HETATM   15  C   UNL     1     -11.428  10.807  68.591  1.00  0.00    -0.365 C  
BRANCH  15  16
HETATM   16  C   UNL     1     -11.955  11.477  69.835  1.00  0.00    -0.426 A  
HETATM   17  C   UNL     1     -13.200  12.734  72.001  1.00  0.00    -0.538 A  
HETATM   18  C   UNL     1     -12.573  13.500  71.015  1.00  0.00    -0.438 A  
HETATM   19  C   UNL     1     -12.568  10.714  70.838  1.00  0.00    -0.503 A  
HETATM   20  C   UNL     1     -13.190  11.346  71.915  1.00  0.00    -0.485 A  
HETATM   21  C   UNL     1     -11.948  12.874  69.940  1.00  0.00    -0.377 A  
ENDBRANCH  15  16
ENDBRANCH  14  15
ENDBRANCH  13  14
ENDBRANCH   3  13
ENDBRANCH   2   3
TORSDOF 9
ENDMDL
MODEL      145
REMARK 921   NORMALIZED FREE ENERGY PREDICTED BY IDOCK:   -4.34 KCAL/MOL
REMARK 922        TOTAL FREE ENERGY PREDICTED BY IDOCK:   -8.14 KCAL/MOL
REMARK 923 INTER-LIGAND FREE ENERGY PREDICTED BY IDOCK:   -6.20 KCAL/MOL
REMARK 924 INTRA-LIGAND FREE ENERGY PREDICTED BY IDOCK:   -1.94 KCAL/MOL
REMARK 927      BINDING AFFINITY PREDICTED BY RF-SCORE:    0.00 PKD
ROOT
HETATM    1  C   UNL     1     -13.218   9.912  71.324  1.00  0.00    -0.465 C  
HETATM    2  C   UNL     1     -11.739   9.678  71.039  1.00  0.00    -0.353 C  
ENDROOT
BRANCH   2   3
HETATM    3  N   UNL     1     -11.295   9.965  69.655  1.00  0.00    -0.206 NA 
BRANCH   3   4
HETATM    4  C   UNL     1     -10.518  11.217  69.574  1.00  0.00     0.027 C  
BRANCH   4   5
HETATM    5  C   UNL     1     -11.185  12.376  68.806  1.00  0.00    -0.318 C  
BRANCH   5   6
HETATM    6  C   UNL     1     -10.210  13.226  67.985  1.00  0.00    -0.240 C  
BRANCH   6   7
HETATM    7  C   UNL     1     -10.877  13.743  66.727  1.00  0.00    -0.284 A  
HETATM    8  C   UNL     1     -12.229  13.470  66.475  1.00  0.00    -0.433 A  
HETATM    9  C   UNL     1     -12.859  14.000  65.347  1.00  0.00    -0.442 A  
HETATM   10  C   UNL     1     -10.169  14.551  65.826  1.00  0.00    -0.354 A  
HETATM   11  C   UNL     1     -12.146  14.807  64.461  1.00  0.00    -0.460 A  
HETATM   12  C   UNL     1     -10.800  15.080  64.699  1.00  0.00    -0.290 A  
ENDBRANCH   6   7
ENDBRANCH   5   6
ENDBRANCH   4   5
ENDBRANCH   3   4
BRANCH   3  13
HETATM   13  C   UNL     1     -10.515   8.825  69.128  1.00  0.00    -0.217 C  
BRANCH  13  14
HETATM   14  C   UNL     1     -10.571   8.645  67.610  1.00  0.00    -0.272 C  
BRANCH  14  15
HETATM   15  C   UNL     1      -9.197   8.763  66.944  1.00  0.00    -0.195 C  
BRANCH  15  16
HETATM   16  C   UNL     1      -9.359   9.483  65.629  1.00  0.00    -0.302 A  
HETATM   17  C   UNL     1      -9.491  11.040  63.310  1.00  0.00    -0.346 A  
HETATM   18  C   UNL     1     -10.471  11.172  64.296  1.00  0.00    -0.427 A  
HETATM   19  C   UNL     1      -8.390   9.342  64.626  1.00  0.00    -0.167 A  
HETATM   20  C   UNL     1      -8.458  10.123  63.472  1.00  0.00    -0.186 A  
HETATM   21  C   UNL     1     -10.409  10.392  65.448  1.00  0.00    -0.270 A  
ENDBRANCH  15  16
ENDBRANCH  14  15
ENDBRANCH  13  14
ENDBRANCH   3  13
ENDBRANCH   2   3
TORSDOF 9
ENDMDL
MODEL      146
REMARK 921   NORMALIZED FREE ENERGY PREDICTED BY IDOCK:   -4.33 KCAL/MOL
REMARK 922        TOTAL FREE ENERGY PREDICTED BY IDOCK:   -8.13 KCAL/MOL
REMARK 923 INTER-LIGAND FREE ENERGY PREDICTED BY IDOCK:   -6.23 KCAL/MOL
REMARK 924 INTRA-LIGAND FREE ENERGY PREDICTED BY IDOCK:   -1.89 KCAL/MOL
REMARK 927      BINDING AFFINITY PREDICTED BY RF-SCORE:    0.00 PKD
ROOT
HETATM    1  C   UNL     1     -10.601   4.714  65.567  1.00  0.00    -0.208 C  
HETATM    2  C   UNL     1      -9.794   5.732  66.365  1.00  0.00    -0.138 C  
ENDROOT
BRANCH   2   3
HETATM    3  N   UNL     1     -10.581   6.755  67.090  1.00  0.00    -0.290 NA 
BRANCH   3   4
HETATM    4  C   UNL     1     -11.016   6.277  68.417  1.00  0.00    -0.325 C  
BRANCH   4   5
HETATM    5  C   UNL     1     -10.097   5.244  69.097  1.00  0.00    -0.289 C  
BRANCH   5   6
HETATM    6  C   UNL     1      -8.947   5.861  69.900  1.00  0.00    -0.144 C  
BRANCH   6   7
HETATM    7  C   UNL     1      -9.379   6.145  71.323  1.00  0.00    -0.170 A  
HETATM    8  C   UNL     1      -8.796   7.195  72.048  1.00  0.00    -0.135 A  
HETATM    9  C   UNL     1      -9.240   7.496  73.337  1.00  0.00    -0.280 A  
HETATM   10  C   UNL     1     -10.409   5.401  71.917  1.00  0.00    -0.270 A  
HETATM   11  C   UNL     1     -10.268   6.753  73.915  1.00  0.00    -0.396 A  
HETATM   12  C   UNL     1     -10.852   5.704  73.206  1.00  0.00    -0.321 A  
ENDBRANCH   6   7
ENDBRANCH   5   6
ENDBRANCH   4   5
ENDBRANCH   3   4
BRANCH   3  13
HETATM   13  C   UNL     1      -9.800   8.005  67.209  1.00  0.00    -0.197 C  
BRANCH  13  14
HETATM   14  C   UNL     1     -10.568   9.200  67.775  1.00  0.00    -0.289 C  
BRANCH  14  15
HETATM   15  C   UNL     1     -10.016   9.682  69.120  1.00  0.00    -0.189 C  
BRANCH  15  16
HETATM   16  C   UNL     1     -11.166   9.855  70.080  1.00  0.00    -0.347 A  
HETATM   17  C   UNL     1     -13.092  10.255  72.067  1.00  0.00    -0.529 A  
HETATM   18  C   UNL     1     -12.526   8.991  71.888  1.00  0.00    -0.454 A  
HETATM   19  C   UNL     1     -11.753  11.117  70.252  1.00  0.00    -0.431 A  
HETATM   20  C   UNL     1     -12.712  11.311  71.247  1.00  0.00    -0.510 A  
HETATM   21  C   UNL     1     -11.571   8.791  70.894  1.00  0.00    -0.320 A  
ENDBRANCH  15  16
ENDBRANCH  14  15
ENDBRANCH  13  14
ENDBRANCH   3  13
ENDBRANCH   2   3
TORSDOF 9
ENDMDL
MODEL      147
REMARK 921   NORMALIZED FREE ENERGY PREDICTED BY IDOCK:   -4.33 KCAL/MOL
REMARK 922        TOTAL FREE ENERGY PREDICTED BY IDOCK:   -8.13 KCAL/MOL
REMARK 923 INTER-LIGAND FREE ENERGY PREDICTED BY IDOCK:   -6.75 KCAL/MOL
REMARK 924 INTRA-LIGAND FREE ENERGY PREDICTED BY IDOCK:   -1.38 KCAL/MOL
REMARK 927      BINDING AFFINITY PREDICTED BY RF-SCORE:    0.00 PKD
ROOT
HETATM    1  C   UNL     1      -6.550   8.332  68.845  1.00  0.00    -0.053 C  
HETATM    2  C   UNL     1      -7.579   7.782  67.863  1.00  0.00    -0.116 C  
ENDROOT
BRANCH   2   3
HETATM    3  N   UNL     1      -8.431   8.789  67.190  1.00  0.00    -0.110 NA 
BRANCH   3   4
HETATM    4  C   UNL     1      -7.947   9.101  65.831  1.00  0.00    -0.106 C  
BRANCH   4   5
HETATM    5  C   UNL     1      -9.033   9.287  64.754  1.00  0.00    -0.217 C  
BRANCH   5   6
HETATM    6  C   UNL     1      -8.987  10.644  64.045  1.00  0.00    -0.210 C  
BRANCH   6   7
HETATM    7  C   UNL     1     -10.234  11.449  64.345  1.00  0.00    -0.361 A  
HETATM    8  C   UNL     1     -11.236  11.598  63.376  1.00  0.00    -0.401 A  
HETATM    9  C   UNL     1     -12.413  12.287  63.676  1.00  0.00    -0.647 A  
HETATM   10  C   UNL     1     -10.432  12.008  65.616  1.00  0.00    -0.293 A  
HETATM   11  C   UNL     1     -12.601  12.833  64.945  1.00  0.00    -0.541 A  
HETATM   12  C   UNL     1     -11.609  12.696  65.915  1.00  0.00    -0.443 A  
ENDBRANCH   6   7
ENDBRANCH   5   6
ENDBRANCH   4   5
ENDBRANCH   3   4
BRANCH   3  13
HETATM   13  C   UNL     1      -9.834   8.323  67.156  1.00  0.00    -0.217 C  
BRANCH  13  14
HETATM   14  C   UNL     1     -10.852   9.286  67.768  1.00  0.00    -0.192 C  
BRANCH  14  15
HETATM   15  C   UNL     1     -10.247  10.192  68.844  1.00  0.00    -0.213 C  
BRANCH  15  16
HETATM   16  C   UNL     1     -11.137  10.158  70.061  1.00  0.00    -0.368 A  
HETATM   17  C   UNL     1     -13.003   9.981  72.136  1.00  0.00    -0.460 A  
HETATM   18  C   UNL     1     -12.910  11.151  71.379  1.00  0.00    -0.544 A  
HETATM   19  C   UNL     1     -11.222   8.995  70.838  1.00  0.00    -0.348 A  
HETATM   20  C   UNL     1     -12.156   8.910  71.870  1.00  0.00    -0.443 A  
HETATM   21  C   UNL     1     -11.977  11.241  70.349  1.00  0.00    -0.471 A  
ENDBRANCH  15  16
ENDBRANCH  14  15
ENDBRANCH  13  14
ENDBRANCH   3  13
ENDBRANCH   2   3
TORSDOF 9
ENDMDL
MODEL      148
REMARK 921   NORMALIZED FREE ENERGY PREDICTED BY IDOCK:   -4.33 KCAL/MOL
REMARK 922        TOTAL FREE ENERGY PREDICTED BY IDOCK:   -8.12 KCAL/MOL
REMARK 923 INTER-LIGAND FREE ENERGY PREDICTED BY IDOCK:   -5.45 KCAL/MOL
REMARK 924 INTRA-LIGAND FREE ENERGY PREDICTED BY IDOCK:   -2.67 KCAL/MOL
REMARK 927      BINDING AFFINITY PREDICTED BY RF-SCORE:    0.00 PKD
ROOT
HETATM    1  C   UNL     1     -12.330  13.249  70.844  1.00  0.00    -0.413 C  
HETATM    2  C   UNL     1     -11.885  13.970  69.577  1.00  0.00    -0.325 C  
ENDROOT
BRANCH   2   3
HETATM    3  N   UNL     1     -11.727  13.123  68.372  1.00  0.00    -0.331 NA 
BRANCH   3   4
HETATM    4  C   UNL     1     -11.607  13.929  67.142  1.00  0.00    -0.364 C  
BRANCH   4   5
HETATM    5  C   UNL     1     -11.422  15.446  67.345  1.00  0.00    -0.197 C  
BRANCH   5   6
HETATM    6  C   UNL     1     -10.449  16.096  66.356  1.00  0.00    -0.304 C  
BRANCH   6   7
HETATM    7  C   UNL     1     -10.091  17.499  66.800  1.00  0.00    -0.320 A  
HETATM    8  C   UNL     1     -10.680  18.055  67.945  1.00  0.00    -0.329 A  
HETATM    9  C   UNL     1     -10.302  19.325  68.388  1.00  0.00    -0.435 A  
HETATM   10  C   UNL     1      -9.124  18.241  66.106  1.00  0.00    -0.122 A  
HETATM   11  C   UNL     1      -9.335  20.050  67.694  1.00  0.00    -0.476 A  
HETATM   12  C   UNL     1      -8.748  19.509  66.551  1.00  0.00    -0.388 A  
ENDBRANCH   6   7
ENDBRANCH   5   6
ENDBRANCH   4   5
ENDBRANCH   3   4
BRANCH   3  13
HETATM   13  C   UNL     1     -10.562  12.228  68.533  1.00  0.00    -0.234 C  
BRANCH  13  14
HETATM   14  C   UNL     1      -9.408  12.483  67.562  1.00  0.00    -0.187 C  
BRANCH  14  15
HETATM   15  C   UNL     1      -8.062  12.665  68.270  1.00  0.00    -0.161 C  
BRANCH  15  16
HETATM   16  C   UNL     1      -7.695  14.127  68.243  1.00  0.00    -0.139 A  
HETATM   17  C   UNL     1      -6.798  16.771  68.391  1.00  0.00    -0.160 A  
HETATM   18  C   UNL     1      -7.804  16.326  69.252  1.00  0.00    -0.179 A  
HETATM   19  C   UNL     1      -6.700  14.586  67.368  1.00  0.00    -0.021 A  
HETATM   20  C   UNL     1      -6.254  15.906  67.448  1.00  0.00    -0.171 A  
HETATM   21  C   UNL     1      -8.255  15.011  69.174  1.00  0.00    -0.188 A  
ENDBRANCH  15  16
ENDBRANCH  14  15
ENDBRANCH  13  14
ENDBRANCH   3  13
ENDBRANCH   2   3
TORSDOF 9
ENDMDL
MODEL      149
REMARK 921   NORMALIZED FREE ENERGY PREDICTED BY IDOCK:   -4.33 KCAL/MOL
REMARK 922        TOTAL FREE ENERGY PREDICTED BY IDOCK:   -8.12 KCAL/MOL
REMARK 923 INTER-LIGAND FREE ENERGY PREDICTED BY IDOCK:   -7.33 KCAL/MOL
REMARK 924 INTRA-LIGAND FREE ENERGY PREDICTED BY IDOCK:   -0.79 KCAL/MOL
REMARK 927      BINDING AFFINITY PREDICTED BY RF-SCORE:    0.00 PKD
ROOT
HETATM    1  C   UNL     1     -11.985  15.773  71.199  1.00  0.00    -0.469 C  
HETATM    2  C   UNL     1     -11.639  14.335  70.829  1.00  0.00    -0.120 C  
ENDROOT
BRANCH   2   3
HETATM    3  N   UNL     1     -11.456  14.067  69.384  1.00  0.00    -0.276 NA 
BRANCH   3   4
HETATM    4  C   UNL     1     -10.323  14.827  68.820  1.00  0.00    -0.248 C  
BRANCH   4   5
HETATM    5  C   UNL     1      -9.891  14.436  67.394  1.00  0.00    -0.224 C  
BRANCH   5   6
HETATM    6  C   UNL     1     -10.871  14.874  66.300  1.00  0.00    -0.331 C  
BRANCH   6   7
HETATM    7  C   UNL     1     -11.084  13.762  65.295  1.00  0.00    -0.315 A  
HETATM    8  C   UNL     1     -10.248  12.636  65.290  1.00  0.00    -0.302 A  
HETATM    9  C   UNL     1     -10.486  11.583  64.404  1.00  0.00    -0.380 A  
HETATM   10  C   UNL     1     -12.157  13.814  64.392  1.00  0.00    -0.474 A  
HETATM   11  C   UNL     1     -11.558  11.643  63.516  1.00  0.00    -0.408 A  
HETATM   12  C   UNL     1     -12.393  12.760  63.508  1.00  0.00    -0.559 A  
ENDBRANCH   6   7
ENDBRANCH   5   6
ENDBRANCH   4   5
ENDBRANCH   3   4
BRANCH   3  13
HETATM   13  C   UNL     1     -11.282  12.616  69.157  1.00  0.00    -0.243 C  
BRANCH  13  14
HETATM   14  C   UNL     1     -12.193  11.714  69.992  1.00  0.00    -0.338 C  
BRANCH  14  15
HETATM   15  C   UNL     1     -11.417  10.687  70.822  1.00  0.00    -0.307 C  
BRANCH  15  16
HETATM   16  C   UNL     1     -12.277   9.461  70.998  1.00  0.00    -0.354 A  
HETATM   17  C   UNL     1     -13.775   7.181  71.612  1.00  0.00    -0.406 A  
HETATM   18  C   UNL     1     -12.478   7.050  71.110  1.00  0.00    -0.407 A  
HETATM   19  C   UNL     1     -13.586   9.585  71.484  1.00  0.00    -0.397 A  
HETATM   20  C   UNL     1     -14.328   8.444  71.791  1.00  0.00    -0.558 A  
HETATM   21  C   UNL     1     -11.735   8.185  70.799  1.00  0.00    -0.211 A  
ENDBRANCH  15  16
ENDBRANCH  14  15
ENDBRANCH  13  14
ENDBRANCH   3  13
ENDBRANCH   2   3
TORSDOF 9
ENDMDL
MODEL      150
REMARK 921   NORMALIZED FREE ENERGY PREDICTED BY IDOCK:   -4.32 KCAL/MOL
REMARK 922        TOTAL FREE ENERGY PREDICTED BY IDOCK:   -8.10 KCAL/MOL
REMARK 923 INTER-LIGAND FREE ENERGY PREDICTED BY IDOCK:   -7.48 KCAL/MOL
REMARK 924 INTRA-LIGAND FREE ENERGY PREDICTED BY IDOCK:   -0.63 KCAL/MOL
REMARK 927      BINDING AFFINITY PREDICTED BY RF-SCORE:    0.00 PKD
ROOT
HETATM    1  C   UNL     1     -13.452  12.770  72.022  1.00  0.00    -0.540 C  
HETATM    2  C   UNL     1     -13.089  11.317  71.732  1.00  0.00    -0.422 C  
ENDROOT
BRANCH   2   3
HETATM    3  N   UNL     1     -11.942  11.108  70.818  1.00  0.00    -0.338 NA 
BRANCH   3   4
HETATM    4  C   UNL     1     -11.290   9.803  71.041  1.00  0.00    -0.387 C  
BRANCH   4   5
HETATM    5  C   UNL     1     -12.220   8.645  71.454  1.00  0.00    -0.348 C  
BRANCH   5   6
HETATM    6  C   UNL     1     -11.713   7.258  71.048  1.00  0.00    -0.340 C  
BRANCH   6   7
HETATM    7  C   UNL     1     -11.106   6.540  72.235  1.00  0.00    -0.297 A  
HETATM    8  C   UNL     1     -11.015   5.141  72.251  1.00  0.00    -0.209 A  
HETATM    9  C   UNL     1     -10.398   4.484  73.318  1.00  0.00    -0.239 A  
HETATM   10  C   UNL     1     -10.573   7.266  73.311  1.00  0.00    -0.428 A  
HETATM   11  C   UNL     1      -9.867   5.217  74.378  1.00  0.00    -0.211 A  
HETATM   12  C   UNL     1      -9.957   6.608  74.376  1.00  0.00    -0.359 A  
ENDBRANCH   6   7
ENDBRANCH   5   6
ENDBRANCH   4   5
ENDBRANCH   3   4
BRANCH   3  13
HETATM   13  C   UNL     1     -12.384  11.244  69.413  1.00  0.00    -0.149 C  
BRANCH  13  14
HETATM   14  C   UNL     1     -11.439  12.037  68.509  1.00  0.00    -0.345 C  
BRANCH  14  15
HETATM   15  C   UNL     1     -10.626  11.144  67.566  1.00  0.00    -0.258 C  
BRANCH  15  16
HETATM   16  C   UNL     1     -10.971  11.507  66.143  1.00  0.00    -0.320 A  
HETATM   17  C   UNL     1     -11.423  12.414  63.537  1.00  0.00    -0.561 A  
HETATM   18  C   UNL     1     -12.244  12.849  64.580  1.00  0.00    -0.489 A  
HETATM   19  C   UNL     1     -10.163  11.059  65.089  1.00  0.00    -0.352 A  
HETATM   20  C   UNL     1     -10.391  11.516  63.791  1.00  0.00    -0.450 A  
HETATM   21  C   UNL     1     -12.023  12.392  65.877  1.00  0.00    -0.434 A  
ENDBRANCH  15  16
ENDBRANCH  14  15
ENDBRANCH  13  14
ENDBRANCH   3  13
ENDBRANCH   2   3
TORSDOF 9
ENDMDL
MODEL      151
REMARK 921   NORMALIZED FREE ENERGY PREDICTED BY IDOCK:   -4.31 KCAL/MOL
REMARK 922        TOTAL FREE ENERGY PREDICTED BY IDOCK:   -8.09 KCAL/MOL
REMARK 923 INTER-LIGAND FREE ENERGY PREDICTED BY IDOCK:   -6.50 KCAL/MOL
REMARK 924 INTRA-LIGAND FREE ENERGY PREDICTED BY IDOCK:   -1.59 KCAL/MOL
REMARK 927      BINDING AFFINITY PREDICTED BY RF-SCORE:    0.00 PKD
ROOT
HETATM    1  C   UNL     1     -12.321  12.828  65.298  1.00  0.00    -0.546 C  
HETATM    2  C   UNL     1     -11.980  13.515  66.615  1.00  0.00    -0.404 C  
ENDROOT
BRANCH   2   3
HETATM    3  N   UNL     1     -11.415  12.644  67.671  1.00  0.00    -0.313 NA 
BRANCH   3   4
HETATM    4  C   UNL     1     -12.073  12.859  68.975  1.00  0.00    -0.154 C  
BRANCH   4   5
HETATM    5  C   UNL     1     -11.553  11.999  70.143  1.00  0.00    -0.228 C  
BRANCH   5   6
HETATM    6  C   UNL     1     -12.657  11.333  70.970  1.00  0.00    -0.495 C  
BRANCH   6   7
HETATM    7  C   UNL     1     -12.373   9.857  71.154  1.00  0.00    -0.466 A  
HETATM    8  C   UNL     1     -11.058   9.373  71.103  1.00  0.00    -0.432 A  
HETATM    9  C   UNL     1     -10.792   8.022  71.335  1.00  0.00    -0.271 A  
HETATM   10  C   UNL     1     -13.414   8.960  71.436  1.00  0.00    -0.306 A  
HETATM   11  C   UNL     1     -11.834   7.142  71.620  1.00  0.00    -0.340 A  
HETATM   12  C   UNL     1     -13.146   7.610  71.668  1.00  0.00    -0.392 A  
ENDBRANCH   6   7
ENDBRANCH   5   6
ENDBRANCH   4   5
ENDBRANCH   3   4
BRANCH   3  13
HETATM   13  C   UNL     1     -11.507  11.227  67.260  1.00  0.00    -0.186 C  
BRANCH  13  14
HETATM   14  C   UNL     1     -10.200  10.439  67.348  1.00  0.00    -0.259 C  
BRANCH  14  15
HETATM   15  C   UNL     1     -10.010   9.465  66.180  1.00  0.00    -0.351 C  
BRANCH  15  16
HETATM   16  C   UNL     1      -9.974   8.060  66.725  1.00  0.00    -0.344 A  
HETATM   17  C   UNL     1     -10.088   5.377  67.504  1.00  0.00    -0.220 A  
HETATM   18  C   UNL     1     -11.015   6.291  68.011  1.00  0.00    -0.418 A  
HETATM   19  C   UNL     1      -9.035   7.141  66.235  1.00  0.00    -0.181 A  
HETATM   20  C   UNL     1      -9.098   5.803  66.625  1.00  0.00    -0.133 A  
HETATM   21  C   UNL     1     -10.954   7.628  67.627  1.00  0.00    -0.059 A  
ENDBRANCH  15  16
ENDBRANCH  14  15
ENDBRANCH  13  14
ENDBRANCH   3  13
ENDBRANCH   2   3
TORSDOF 9
ENDMDL
MODEL      152
REMARK 921   NORMALIZED FREE ENERGY PREDICTED BY IDOCK:   -4.30 KCAL/MOL
REMARK 922        TOTAL FREE ENERGY PREDICTED BY IDOCK:   -8.09 KCAL/MOL
REMARK 923 INTER-LIGAND FREE ENERGY PREDICTED BY IDOCK:   -6.87 KCAL/MOL
REMARK 924 INTRA-LIGAND FREE ENERGY PREDICTED BY IDOCK:   -1.22 KCAL/MOL
REMARK 927      BINDING AFFINITY PREDICTED BY RF-SCORE:    0.00 PKD
ROOT
HETATM    1  C   UNL     1     -12.348  14.525  71.253  1.00  0.00    -0.418 C  
HETATM    2  C   UNL     1     -12.170  14.148  69.787  1.00  0.00    -0.344 C  
ENDROOT
BRANCH   2   3
HETATM    3  N   UNL     1     -10.790  14.247  69.257  1.00  0.00    -0.241 NA 
BRANCH   3   4
HETATM    4  C   UNL     1     -10.370  13.007  68.576  1.00  0.00    -0.239 C  
BRANCH   4   5
HETATM    5  C   UNL     1     -11.494  12.009  68.237  1.00  0.00    -0.361 C  
BRANCH   5   6
HETATM    6  C   UNL     1     -10.998  10.608  67.865  1.00  0.00    -0.351 C  
BRANCH   6   7
HETATM    7  C   UNL     1     -10.892   9.732  69.095  1.00  0.00    -0.231 A  
HETATM    8  C   UNL     1     -11.171  10.253  70.367  1.00  0.00    -0.407 A  
HETATM    9  C   UNL     1     -11.134   9.428  71.493  1.00  0.00    -0.446 A  
HETATM   10  C   UNL     1     -10.570   8.372  68.976  1.00  0.00    -0.172 A  
HETATM   11  C   UNL     1     -10.819   8.077  71.361  1.00  0.00    -0.271 A  
HETATM   12  C   UNL     1     -10.533   7.549  70.102  1.00  0.00    -0.226 A  
ENDBRANCH   6   7
ENDBRANCH   5   6
ENDBRANCH   4   5
ENDBRANCH   3   4
BRANCH   3  13
HETATM   13  C   UNL     1     -10.679  15.411  68.352  1.00  0.00    -0.256 C  
BRANCH  13  14
HETATM   14  C   UNL     1     -11.465  15.295  67.045  1.00  0.00    -0.167 C  
BRANCH  14  15
HETATM   15  C   UNL     1     -10.574  15.385  65.803  1.00  0.00    -0.361 C  
BRANCH  15  16
HETATM   16  C   UNL     1     -10.859  14.198  64.917  1.00  0.00    -0.423 A  
HETATM   17  C   UNL     1     -11.548  11.883  63.507  1.00  0.00    -0.537 A  
HETATM   18  C   UNL     1     -10.370  11.919  64.258  1.00  0.00    -0.362 A  
HETATM   19  C   UNL     1     -12.029  14.162  64.146  1.00  0.00    -0.421 A  
HETATM   20  C   UNL     1     -12.370  13.003  63.447  1.00  0.00    -0.478 A  
HETATM   21  C   UNL     1     -10.025  13.074  64.955  1.00  0.00    -0.151 A  
ENDBRANCH  15  16
ENDBRANCH  14  15
ENDBRANCH  13  14
ENDBRANCH   3  13
ENDBRANCH   2   3
TORSDOF 9
ENDMDL
MODEL      153
REMARK 921   NORMALIZED FREE ENERGY PREDICTED BY IDOCK:   -4.30 KCAL/MOL
REMARK 922        TOTAL FREE ENERGY PREDICTED BY IDOCK:   -8.09 KCAL/MOL
REMARK 923 INTER-LIGAND FREE ENERGY PREDICTED BY IDOCK:   -7.14 KCAL/MOL
REMARK 924 INTRA-LIGAND FREE ENERGY PREDICTED BY IDOCK:   -0.95 KCAL/MOL
REMARK 927      BINDING AFFINITY PREDICTED BY RF-SCORE:    0.00 PKD
ROOT
HETATM    1  C   UNL     1     -13.204  10.349  71.953  1.00  0.00    -0.535 C  
HETATM    2  C   UNL     1     -12.292  10.775  70.807  1.00  0.00    -0.383 C  
ENDROOT
BRANCH   2   3
HETATM    3  N   UNL     1     -11.380   9.732  70.285  1.00  0.00    -0.261 NA 
BRANCH   3   4
HETATM    4  C   UNL     1     -10.525  10.241  69.196  1.00  0.00    -0.224 C  
BRANCH   4   5
HETATM    5  C   UNL     1     -11.242  11.048  68.096  1.00  0.00    -0.364 C  
BRANCH   5   6
HETATM    6  C   UNL     1     -10.436  11.197  66.802  1.00  0.00    -0.297 C  
BRANCH   6   7
HETATM    7  C   UNL     1     -11.069  12.228  65.891  1.00  0.00    -0.360 A  
HETATM    8  C   UNL     1     -11.642  11.843  64.670  1.00  0.00    -0.320 A  
HETATM    9  C   UNL     1     -12.281  12.786  63.861  1.00  0.00    -0.543 A  
HETATM   10  C   UNL     1     -11.144  13.573  66.281  1.00  0.00    -0.308 A  
HETATM   11  C   UNL     1     -12.355  14.118  64.262  1.00  0.00    -0.398 A  
HETATM   12  C   UNL     1     -11.784  14.513  65.471  1.00  0.00    -0.343 A  
ENDBRANCH   6   7
ENDBRANCH   5   6
ENDBRANCH   4   5
ENDBRANCH   3   4
BRANCH   3  13
HETATM   13  C   UNL     1     -10.562   9.179  71.385  1.00  0.00    -0.341 C  
BRANCH  13  14
HETATM   14  C   UNL     1     -10.741   7.682  71.640  1.00  0.00    -0.243 C  
BRANCH  14  15
HETATM   15  C   UNL     1     -11.825   7.052  70.760  1.00  0.00    -0.401 C  
BRANCH  15  16
HETATM   16  C   UNL     1     -11.168   6.101  69.792  1.00  0.00    -0.494 A  
HETATM   17  C   UNL     1      -9.705   4.515  68.014  1.00  0.00    -0.192 A  
HETATM   18  C   UNL     1     -10.498   5.557  67.529  1.00  0.00    -0.269 A  
HETATM   19  C   UNL     1     -10.385   5.041  70.270  1.00  0.00    -0.299 A  
HETATM   20  C   UNL     1      -9.655   4.254  69.379  1.00  0.00    -0.267 A  
HETATM   21  C   UNL     1     -11.232   6.343  68.414  1.00  0.00    -0.297 A  
ENDBRANCH  15  16
ENDBRANCH  14  15
ENDBRANCH  13  14
ENDBRANCH   3  13
ENDBRANCH   2   3
TORSDOF 9
ENDMDL
MODEL      154
REMARK 921   NORMALIZED FREE ENERGY PREDICTED BY IDOCK:   -4.30 KCAL/MOL
REMARK 922        TOTAL FREE ENERGY PREDICTED BY IDOCK:   -8.07 KCAL/MOL
REMARK 923 INTER-LIGAND FREE ENERGY PREDICTED BY IDOCK:   -7.19 KCAL/MOL
REMARK 924 INTRA-LIGAND FREE ENERGY PREDICTED BY IDOCK:   -0.88 KCAL/MOL
REMARK 927      BINDING AFFINITY PREDICTED BY RF-SCORE:    0.00 PKD
ROOT
HETATM    1  C   UNL     1     -11.251   6.752  71.984  1.00  0.00    -0.297 C  
HETATM    2  C   UNL     1     -10.761   8.092  72.522  1.00  0.00    -0.349 C  
ENDROOT
BRANCH   2   3
HETATM    3  N   UNL     1     -10.853   9.236  71.586  1.00  0.00    -0.372 NA 
BRANCH   3   4
HETATM    4  C   UNL     1     -10.000   9.046  70.396  1.00  0.00    -0.203 C  
BRANCH   4   5
HETATM    5  C   UNL     1     -10.726   9.059  69.037  1.00  0.00    -0.163 C  
BRANCH   5   6
HETATM    6  C   UNL     1      -9.789   9.017  67.826  1.00  0.00    -0.209 C  
BRANCH   6   7
HETATM    7  C   UNL     1      -9.829   7.655  67.164  1.00  0.00    -0.265 A  
HETATM    8  C   UNL     1      -8.778   7.235  66.337  1.00  0.00    -0.152 A  
HETATM    9  C   UNL     1      -8.787   5.955  65.778  1.00  0.00    -0.145 A  
HETATM   10  C   UNL     1     -10.889   6.772  67.415  1.00  0.00    -0.417 A  
HETATM   11  C   UNL     1      -9.843   5.084  66.040  1.00  0.00    -0.206 A  
HETATM   12  C   UNL     1     -10.896   5.493  66.856  1.00  0.00    -0.224 A  
ENDBRANCH   6   7
ENDBRANCH   5   6
ENDBRANCH   4   5
ENDBRANCH   3   4
BRANCH   3  13
HETATM   13  C   UNL     1     -12.262   9.458  71.196  1.00  0.00    -0.323 C  
BRANCH  13  14
HETATM   14  C   UNL     1     -12.806  10.856  71.492  1.00  0.00    -0.560 C  
BRANCH  14  15
HETATM   15  C   UNL     1     -12.376  11.897  70.454  1.00  0.00    -0.334 C  
BRANCH  15  16
HETATM   16  C   UNL     1     -12.658  13.272  71.003  1.00  0.00    -0.408 A  
HETATM   17  C   UNL     1     -12.951  15.775  72.214  1.00  0.00    -0.523 A  
HETATM   18  C   UNL     1     -13.663  14.677  72.700  1.00  0.00    -0.545 A  
HETATM   19  C   UNL     1     -11.961  14.383  70.507  1.00  0.00    -0.395 A  
HETATM   20  C   UNL     1     -12.109  15.629  71.117  1.00  0.00    -0.454 A  
HETATM   21  C   UNL     1     -13.522  13.432  72.093  1.00  0.00    -0.646 A  
ENDBRANCH  15  16
ENDBRANCH  14  15
ENDBRANCH  13  14
ENDBRANCH   3  13
ENDBRANCH   2   3
TORSDOF 9
ENDMDL
MODEL      155
REMARK 921   NORMALIZED FREE ENERGY PREDICTED BY IDOCK:   -4.29 KCAL/MOL
REMARK 922        TOTAL FREE ENERGY PREDICTED BY IDOCK:   -8.07 KCAL/MOL
REMARK 923 INTER-LIGAND FREE ENERGY PREDICTED BY IDOCK:   -6.22 KCAL/MOL
REMARK 924 INTRA-LIGAND FREE ENERGY PREDICTED BY IDOCK:   -1.84 KCAL/MOL
REMARK 927      BINDING AFFINITY PREDICTED BY RF-SCORE:    0.00 PKD
ROOT
HETATM    1  C   UNL     1      -6.724   8.951  67.611  1.00  0.00    -0.066 C  
HETATM    2  C   UNL     1      -7.214  10.263  68.212  1.00  0.00    -0.083 C  
ENDROOT
BRANCH   2   3
HETATM    3  N   UNL     1      -8.525  10.748  67.724  1.00  0.00    -0.119 NA 
BRANCH   3   4
HETATM    4  C   UNL     1      -9.053   9.906  66.633  1.00  0.00    -0.147 C  
BRANCH   4   5
HETATM    5  C   UNL     1      -9.192  10.591  65.259  1.00  0.00    -0.238 C  
BRANCH   5   6
HETATM    6  C   UNL     1     -10.634  10.931  64.871  1.00  0.00    -0.304 C  
BRANCH   6   7
HETATM    7  C   UNL     1     -10.881  12.421  64.977  1.00  0.00    -0.331 A  
HETATM    8  C   UNL     1      -9.857  13.285  65.390  1.00  0.00    -0.128 A  
HETATM    9  C   UNL     1     -10.068  14.665  65.426  1.00  0.00    -0.403 A  
HETATM   10  C   UNL     1     -12.120  12.966  64.608  1.00  0.00    -0.474 A  
HETATM   11  C   UNL     1     -11.302  15.195  65.052  1.00  0.00    -0.381 A  
HETATM   12  C   UNL     1     -12.329  14.345  64.645  1.00  0.00    -0.435 A  
ENDBRANCH   6   7
ENDBRANCH   5   6
ENDBRANCH   4   5
ENDBRANCH   3   4
BRANCH   3  13
HETATM   13  C   UNL     1      -9.486  10.822  68.846  1.00  0.00    -0.181 C  
BRANCH  13  14
HETATM   14  C   UNL     1     -10.960  10.754  68.444  1.00  0.00    -0.299 C  
BRANCH  14  15
HETATM   15  C   UNL     1     -11.910  11.085  69.599  1.00  0.00    -0.414 C  
BRANCH  15  16
HETATM   16  C   UNL     1     -12.079  12.582  69.672  1.00  0.00    -0.272 A  
HETATM   17  C   UNL     1     -12.099  15.370  69.884  1.00  0.00    -0.382 A  
HETATM   18  C   UNL     1     -12.424  14.583  70.991  1.00  0.00    -0.412 A  
HETATM   19  C   UNL     1     -11.773  13.377  68.559  1.00  0.00    -0.392 A  
HETATM   20  C   UNL     1     -11.782  14.768  68.671  1.00  0.00    -0.356 A  
HETATM   21  C   UNL     1     -12.420  13.194  70.883  1.00  0.00    -0.407 A  
ENDBRANCH  15  16
ENDBRANCH  14  15
ENDBRANCH  13  14
ENDBRANCH   3  13
ENDBRANCH   2   3
TORSDOF 9
ENDMDL
MODEL      156
REMARK 921   NORMALIZED FREE ENERGY PREDICTED BY IDOCK:   -4.28 KCAL/MOL
REMARK 922        TOTAL FREE ENERGY PREDICTED BY IDOCK:   -8.06 KCAL/MOL
REMARK 923 INTER-LIGAND FREE ENERGY PREDICTED BY IDOCK:   -6.69 KCAL/MOL
REMARK 924 INTRA-LIGAND FREE ENERGY PREDICTED BY IDOCK:   -1.36 KCAL/MOL
REMARK 927      BINDING AFFINITY PREDICTED BY RF-SCORE:    0.00 PKD
ROOT
HETATM    1  C   UNL     1     -11.624  15.572  72.689  1.00  0.00    -0.503 C  
HETATM    2  C   UNL     1     -11.897  14.901  71.347  1.00  0.00    -0.350 C  
ENDROOT
BRANCH   2   3
HETATM    3  N   UNL     1     -12.052  15.811  70.190  1.00  0.00    -0.359 NA 
BRANCH   3   4
HETATM    4  C   UNL     1     -10.895  16.715  70.039  1.00  0.00    -0.167 C  
BRANCH   4   5
HETATM    5  C   UNL     1     -10.557  17.145  68.598  1.00  0.00    -0.352 C  
BRANCH   5   6
HETATM    6  C   UNL     1      -9.137  16.782  68.153  1.00  0.00    -0.227 C  
BRANCH   6   7
HETATM    7  C   UNL     1      -8.399  18.011  67.664  1.00  0.00    -0.238 A  
HETATM    8  C   UNL     1      -8.512  18.425  66.329  1.00  0.00    -0.218 A  
HETATM    9  C   UNL     1      -7.881  19.594  65.896  1.00  0.00    -0.295 A  
HETATM   10  C   UNL     1      -7.638  18.785  68.552  1.00  0.00    -0.357 A  
HETATM   11  C   UNL     1      -7.133  20.358  66.789  1.00  0.00    -0.319 A  
HETATM   12  C   UNL     1      -7.009  19.953  68.117  1.00  0.00    -0.331 A  
ENDBRANCH   6   7
ENDBRANCH   5   6
ENDBRANCH   4   5
ENDBRANCH   3   4
BRANCH   3  13
HETATM   13  C   UNL     1     -12.273  15.026  68.956  1.00  0.00    -0.125 C  
BRANCH  13  14
HETATM   14  C   UNL     1     -11.856  13.557  69.037  1.00  0.00    -0.385 C  
BRANCH  14  15
HETATM   15  C   UNL     1     -10.539  13.269  68.309  1.00  0.00    -0.262 C  
BRANCH  15  16
HETATM   16  C   UNL     1     -10.821  13.147  66.833  1.00  0.00    -0.278 A  
HETATM   17  C   UNL     1     -11.522  13.163  64.126  1.00  0.00    -0.449 A  
HETATM   18  C   UNL     1     -12.271  12.415  65.037  1.00  0.00    -0.465 A  
HETATM   19  C   UNL     1     -10.061  13.879  65.910  1.00  0.00    -0.331 A  
HETATM   20  C   UNL     1     -10.416  13.886  64.561  1.00  0.00    -0.334 A  
HETATM   21  C   UNL     1     -11.918  12.403  66.384  1.00  0.00    -0.346 A  
ENDBRANCH  15  16
ENDBRANCH  14  15
ENDBRANCH  13  14
ENDBRANCH   3  13
ENDBRANCH   2   3
TORSDOF 9
ENDMDL
MODEL      157
REMARK 921   NORMALIZED FREE ENERGY PREDICTED BY IDOCK:   -4.27 KCAL/MOL
REMARK 922        TOTAL FREE ENERGY PREDICTED BY IDOCK:   -8.04 KCAL/MOL
REMARK 923 INTER-LIGAND FREE ENERGY PREDICTED BY IDOCK:   -6.22 KCAL/MOL
REMARK 924 INTRA-LIGAND FREE ENERGY PREDICTED BY IDOCK:   -1.82 KCAL/MOL
REMARK 927      BINDING AFFINITY PREDICTED BY RF-SCORE:    0.00 PKD
ROOT
HETATM    1  C   UNL     1     -13.176  14.758  71.407  1.00  0.00    -0.442 C  
HETATM    2  C   UNL     1     -11.943  15.401  70.781  1.00  0.00    -0.359 C  
ENDROOT
BRANCH   2   3
HETATM    3  N   UNL     1     -11.317  14.650  69.670  1.00  0.00    -0.270 NA 
BRANCH   3   4
HETATM    4  C   UNL     1     -12.106  13.460  69.294  1.00  0.00    -0.264 C  
BRANCH   4   5
HETATM    5  C   UNL     1     -11.383  12.105  69.416  1.00  0.00    -0.311 C  
BRANCH   5   6
HETATM    6  C   UNL     1     -12.232  10.996  70.045  1.00  0.00    -0.418 C  
BRANCH   6   7
HETATM    7  C   UNL     1     -11.352   9.890  70.590  1.00  0.00    -0.413 A  
HETATM    8  C   UNL     1     -10.051   9.708  70.098  1.00  0.00    -0.311 A  
HETATM    9  C   UNL     1      -9.219   8.729  70.646  1.00  0.00    -0.233 A  
HETATM   10  C   UNL     1     -11.803   9.069  71.634  1.00  0.00    -0.431 A  
HETATM   11  C   UNL     1      -9.677   7.923  71.687  1.00  0.00    -0.207 A  
HETATM   12  C   UNL     1     -10.970   8.091  72.180  1.00  0.00    -0.357 A  
ENDBRANCH   6   7
ENDBRANCH   5   6
ENDBRANCH   4   5
ENDBRANCH   3   4
BRANCH   3  13
HETATM   13  C   UNL     1     -11.118  15.540  68.506  1.00  0.00    -0.307 C  
BRANCH  13  14
HETATM   14  C   UNL     1      -9.739  15.454  67.850  1.00  0.00    -0.207 C  
BRANCH  14  15
HETATM   15  C   UNL     1      -9.785  14.857  66.440  1.00  0.00    -0.306 C  
BRANCH  15  16
HETATM   16  C   UNL     1      -9.570  13.368  66.540  1.00  0.00    -0.277 A  
HETATM   17  C   UNL     1      -8.987  10.634  66.485  1.00  0.00    -0.169 A  
HETATM   18  C   UNL     1     -10.079  11.128  65.770  1.00  0.00    -0.299 A  
HETATM   19  C   UNL     1      -8.486  12.861  67.271  1.00  0.00    -0.197 A  
HETATM   20  C   UNL     1      -8.198  11.497  67.238  1.00  0.00    -0.155 A  
HETATM   21  C   UNL     1     -10.373  12.489  65.802  1.00  0.00    -0.288 A  
ENDBRANCH  15  16
ENDBRANCH  14  15
ENDBRANCH  13  14
ENDBRANCH   3  13
ENDBRANCH   2   3
TORSDOF 9
ENDMDL
MODEL      158
REMARK 921   NORMALIZED FREE ENERGY PREDICTED BY IDOCK:   -4.27 KCAL/MOL
REMARK 922        TOTAL FREE ENERGY PREDICTED BY IDOCK:   -8.03 KCAL/MOL
REMARK 923 INTER-LIGAND FREE ENERGY PREDICTED BY IDOCK:   -6.93 KCAL/MOL
REMARK 924 INTRA-LIGAND FREE ENERGY PREDICTED BY IDOCK:   -1.11 KCAL/MOL
REMARK 927      BINDING AFFINITY PREDICTED BY RF-SCORE:    0.00 PKD
ROOT
HETATM    1  C   UNL     1      -9.783   7.503  73.103  1.00  0.00    -0.301 C  
HETATM    2  C   UNL     1     -11.237   7.906  72.880  1.00  0.00    -0.366 C  
ENDROOT
BRANCH   2   3
HETATM    3  N   UNL     1     -11.679   7.973  71.469  1.00  0.00    -0.274 NA 
BRANCH   3   4
HETATM    4  C   UNL     1     -12.740   8.980  71.271  1.00  0.00    -0.262 C  
BRANCH   4   5
HETATM    5  C   UNL     1     -12.306  10.453  71.404  1.00  0.00    -0.500 C  
BRANCH   5   6
HETATM    6  C   UNL     1     -13.347  11.354  72.077  1.00  0.00    -0.388 C  
BRANCH   6   7
HETATM    7  C   UNL     1     -13.152  12.798  71.664  1.00  0.00    -0.428 A  
HETATM    8  C   UNL     1     -12.332  13.123  70.574  1.00  0.00    -0.380 A  
HETATM    9  C   UNL     1     -12.204  14.449  70.156  1.00  0.00    -0.401 A  
HETATM   10  C   UNL     1     -13.835  13.827  72.328  1.00  0.00    -0.679 A  
HETATM   11  C   UNL     1     -12.892  15.463  70.820  1.00  0.00    -0.524 A  
HETATM   12  C   UNL     1     -13.706  15.152  71.909  1.00  0.00    -0.577 A  
ENDBRANCH   6   7
ENDBRANCH   5   6
ENDBRANCH   4   5
ENDBRANCH   3   4
BRANCH   3  13
HETATM   13  C   UNL     1     -10.523   8.245  70.588  1.00  0.00    -0.203 C  
BRANCH  13  14
HETATM   14  C   UNL     1     -10.560   7.541  69.231  1.00  0.00    -0.215 C  
BRANCH  14  15
HETATM   15  C   UNL     1     -11.165   6.135  69.304  1.00  0.00    -0.438 C  
BRANCH  15  16
HETATM   16  C   UNL     1     -10.079   5.161  69.685  1.00  0.00    -0.332 A  
HETATM   17  C   UNL     1      -7.909   3.594  70.494  1.00  0.00    -0.047 A  
HETATM   18  C   UNL     1      -7.953   4.108  69.196  1.00  0.00    -0.060 A  
HETATM   19  C   UNL     1     -10.038   4.626  70.979  1.00  0.00    -0.246 A  
HETATM   20  C   UNL     1      -8.952   3.847  71.379  1.00  0.00    -0.159 A  
HETATM   21  C   UNL     1      -9.037   4.883  68.791  1.00  0.00    -0.147 A  
ENDBRANCH  15  16
ENDBRANCH  14  15
ENDBRANCH  13  14
ENDBRANCH   3  13
ENDBRANCH   2   3
TORSDOF 9
ENDMDL
MODEL      159
REMARK 921   NORMALIZED FREE ENERGY PREDICTED BY IDOCK:   -4.27 KCAL/MOL
REMARK 922        TOTAL FREE ENERGY PREDICTED BY IDOCK:   -8.03 KCAL/MOL
REMARK 923 INTER-LIGAND FREE ENERGY PREDICTED BY IDOCK:   -6.83 KCAL/MOL
REMARK 924 INTRA-LIGAND FREE ENERGY PREDICTED BY IDOCK:   -1.20 KCAL/MOL
REMARK 927      BINDING AFFINITY PREDICTED BY RF-SCORE:    0.00 PKD
ROOT
HETATM    1  C   UNL     1      -8.194  12.053  68.323  1.00  0.00    -0.161 C  
HETATM    2  C   UNL     1      -9.645  12.522  68.350  1.00  0.00    -0.176 C  
ENDROOT
BRANCH   2   3
HETATM    3  N   UNL     1     -10.646  11.553  67.849  1.00  0.00    -0.184 NA 
BRANCH   3   4
HETATM    4  C   UNL     1     -11.594  11.145  68.904  1.00  0.00    -0.317 C  
BRANCH   4   5
HETATM    5  C   UNL     1     -11.653  12.054  70.147  1.00  0.00    -0.228 C  
BRANCH   5   6
HETATM    6  C   UNL     1     -12.775  13.097  70.107  1.00  0.00     0.060 C  
BRANCH   6   7
HETATM    7  C   UNL     1     -12.609  14.105  71.226  1.00  0.00    -0.438 A  
HETATM    8  C   UNL     1     -11.997  15.342  70.983  1.00  0.00    -0.409 A  
HETATM    9  C   UNL     1     -11.902  16.295  72.001  1.00  0.00    -0.568 A  
HETATM   10  C   UNL     1     -13.119  13.839  72.505  1.00  0.00    -0.517 A  
HETATM   11  C   UNL     1     -12.417  16.022  73.266  1.00  0.00    -0.645 A  
HETATM   12  C   UNL     1     -13.023  14.792  73.520  1.00  0.00    -0.449 A  
ENDBRANCH   6   7
ENDBRANCH   5   6
ENDBRANCH   4   5
ENDBRANCH   3   4
BRANCH   3  13
HETATM   13  C   UNL     1     -11.362  12.122  66.687  1.00  0.00    -0.350 C  
BRANCH  13  14
HETATM   14  C   UNL     1     -11.732  13.601  66.812  1.00  0.00    -0.426 C  
BRANCH  14  15
HETATM   15  C   UNL     1     -10.995  14.488  65.804  1.00  0.00    -0.319 C  
BRANCH  15  16
HETATM   16  C   UNL     1     -10.485  15.712  66.521  1.00  0.00    -0.303 A  
HETATM   17  C   UNL     1      -9.291  17.819  67.918  1.00  0.00    -0.266 A  
HETATM   18  C   UNL     1     -10.130  16.926  68.587  1.00  0.00    -0.291 A  
HETATM   19  C   UNL     1      -9.657  16.624  65.852  1.00  0.00    -0.248 A  
HETATM   20  C   UNL     1      -9.062  17.672  66.554  1.00  0.00    -0.284 A  
HETATM   21  C   UNL     1     -10.729  15.880  67.890  1.00  0.00    -0.312 A  
ENDBRANCH  15  16
ENDBRANCH  14  15
ENDBRANCH  13  14
ENDBRANCH   3  13
ENDBRANCH   2   3
TORSDOF 9
ENDMDL
MODEL      160
REMARK 921   NORMALIZED FREE ENERGY PREDICTED BY IDOCK:   -4.25 KCAL/MOL
REMARK 922        TOTAL FREE ENERGY PREDICTED BY IDOCK:   -8.00 KCAL/MOL
REMARK 923 INTER-LIGAND FREE ENERGY PREDICTED BY IDOCK:   -6.87 KCAL/MOL
REMARK 924 INTRA-LIGAND FREE ENERGY PREDICTED BY IDOCK:   -1.13 KCAL/MOL
REMARK 927      BINDING AFFINITY PREDICTED BY RF-SCORE:    0.00 PKD
ROOT
HETATM    1  C   UNL     1      -6.970  15.214  67.353  1.00  0.00    -0.195 C  
HETATM    2  C   UNL     1      -8.466  14.920  67.332  1.00  0.00    -0.195 C  
ENDROOT
BRANCH   2   3
HETATM    3  N   UNL     1      -9.247  15.460  68.469  1.00  0.00    -0.191 NA 
BRANCH   3   4
HETATM    4  C   UNL     1      -9.101  16.924  68.593  1.00  0.00    -0.265 C  
BRANCH   4   5
HETATM    5  C   UNL     1     -10.191  17.770  67.907  1.00  0.00    -0.362 C  
BRANCH   5   6
HETATM    6  C   UNL     1      -9.800  18.293  66.522  1.00  0.00    -0.363 C  
BRANCH   6   7
HETATM    7  C   UNL     1      -8.454  18.986  66.571  1.00  0.00    -0.320 A  
HETATM    8  C   UNL     1      -7.367  18.483  65.841  1.00  0.00    -0.242 A  
HETATM    9  C   UNL     1      -6.144  19.158  65.837  1.00  0.00    -0.219 A  
HETATM   10  C   UNL     1      -8.289  20.172  67.300  1.00  0.00    -0.394 A  
HETATM   11  C   UNL     1      -5.995  20.340  66.561  1.00  0.00    -0.198 A  
HETATM   12  C   UNL     1      -7.067  20.846  67.296  1.00  0.00    -0.430 A  
ENDBRANCH   6   7
ENDBRANCH   5   6
ENDBRANCH   4   5
ENDBRANCH   3   4
BRANCH   3  13
HETATM   13  C   UNL     1     -10.669  15.080  68.332  1.00  0.00    -0.245 C  
BRANCH  13  14
HETATM   14  C   UNL     1     -10.936  13.576  68.259  1.00  0.00    -0.280 C  
BRANCH  14  15
HETATM   15  C   UNL     1     -12.166  13.229  67.415  1.00  0.00    -0.236 C  
BRANCH  15  16
HETATM   16  C   UNL     1     -11.708  12.832  66.034  1.00  0.00    -0.470 A  
HETATM   17  C   UNL     1     -11.049  11.861  63.497  1.00  0.00    -0.506 A  
HETATM   18  C   UNL     1     -10.316  11.451  64.612  1.00  0.00    -0.362 A  
HETATM   19  C   UNL     1     -12.426  13.255  64.907  1.00  0.00    -0.465 A  
HETATM   20  C   UNL     1     -12.095  12.765  63.644  1.00  0.00    -0.624 A  
HETATM   21  C   UNL     1     -10.641  11.939  65.876  1.00  0.00    -0.306 A  
ENDBRANCH  15  16
ENDBRANCH  14  15
ENDBRANCH  13  14
ENDBRANCH   3  13
ENDBRANCH   2   3
TORSDOF 9
ENDMDL
MODEL      161
REMARK 921   NORMALIZED FREE ENERGY PREDICTED BY IDOCK:   -4.24 KCAL/MOL
REMARK 922        TOTAL FREE ENERGY PREDICTED BY IDOCK:   -7.98 KCAL/MOL
REMARK 923 INTER-LIGAND FREE ENERGY PREDICTED BY IDOCK:   -7.25 KCAL/MOL
REMARK 924 INTRA-LIGAND FREE ENERGY PREDICTED BY IDOCK:   -0.74 KCAL/MOL
REMARK 927      BINDING AFFINITY PREDICTED BY RF-SCORE:    0.00 PKD
ROOT
HETATM    1  C   UNL     1     -13.366  12.249  71.990  1.00  0.00    -0.491 C  
HETATM    2  C   UNL     1     -12.977  10.834  71.574  1.00  0.00    -0.456 C  
ENDROOT
BRANCH   2   3
HETATM    3  N   UNL     1     -11.704  10.708  70.827  1.00  0.00    -0.341 NA 
BRANCH   3   4
HETATM    4  C   UNL     1     -11.080   9.384  71.020  1.00  0.00    -0.344 C  
BRANCH   4   5
HETATM    5  C   UNL     1     -12.035   8.175  70.973  1.00  0.00    -0.257 C  
BRANCH   5   6
HETATM    6  C   UNL     1     -11.853   7.188  72.130  1.00  0.00    -0.315 C  
BRANCH   6   7
HETATM    7  C   UNL     1     -11.084   5.965  71.676  1.00  0.00    -0.319 A  
HETATM    8  C   UNL     1     -10.682   5.833  70.340  1.00  0.00    -0.372 A  
HETATM    9  C   UNL     1      -9.918   4.734  69.937  1.00  0.00    -0.306 A  
HETATM   10  C   UNL     1     -10.712   4.975  72.598  1.00  0.00    -0.279 A  
HETATM   11  C   UNL     1      -9.550   3.760  70.862  1.00  0.00    -0.256 A  
HETATM   12  C   UNL     1      -9.949   3.878  72.193  1.00  0.00    -0.243 A  
ENDBRANCH   6   7
ENDBRANCH   5   6
ENDBRANCH   4   5
ENDBRANCH   3   4
BRANCH   3  13
HETATM   13  C   UNL     1     -11.931  10.980  69.391  1.00  0.00    -0.337 C  
BRANCH  13  14
HETATM   14  C   UNL     1     -11.112  12.134  68.812  1.00  0.00    -0.297 C  
BRANCH  14  15
HETATM   15  C   UNL     1     -11.933  13.413  68.622  1.00  0.00    -0.362 C  
BRANCH  15  16
HETATM   16  C   UNL     1     -11.582  14.019  67.287  1.00  0.00    -0.396 A  
HETATM   17  C   UNL     1     -10.853  14.863  64.723  1.00  0.00    -0.382 A  
HETATM   18  C   UNL     1      -9.911  14.870  65.754  1.00  0.00    -0.376 A  
HETATM   19  C   UNL     1     -12.528  14.033  66.252  1.00  0.00    -0.439 A  
HETATM   20  C   UNL     1     -12.158  14.452  64.974  1.00  0.00    -0.417 A  
HETATM   21  C   UNL     1     -10.276  14.455  67.032  1.00  0.00    -0.263 A  
ENDBRANCH  15  16
ENDBRANCH  14  15
ENDBRANCH  13  14
ENDBRANCH   3  13
ENDBRANCH   2   3
TORSDOF 9
ENDMDL
MODEL      162
REMARK 921   NORMALIZED FREE ENERGY PREDICTED BY IDOCK:   -4.23 KCAL/MOL
REMARK 922        TOTAL FREE ENERGY PREDICTED BY IDOCK:   -7.98 KCAL/MOL
REMARK 923 INTER-LIGAND FREE ENERGY PREDICTED BY IDOCK:   -7.05 KCAL/MOL
REMARK 924 INTRA-LIGAND FREE ENERGY PREDICTED BY IDOCK:   -0.93 KCAL/MOL
REMARK 927      BINDING AFFINITY PREDICTED BY RF-SCORE:    0.00 PKD
ROOT
HETATM    1  C   UNL     1      -7.178  15.051  67.426  1.00  0.00    -0.224 C  
HETATM    2  C   UNL     1      -7.742  13.862  68.197  1.00  0.00    -0.142 C  
ENDROOT
BRANCH   2   3
HETATM    3  N   UNL     1      -9.019  13.311  67.691  1.00  0.00    -0.187 NA 
BRANCH   3   4
HETATM    4  C   UNL     1      -9.043  11.836  67.743  1.00  0.00    -0.178 C  
BRANCH   4   5
HETATM    5  C   UNL     1     -10.286  11.204  68.400  1.00  0.00    -0.201 C  
BRANCH   5   6
HETATM    6  C   UNL     1      -9.979  10.364  69.643  1.00  0.00    -0.209 C  
BRANCH   6   7
HETATM    7  C   UNL     1     -11.238  10.110  70.445  1.00  0.00    -0.402 A  
HETATM    8  C   UNL     1     -11.479   8.851  71.012  1.00  0.00    -0.351 A  
HETATM    9  C   UNL     1     -12.611   8.637  71.804  1.00  0.00    -0.396 A  
HETATM   10  C   UNL     1     -12.154  11.146  70.680  1.00  0.00    -0.477 A  
HETATM   11  C   UNL     1     -13.510   9.676  72.035  1.00  0.00    -0.514 A  
HETATM   12  C   UNL     1     -13.283  10.930  71.471  1.00  0.00    -0.420 A  
ENDBRANCH   6   7
ENDBRANCH   5   6
ENDBRANCH   4   5
ENDBRANCH   3   4
BRANCH   3  13
HETATM   13  C   UNL     1     -10.153  13.885  68.447  1.00  0.00    -0.237 C  
BRANCH  13  14
HETATM   14  C   UNL     1     -10.741  15.169  67.861  1.00  0.00    -0.268 C  
BRANCH  14  15
HETATM   15  C   UNL     1     -10.695  16.347  68.839  1.00  0.00    -0.319 C  
BRANCH  15  16
HETATM   16  C   UNL     1     -10.284  17.586  68.083  1.00  0.00    -0.359 A  
HETATM   17  C   UNL     1      -9.807  19.977  66.714  1.00  0.00    -0.574 A  
HETATM   18  C   UNL     1     -10.198  18.836  66.011  1.00  0.00    -0.413 A  
HETATM   19  C   UNL     1      -9.872  18.730  68.781  1.00  0.00    -0.434 A  
HETATM   20  C   UNL     1      -9.638  19.921  68.094  1.00  0.00    -0.463 A  
HETATM   21  C   UNL     1     -10.430  17.643  66.692  1.00  0.00    -0.286 A  
ENDBRANCH  15  16
ENDBRANCH  14  15
ENDBRANCH  13  14
ENDBRANCH   3  13
ENDBRANCH   2   3
TORSDOF 9
ENDMDL
MODEL      163
REMARK 921   NORMALIZED FREE ENERGY PREDICTED BY IDOCK:   -4.23 KCAL/MOL
REMARK 922        TOTAL FREE ENERGY PREDICTED BY IDOCK:   -7.97 KCAL/MOL
REMARK 923 INTER-LIGAND FREE ENERGY PREDICTED BY IDOCK:   -5.39 KCAL/MOL
REMARK 924 INTRA-LIGAND FREE ENERGY PREDICTED BY IDOCK:   -2.58 KCAL/MOL
REMARK 927      BINDING AFFINITY PREDICTED BY RF-SCORE:    0.00 PKD
ROOT
HETATM    1  C   UNL     1     -14.278   8.552  71.542  1.00  0.00    -0.448 C  
HETATM    2  C   UNL     1     -13.002   8.713  72.360  1.00  0.00    -0.351 C  
ENDROOT
BRANCH   2   3
HETATM    3  N   UNL     1     -11.978   9.619  71.789  1.00  0.00    -0.381 NA 
BRANCH   3   4
HETATM    4  C   UNL     1     -10.724   8.907  71.478  1.00  0.00    -0.328 C  
BRANCH   4   5
HETATM    5  C   UNL     1     -10.716   8.094  70.168  1.00  0.00    -0.243 C  
BRANCH   5   6
HETATM    6  C   UNL     1      -9.330   7.592  69.750  1.00  0.00    -0.150 C  
BRANCH   6   7
HETATM    7  C   UNL     1      -9.411   6.811  68.455  1.00  0.00    -0.126 A  
HETATM    8  C   UNL     1      -8.243   6.412  67.790  1.00  0.00    -0.118 A  
HETATM    9  C   UNL     1      -8.319   5.638  66.630  1.00  0.00    -0.112 A  
HETATM   10  C   UNL     1     -10.654   6.425  67.932  1.00  0.00    -0.321 A  
HETATM   11  C   UNL     1      -9.559   5.255  66.124  1.00  0.00    -0.176 A  
HETATM   12  C   UNL     1     -10.728   5.651  66.773  1.00  0.00    -0.358 A  
ENDBRANCH   6   7
ENDBRANCH   5   6
ENDBRANCH   4   5
ENDBRANCH   3   4
BRANCH   3  13
HETATM   13  C   UNL     1     -12.514  10.294  70.588  1.00  0.00    -0.318 C  
BRANCH  13  14
HETATM   14  C   UNL     1     -11.933  11.681  70.309  1.00  0.00    -0.445 C  
BRANCH  14  15
HETATM   15  C   UNL     1     -11.813  11.988  68.813  1.00  0.00    -0.358 C  
BRANCH  15  16
HETATM   16  C   UNL     1     -10.661  11.195  68.248  1.00  0.00    -0.234 A  
HETATM   17  C   UNL     1      -8.472   9.963  67.021  1.00  0.00    -0.121 A  
HETATM   18  C   UNL     1      -9.756   9.783  66.502  1.00  0.00    -0.267 A  
HETATM   19  C   UNL     1      -9.373  11.356  68.776  1.00  0.00    -0.115 A  
HETATM   20  C   UNL     1      -8.283  10.742  68.158  1.00  0.00    -0.119 A  
HETATM   21  C   UNL     1     -10.847  10.392  67.117  1.00  0.00    -0.301 A  
ENDBRANCH  15  16
ENDBRANCH  14  15
ENDBRANCH  13  14
ENDBRANCH   3  13
ENDBRANCH   2   3
TORSDOF 9
ENDMDL
MODEL      164
REMARK 921   NORMALIZED FREE ENERGY PREDICTED BY IDOCK:   -4.23 KCAL/MOL
REMARK 922        TOTAL FREE ENERGY PREDICTED BY IDOCK:   -7.97 KCAL/MOL
REMARK 923 INTER-LIGAND FREE ENERGY PREDICTED BY IDOCK:   -6.64 KCAL/MOL
REMARK 924 INTRA-LIGAND FREE ENERGY PREDICTED BY IDOCK:   -1.33 KCAL/MOL
REMARK 927      BINDING AFFINITY PREDICTED BY RF-SCORE:    0.00 PKD
ROOT
HETATM    1  C   UNL     1     -12.416   9.232  72.373  1.00  0.00    -0.307 C  
HETATM    2  C   UNL     1     -12.262   9.387  70.864  1.00  0.00    -0.227 C  
ENDROOT
BRANCH   2   3
HETATM    3  N   UNL     1     -11.150  10.256  70.414  1.00  0.00    -0.310 NA 
BRANCH   3   4
HETATM    4  C   UNL     1     -10.255   9.562  69.468  1.00  0.00    -0.213 C  
BRANCH   4   5
HETATM    5  C   UNL     1     -10.397   8.028  69.407  1.00  0.00    -0.217 C  
BRANCH   5   6
HETATM    6  C   UNL     1      -9.244   7.266  70.067  1.00  0.00    -0.148 C  
BRANCH   6   7
HETATM    7  C   UNL     1      -9.640   6.785  71.448  1.00  0.00    -0.170 A  
HETATM    8  C   UNL     1      -9.218   7.479  72.591  1.00  0.00    -0.201 A  
HETATM    9  C   UNL     1      -9.636   7.071  73.860  1.00  0.00    -0.299 A  
HETATM   10  C   UNL     1     -10.482   5.674  71.601  1.00  0.00    -0.286 A  
HETATM   11  C   UNL     1     -10.478   5.969  73.999  1.00  0.00    -0.272 A  
HETATM   12  C   UNL     1     -10.899   5.268  72.870  1.00  0.00    -0.322 A  
ENDBRANCH   6   7
ENDBRANCH   5   6
ENDBRANCH   4   5
ENDBRANCH   3   4
BRANCH   3  13
HETATM   13  C   UNL     1     -11.688  11.498  69.818  1.00  0.00    -0.353 C  
BRANCH  13  14
HETATM   14  C   UNL     1     -12.036  11.407  68.331  1.00  0.00    -0.270 C  
BRANCH  14  15
HETATM   15  C   UNL     1     -11.829  12.729  67.588  1.00  0.00    -0.396 C  
BRANCH  15  16
HETATM   16  C   UNL     1     -11.420  12.426  66.168  1.00  0.00    -0.430 A  
HETATM   17  C   UNL     1     -10.907  11.688  63.521  1.00  0.00    -0.497 A  
HETATM   18  C   UNL     1     -10.369  10.941  64.570  1.00  0.00    -0.417 A  
HETATM   19  C   UNL     1     -11.940  13.184  65.110  1.00  0.00    -0.431 A  
HETATM   20  C   UNL     1     -11.684  12.810  63.791  1.00  0.00    -0.562 A  
HETATM   21  C   UNL     1     -10.619  11.312  65.889  1.00  0.00    -0.309 A  
ENDBRANCH  15  16
ENDBRANCH  14  15
ENDBRANCH  13  14
ENDBRANCH   3  13
ENDBRANCH   2   3
TORSDOF 9
ENDMDL
MODEL      165
REMARK 921   NORMALIZED FREE ENERGY PREDICTED BY IDOCK:   -4.22 KCAL/MOL
REMARK 922        TOTAL FREE ENERGY PREDICTED BY IDOCK:   -7.95 KCAL/MOL
REMARK 923 INTER-LIGAND FREE ENERGY PREDICTED BY IDOCK:   -6.13 KCAL/MOL
REMARK 924 INTRA-LIGAND FREE ENERGY PREDICTED BY IDOCK:   -1.82 KCAL/MOL
REMARK 927      BINDING AFFINITY PREDICTED BY RF-SCORE:    0.00 PKD
ROOT
HETATM    1  C   UNL     1     -12.992  10.836  71.417  1.00  0.00    -0.535 C  
HETATM    2  C   UNL     1     -11.851   9.834  71.557  1.00  0.00    -0.399 C  
ENDROOT
BRANCH   2   3
HETATM    3  N   UNL     1     -10.696  10.041  70.653  1.00  0.00    -0.297 NA 
BRANCH   3   4
HETATM    4  C   UNL     1      -9.738   8.919  70.717  1.00  0.00    -0.227 C  
BRANCH   4   5
HETATM    5  C   UNL     1      -8.404   9.129  69.975  1.00  0.00    -0.156 C  
BRANCH   5   6
HETATM    6  C   UNL     1      -8.164   8.142  68.827  1.00  0.00    -0.125 C  
BRANCH   6   7
HETATM    7  C   UNL     1      -8.112   8.868  67.499  1.00  0.00    -0.109 A  
HETATM    8  C   UNL     1      -8.774   8.348  66.377  1.00  0.00    -0.159 A  
HETATM    9  C   UNL     1      -8.778   9.050  65.170  1.00  0.00    -0.223 A  
HETATM   10  C   UNL     1      -7.451  10.100  67.385  1.00  0.00    -0.094 A  
HETATM   11  C   UNL     1      -8.122  10.276  65.071  1.00  0.00    -0.146 A  
HETATM   12  C   UNL     1      -7.456  10.800  66.178  1.00  0.00    -0.129 A  
ENDBRANCH   6   7
ENDBRANCH   5   6
ENDBRANCH   4   5
ENDBRANCH   3   4
BRANCH   3  13
HETATM   13  C   UNL     1     -11.169  10.253  69.269  1.00  0.00    -0.228 C  
BRANCH  13  14
HETATM   14  C   UNL     1     -10.643  11.519  68.590  1.00  0.00    -0.236 C  
BRANCH  14  15
HETATM   15  C   UNL     1     -11.749  12.529  68.270  1.00  0.00    -0.390 C  
BRANCH  15  16
HETATM   16  C   UNL     1     -11.713  12.833  66.794  1.00  0.00    -0.459 A  
HETATM   17  C   UNL     1     -11.921  13.271  64.040  1.00  0.00    -0.525 A  
HETATM   18  C   UNL     1     -11.341  12.094  64.518  1.00  0.00    -0.393 A  
HETATM   19  C   UNL     1     -12.276  14.021  66.308  1.00  0.00    -0.493 A  
HETATM   20  C   UNL     1     -12.380  14.233  64.933  1.00  0.00    -0.435 A  
HETATM   21  C   UNL     1     -11.232  11.879  65.889  1.00  0.00    -0.373 A  
ENDBRANCH  15  16
ENDBRANCH  14  15
ENDBRANCH  13  14
ENDBRANCH   3  13
ENDBRANCH   2   3
TORSDOF 9
ENDMDL
MODEL      166
REMARK 921   NORMALIZED FREE ENERGY PREDICTED BY IDOCK:   -4.21 KCAL/MOL
REMARK 922        TOTAL FREE ENERGY PREDICTED BY IDOCK:   -7.95 KCAL/MOL
REMARK 923 INTER-LIGAND FREE ENERGY PREDICTED BY IDOCK:   -4.66 KCAL/MOL
REMARK 924 INTRA-LIGAND FREE ENERGY PREDICTED BY IDOCK:   -3.28 KCAL/MOL
REMARK 927      BINDING AFFINITY PREDICTED BY RF-SCORE:    0.00 PKD
ROOT
HETATM    1  C   UNL     1     -11.007   6.405  67.021  1.00  0.00    -0.463 C  
HETATM    2  C   UNL     1     -10.531   7.852  66.953  1.00  0.00    -0.318 C  
ENDROOT
BRANCH   2   3
HETATM    3  N   UNL     1      -9.546   8.258  67.982  1.00  0.00    -0.150 NA 
BRANCH   3   4
HETATM    4  C   UNL     1      -8.158   8.118  67.502  1.00  0.00    -0.123 C  
BRANCH   4   5
HETATM    5  C   UNL     1      -7.371   6.912  68.052  1.00  0.00    -0.097 C  
BRANCH   5   6
HETATM    6  C   UNL     1      -7.254   6.885  69.579  1.00  0.00    -0.081 C  
BRANCH   6   7
HETATM    7  C   UNL     1      -7.982   5.687  70.152  1.00  0.00    -0.099 A  
HETATM    8  C   UNL     1      -8.827   4.914  69.344  1.00  0.00    -0.120 A  
HETATM    9  C   UNL     1      -9.448   3.773  69.858  1.00  0.00    -0.267 A  
HETATM   10  C   UNL     1      -7.776   5.299  71.484  1.00  0.00    -0.104 A  
HETATM   11  C   UNL     1      -9.231   3.394  71.181  1.00  0.00    -0.194 A  
HETATM   12  C   UNL     1      -8.398   4.159  71.996  1.00  0.00    -0.106 A  
ENDBRANCH   6   7
ENDBRANCH   5   6
ENDBRANCH   4   5
ENDBRANCH   3   4
BRANCH   3  13
HETATM   13  C   UNL     1      -9.816   9.643  68.421  1.00  0.00    -0.153 C  
BRANCH  13  14
HETATM   14  C   UNL     1     -10.579   9.769  69.741  1.00  0.00    -0.285 C  
BRANCH  14  15
HETATM   15  C   UNL     1      -9.724   9.413  70.961  1.00  0.00    -0.293 C  
BRANCH  15  16
HETATM   16  C   UNL     1     -10.249   8.132  71.560  1.00  0.00    -0.261 A  
HETATM   17  C   UNL     1     -11.459   5.920  72.769  1.00  0.00    -0.274 A  
HETATM   18  C   UNL     1     -10.554   6.701  73.490  1.00  0.00    -0.334 A  
HETATM   19  C   UNL     1     -11.144   7.333  70.836  1.00  0.00    -0.284 A  
HETATM   20  C   UNL     1     -11.747   6.232  71.444  1.00  0.00    -0.316 A  
HETATM   21  C   UNL     1      -9.947   7.800  72.886  1.00  0.00    -0.341 A  
ENDBRANCH  15  16
ENDBRANCH  14  15
ENDBRANCH  13  14
ENDBRANCH   3  13
ENDBRANCH   2   3
TORSDOF 9
ENDMDL
MODEL      167
REMARK 921   NORMALIZED FREE ENERGY PREDICTED BY IDOCK:   -4.20 KCAL/MOL
REMARK 922        TOTAL FREE ENERGY PREDICTED BY IDOCK:   -7.92 KCAL/MOL
REMARK 923 INTER-LIGAND FREE ENERGY PREDICTED BY IDOCK:   -6.54 KCAL/MOL
REMARK 924 INTRA-LIGAND FREE ENERGY PREDICTED BY IDOCK:   -1.38 KCAL/MOL
REMARK 927      BINDING AFFINITY PREDICTED BY RF-SCORE:    0.00 PKD
ROOT
HETATM    1  C   UNL     1     -12.482  11.924  63.219  1.00  0.00    -0.506 C  
HETATM    2  C   UNL     1     -11.123  12.444  63.676  1.00  0.00    -0.473 C  
ENDROOT
BRANCH   2   3
HETATM    3  N   UNL     1     -11.094  13.087  65.010  1.00  0.00    -0.287 NA 
BRANCH   3   4
HETATM    4  C   UNL     1     -11.466  14.514  64.943  1.00  0.00    -0.396 C  
BRANCH   4   5
HETATM    5  C   UNL     1     -10.299  15.519  64.993  1.00  0.00    -0.327 C  
BRANCH   5   6
HETATM    6  C   UNL     1      -9.275  15.235  66.096  1.00  0.00    -0.345 C  
BRANCH   6   7
HETATM    7  C   UNL     1      -9.890  15.437  67.464  1.00  0.00    -0.217 A  
HETATM    8  C   UNL     1     -10.870  16.419  67.667  1.00  0.00    -0.280 A  
HETATM    9  C   UNL     1     -11.482  16.561  68.914  1.00  0.00    -0.131 A  
HETATM   10  C   UNL     1      -9.532  14.605  68.536  1.00  0.00    -0.216 A  
HETATM   11  C   UNL     1     -11.122  15.725  69.970  1.00  0.00    -0.348 A  
HETATM   12  C   UNL     1     -10.145  14.748  69.782  1.00  0.00     0.059 A  
ENDBRANCH   6   7
ENDBRANCH   5   6
ENDBRANCH   4   5
ENDBRANCH   3   4
BRANCH   3  13
HETATM   13  C   UNL     1     -11.975  12.354  65.944  1.00  0.00    -0.367 C  
BRANCH  13  14
HETATM   14  C   UNL     1     -11.251  11.500  66.986  1.00  0.00    -0.365 C  
BRANCH  14  15
HETATM   15  C   UNL     1     -11.699  11.799  68.420  1.00  0.00    -0.389 C  
BRANCH  15  16
HETATM   16  C   UNL     1     -11.156  10.726  69.329  1.00  0.00    -0.312 A  
HETATM   17  C   UNL     1     -10.090   8.956  71.213  1.00  0.00    -0.365 A  
HETATM   18  C   UNL     1      -9.263   9.520  70.239  1.00  0.00    -0.303 A  
HETATM   19  C   UNL     1     -11.984  10.140  70.296  1.00  0.00    -0.315 A  
HETATM   20  C   UNL     1     -11.447   9.260  71.236  1.00  0.00    -0.418 A  
HETATM   21  C   UNL     1      -9.796  10.397  69.297  1.00  0.00    -0.243 A  
ENDBRANCH  15  16
ENDBRANCH  14  15
ENDBRANCH  13  14
ENDBRANCH   3  13
ENDBRANCH   2   3
TORSDOF 9
ENDMDL
MODEL      168
REMARK 921   NORMALIZED FREE ENERGY PREDICTED BY IDOCK:   -4.19 KCAL/MOL
REMARK 922        TOTAL FREE ENERGY PREDICTED BY IDOCK:   -7.92 KCAL/MOL
REMARK 923 INTER-LIGAND FREE ENERGY PREDICTED BY IDOCK:   -7.04 KCAL/MOL
REMARK 924 INTRA-LIGAND FREE ENERGY PREDICTED BY IDOCK:   -0.88 KCAL/MOL
REMARK 927      BINDING AFFINITY PREDICTED BY RF-SCORE:    0.00 PKD
ROOT
HETATM    1  C   UNL     1     -12.025  13.876  69.633  1.00  0.00    -0.399 C  
HETATM    2  C   UNL     1     -11.923  14.041  68.121  1.00  0.00    -0.347 C  
ENDROOT
BRANCH   2   3
HETATM    3  N   UNL     1     -10.910  13.199  67.445  1.00  0.00    -0.253 NA 
BRANCH   3   4
HETATM    4  C   UNL     1      -9.778  13.998  66.937  1.00  0.00    -0.271 C  
BRANCH   4   5
HETATM    5  C   UNL     1     -10.146  15.316  66.229  1.00  0.00    -0.297 C  
BRANCH   5   6
HETATM    6  C   UNL     1      -9.003  16.334  66.166  1.00  0.00    -0.374 C  
BRANCH   6   7
HETATM    7  C   UNL     1      -9.398  17.628  66.847  1.00  0.00    -0.268 A  
HETATM    8  C   UNL     1      -8.618  18.152  67.887  1.00  0.00    -0.259 A  
HETATM    9  C   UNL     1      -8.949  19.377  68.471  1.00  0.00    -0.418 A  
HETATM   10  C   UNL     1     -10.517  18.351  66.408  1.00  0.00    -0.412 A  
HETATM   11  C   UNL     1     -10.059  20.089  68.023  1.00  0.00    -0.557 A  
HETATM   12  C   UNL     1     -10.846  19.575  66.993  1.00  0.00    -0.542 A  
ENDBRANCH   6   7
ENDBRANCH   5   6
ENDBRANCH   4   5
ENDBRANCH   3   4
BRANCH   3  13
HETATM   13  C   UNL     1     -10.439  12.140  68.363  1.00  0.00    -0.231 C  
BRANCH  13  14
HETATM   14  C   UNL     1      -9.658  11.005  67.700  1.00  0.00    -0.181 C  
BRANCH  14  15
HETATM   15  C   UNL     1     -10.503  10.196  66.712  1.00  0.00    -0.270 C  
BRANCH  15  16
HETATM   16  C   UNL     1      -9.990  10.450  65.317  1.00  0.00    -0.376 A  
HETATM   17  C   UNL     1      -9.240  10.714  62.636  1.00  0.00    -0.331 A  
HETATM   18  C   UNL     1      -8.585   9.793  63.456  1.00  0.00    -0.204 A  
HETATM   19  C   UNL     1     -10.630  11.387  64.493  1.00  0.00    -0.390 A  
HETATM   20  C   UNL     1     -10.254  11.513  63.155  1.00  0.00    -0.389 A  
HETATM   21  C   UNL     1      -8.955   9.666  64.793  1.00  0.00    -0.268 A  
ENDBRANCH  15  16
ENDBRANCH  14  15
ENDBRANCH  13  14
ENDBRANCH   3  13
ENDBRANCH   2   3
TORSDOF 9
ENDMDL
MODEL      169
REMARK 921   NORMALIZED FREE ENERGY PREDICTED BY IDOCK:   -4.19 KCAL/MOL
REMARK 922        TOTAL FREE ENERGY PREDICTED BY IDOCK:   -7.90 KCAL/MOL
REMARK 923 INTER-LIGAND FREE ENERGY PREDICTED BY IDOCK:   -7.09 KCAL/MOL
REMARK 924 INTRA-LIGAND FREE ENERGY PREDICTED BY IDOCK:   -0.81 KCAL/MOL
REMARK 927      BINDING AFFINITY PREDICTED BY RF-SCORE:    0.00 PKD
ROOT
HETATM    1  C   UNL     1     -13.947   9.157  72.137  1.00  0.00    -0.466 C  
HETATM    2  C   UNL     1     -12.528   8.604  72.221  1.00  0.00    -0.395 C  
ENDROOT
BRANCH   2   3
HETATM    3  N   UNL     1     -11.502   9.336  71.444  1.00  0.00    -0.339 NA 
BRANCH   3   4
HETATM    4  C   UNL     1     -10.963   8.521  70.337  1.00  0.00    -0.238 C  
BRANCH   4   5
HETATM    5  C   UNL     1     -11.489   7.076  70.245  1.00  0.00    -0.333 C  
BRANCH   5   6
HETATM    6  C   UNL     1     -10.471   6.072  69.694  1.00  0.00    -0.325 C  
BRANCH   6   7
HETATM    7  C   UNL     1     -10.203   4.973  70.700  1.00  0.00    -0.306 A  
HETATM    8  C   UNL     1     -10.552   5.141  72.048  1.00  0.00    -0.266 A  
HETATM    9  C   UNL     1     -10.362   4.102  72.962  1.00  0.00    -0.239 A  
HETATM   10  C   UNL     1      -9.655   3.749  70.289  1.00  0.00    -0.257 A  
HETATM   11  C   UNL     1      -9.823   2.888  72.540  1.00  0.00    -0.220 A  
HETATM   12  C   UNL     1      -9.467   2.712  71.204  1.00  0.00    -0.223 A  
ENDBRANCH   6   7
ENDBRANCH   5   6
ENDBRANCH   4   5
ENDBRANCH   3   4
BRANCH   3  13
HETATM   13  C   UNL     1     -12.062  10.608  70.939  1.00  0.00    -0.385 C  
BRANCH  13  14
HETATM   14  C   UNL     1     -11.431  11.127  69.646  1.00  0.00    -0.383 C  
BRANCH  14  15
HETATM   15  C   UNL     1     -11.857  12.559  69.307  1.00  0.00    -0.360 C  
BRANCH  15  16
HETATM   16  C   UNL     1     -11.687  12.775  67.825  1.00  0.00    -0.412 A  
HETATM   17  C   UNL     1     -11.648  13.061  65.043  1.00  0.00    -0.359 A  
HETATM   18  C   UNL     1     -11.166  11.890  65.631  1.00  0.00    -0.360 A  
HETATM   19  C   UNL     1     -12.150  13.956  67.229  1.00  0.00    -0.403 A  
HETATM   20  C   UNL     1     -12.132  14.093  65.841  1.00  0.00    -0.441 A  
HETATM   21  C   UNL     1     -11.180  11.750  67.017  1.00  0.00    -0.382 A  
ENDBRANCH  15  16
ENDBRANCH  14  15
ENDBRANCH  13  14
ENDBRANCH   3  13
ENDBRANCH   2   3
TORSDOF 9
ENDMDL
MODEL      170
REMARK 921   NORMALIZED FREE ENERGY PREDICTED BY IDOCK:   -4.18 KCAL/MOL
REMARK 922        TOTAL FREE ENERGY PREDICTED BY IDOCK:   -7.90 KCAL/MOL
REMARK 923 INTER-LIGAND FREE ENERGY PREDICTED BY IDOCK:   -7.28 KCAL/MOL
REMARK 924 INTRA-LIGAND FREE ENERGY PREDICTED BY IDOCK:   -0.63 KCAL/MOL
REMARK 927      BINDING AFFINITY PREDICTED BY RF-SCORE:    0.00 PKD
ROOT
HETATM    1  C   UNL     1     -12.481  11.814  63.455  1.00  0.00    -0.504 C  
HETATM    2  C   UNL     1     -11.264  12.708  63.663  1.00  0.00    -0.466 C  
ENDROOT
BRANCH   2   3
HETATM    3  N   UNL     1     -11.028  13.167  65.051  1.00  0.00    -0.293 NA 
BRANCH   3   4
HETATM    4  C   UNL     1     -11.603  14.504  65.295  1.00  0.00    -0.359 C  
BRANCH   4   5
HETATM    5  C   UNL     1     -10.607  15.681  65.273  1.00  0.00    -0.448 C  
BRANCH   5   6
HETATM    6  C   UNL     1      -9.871  15.903  66.598  1.00  0.00    -0.267 C  
BRANCH   6   7
HETATM    7  C   UNL     1      -9.681  17.382  66.865  1.00  0.00    -0.286 A  
HETATM    8  C   UNL     1     -10.763  18.267  66.769  1.00  0.00    -0.247 A  
HETATM    9  C   UNL     1     -10.600  19.620  67.077  1.00  0.00    -0.602 A  
HETATM   10  C   UNL     1      -8.432  17.878  67.267  1.00  0.00    -0.242 A  
HETATM   11  C   UNL     1      -9.356  20.101  67.481  1.00  0.00    -0.507 A  
HETATM   12  C   UNL     1      -8.270  19.230  67.574  1.00  0.00    -0.320 A  
ENDBRANCH   6   7
ENDBRANCH   5   6
ENDBRANCH   4   5
ENDBRANCH   3   4
BRANCH   3  13
HETATM   13  C   UNL     1     -11.566  12.178  66.009  1.00  0.00    -0.358 C  
BRANCH  13  14
HETATM   14  C   UNL     1     -10.586  11.083  66.432  1.00  0.00    -0.308 C  
BRANCH  14  15
HETATM   15  C   UNL     1     -10.591  10.827  67.942  1.00  0.00    -0.258 C  
BRANCH  15  16
HETATM   16  C   UNL     1     -10.556   9.339  68.180  1.00  0.00    -0.248 A  
HETATM   17  C   UNL     1     -10.794   6.586  68.612  1.00  0.00    -0.357 A  
HETATM   18  C   UNL     1     -10.743   7.462  69.699  1.00  0.00    -0.245 A  
HETATM   19  C   UNL     1     -10.588   8.453  67.094  1.00  0.00    -0.326 A  
HETATM   20  C   UNL     1     -10.709   7.081  67.315  1.00  0.00    -0.412 A  
HETATM   21  C   UNL     1     -10.618   8.832  69.484  1.00  0.00    -0.224 A  
ENDBRANCH  15  16
ENDBRANCH  14  15
ENDBRANCH  13  14
ENDBRANCH   3  13
ENDBRANCH   2   3
TORSDOF 9
ENDMDL
MODEL      171
REMARK 921   NORMALIZED FREE ENERGY PREDICTED BY IDOCK:   -4.17 KCAL/MOL
REMARK 922        TOTAL FREE ENERGY PREDICTED BY IDOCK:   -7.88 KCAL/MOL
REMARK 923 INTER-LIGAND FREE ENERGY PREDICTED BY IDOCK:   -6.73 KCAL/MOL
REMARK 924 INTRA-LIGAND FREE ENERGY PREDICTED BY IDOCK:   -1.15 KCAL/MOL
REMARK 927      BINDING AFFINITY PREDICTED BY RF-SCORE:    0.00 PKD
ROOT
HETATM    1  C   UNL     1      -8.453   9.161  65.275  1.00  0.00    -0.169 C  
HETATM    2  C   UNL     1      -9.555  10.215  65.270  1.00  0.00    -0.277 C  
ENDROOT
BRANCH   2   3
HETATM    3  N   UNL     1      -9.977  10.715  66.599  1.00  0.00    -0.205 NA 
BRANCH   3   4
HETATM    4  C   UNL     1      -8.950  10.473  67.631  1.00  0.00    -0.138 C  
BRANCH   4   5
HETATM    5  C   UNL     1      -9.465  10.336  69.077  1.00  0.00    -0.206 C  
BRANCH   5   6
HETATM    6  C   UNL     1     -10.899   9.807  69.183  1.00  0.00    -0.231 C  
BRANCH   6   7
HETATM    7  C   UNL     1     -11.686  10.594  70.210  1.00  0.00    -0.433 A  
HETATM    8  C   UNL     1     -11.853  11.979  70.071  1.00  0.00    -0.392 A  
HETATM    9  C   UNL     1     -12.632  12.693  70.985  1.00  0.00    -0.354 A  
HETATM   10  C   UNL     1     -12.308   9.941  71.284  1.00  0.00    -0.478 A  
HETATM   11  C   UNL     1     -13.250  12.032  72.044  1.00  0.00    -0.481 A  
HETATM   12  C   UNL     1     -13.086  10.656  72.197  1.00  0.00    -0.382 A  
ENDBRANCH   6   7
ENDBRANCH   5   6
ENDBRANCH   4   5
ENDBRANCH   3   4
BRANCH   3  13
HETATM   13  C   UNL     1     -10.313  12.152  66.515  1.00  0.00    -0.213 C  
BRANCH  13  14
HETATM   14  C   UNL     1     -11.556  12.481  65.686  1.00  0.00    -0.435 C  
BRANCH  14  15
HETATM   15  C   UNL     1     -12.378  13.631  66.273  1.00  0.00    -0.464 C  
BRANCH  15  16
HETATM   16  C   UNL     1     -11.454  14.788  66.562  1.00  0.00    -0.328 A  
HETATM   17  C   UNL     1      -9.988  17.106  67.105  1.00  0.00    -0.283 A  
HETATM   18  C   UNL     1     -10.227  16.725  65.782  1.00  0.00    -0.311 A  
HETATM   19  C   UNL     1     -11.193  15.165  67.886  1.00  0.00    -0.334 A  
HETATM   20  C   UNL     1     -10.464  16.324  68.152  1.00  0.00    -0.289 A  
HETATM   21  C   UNL     1     -10.952  15.567  65.512  1.00  0.00    -0.331 A  
ENDBRANCH  15  16
ENDBRANCH  14  15
ENDBRANCH  13  14
ENDBRANCH   3  13
ENDBRANCH   2   3
TORSDOF 9
ENDMDL
MODEL      172
REMARK 921   NORMALIZED FREE ENERGY PREDICTED BY IDOCK:   -4.16 KCAL/MOL
REMARK 922        TOTAL FREE ENERGY PREDICTED BY IDOCK:   -7.87 KCAL/MOL
REMARK 923 INTER-LIGAND FREE ENERGY PREDICTED BY IDOCK:   -6.81 KCAL/MOL
REMARK 924 INTRA-LIGAND FREE ENERGY PREDICTED BY IDOCK:   -1.06 KCAL/MOL
REMARK 927      BINDING AFFINITY PREDICTED BY RF-SCORE:    0.00 PKD
ROOT
HETATM    1  C   UNL     1     -12.196  11.033  70.258  1.00  0.00    -0.447 C  
HETATM    2  C   UNL     1     -11.165  11.289  69.163  1.00  0.00    -0.273 C  
ENDROOT
BRANCH   2   3
HETATM    3  N   UNL     1     -11.544  10.843  67.803  1.00  0.00    -0.561 NA 
BRANCH   3   4
HETATM    4  C   UNL     1     -11.649  11.975  66.861  1.00  0.00    -0.318 C  
BRANCH   4   5
HETATM    5  C   UNL     1     -10.949  13.279  67.292  1.00  0.00    -0.284 C  
BRANCH   5   6
HETATM    6  C   UNL     1     -11.835  14.525  67.199  1.00  0.00    -0.412 C  
BRANCH   6   7
HETATM    7  C   UNL     1     -10.998  15.785  67.279  1.00  0.00    -0.259 A  
HETATM    8  C   UNL     1     -10.241  16.208  66.177  1.00  0.00    -0.351 A  
HETATM    9  C   UNL     1      -9.520  17.403  66.231  1.00  0.00    -0.247 A  
HETATM   10  C   UNL     1     -11.014  16.578  68.436  1.00  0.00    -0.348 A  
HETATM   11  C   UNL     1      -9.548  18.186  67.384  1.00  0.00    -0.275 A  
HETATM   12  C   UNL     1     -10.293  17.772  68.488  1.00  0.00    -0.366 A  
ENDBRANCH   6   7
ENDBRANCH   5   6
ENDBRANCH   4   5
ENDBRANCH   3   4
BRANCH   3  13
HETATM   13  C   UNL     1     -10.579   9.836  67.313  1.00  0.00    -0.255 C  
BRANCH  13  14
HETATM   14  C   UNL     1      -9.804   9.096  68.404  1.00  0.00    -0.181 C  
BRANCH  14  15
HETATM   15  C   UNL     1     -10.370   7.703  68.699  1.00  0.00    -0.220 C  
BRANCH  15  16
HETATM   16  C   UNL     1     -10.742   7.632  70.158  1.00  0.00    -0.245 A  
HETATM   17  C   UNL     1     -11.239   7.267  72.885  1.00  0.00    -0.336 A  
HETATM   18  C   UNL     1     -12.028   6.611  71.938  1.00  0.00    -0.386 A  
HETATM   19  C   UNL     1      -9.966   8.303  71.114  1.00  0.00    -0.230 A  
HETATM   20  C   UNL     1     -10.217   8.116  72.474  1.00  0.00    -0.383 A  
HETATM   21  C   UNL     1     -11.784   6.798  70.580  1.00  0.00    -0.430 A  
ENDBRANCH  15  16
ENDBRANCH  14  15
ENDBRANCH  13  14
ENDBRANCH   3  13
ENDBRANCH   2   3
TORSDOF 9
ENDMDL
MODEL      173
REMARK 921   NORMALIZED FREE ENERGY PREDICTED BY IDOCK:   -4.16 KCAL/MOL
REMARK 922        TOTAL FREE ENERGY PREDICTED BY IDOCK:   -7.86 KCAL/MOL
REMARK 923 INTER-LIGAND FREE ENERGY PREDICTED BY IDOCK:   -6.18 KCAL/MOL
REMARK 924 INTRA-LIGAND FREE ENERGY PREDICTED BY IDOCK:   -1.69 KCAL/MOL
REMARK 927      BINDING AFFINITY PREDICTED BY RF-SCORE:    0.00 PKD
ROOT
HETATM    1  C   UNL     1      -7.429   9.328  69.287  1.00  0.00    -0.075 C  
HETATM    2  C   UNL     1      -8.530   9.062  70.309  1.00  0.00    -0.168 C  
ENDROOT
BRANCH   2   3
HETATM    3  N   UNL     1      -9.002   7.662  70.401  1.00  0.00    -0.151 NA 
BRANCH   3   4
HETATM    4  C   UNL     1     -10.233   7.547  71.207  1.00  0.00    -0.188 C  
BRANCH   4   5
HETATM    5  C   UNL     1     -10.812   8.869  71.747  1.00  0.00    -0.436 C  
BRANCH   5   6
HETATM    6  C   UNL     1     -12.242   9.163  71.282  1.00  0.00    -0.395 C  
BRANCH   6   7
HETATM    7  C   UNL     1     -12.433  10.646  71.040  1.00  0.00    -0.515 A  
HETATM    8  C   UNL     1     -13.122  11.436  71.971  1.00  0.00    -0.423 A  
HETATM    9  C   UNL     1     -13.242  12.815  71.776  1.00  0.00    -0.471 A  
HETATM   10  C   UNL     1     -11.874  11.261  69.910  1.00  0.00    -0.436 A  
HETATM   11  C   UNL     1     -12.677  13.415  70.653  1.00  0.00    -0.246 A  
HETATM   12  C   UNL     1     -11.995  12.638  69.717  1.00  0.00    -0.365 A  
ENDBRANCH   6   7
ENDBRANCH   5   6
ENDBRANCH   4   5
ENDBRANCH   3   4
BRANCH   3  13
HETATM   13  C   UNL     1      -9.205   7.107  69.045  1.00  0.00    -0.135 C  
BRANCH  13  14
HETATM   14  C   UNL     1     -10.531   7.482  68.382  1.00  0.00    -0.212 C  
BRANCH  14  15
HETATM   15  C   UNL     1     -10.419   7.621  66.860  1.00  0.00    -0.388 C  
BRANCH  15  16
HETATM   16  C   UNL     1     -10.062   9.048  66.531  1.00  0.00    -0.354 A  
HETATM   17  C   UNL     1      -9.578  11.666  65.677  1.00  0.00    -0.252 A  
HETATM   18  C   UNL     1      -8.740  10.630  65.260  1.00  0.00    -0.198 A  
HETATM   19  C   UNL     1     -10.887  10.096  66.962  1.00  0.00    -0.221 A  
HETATM   20  C   UNL     1     -10.643  11.400  66.531  1.00  0.00    -0.309 A  
HETATM   21  C   UNL     1      -8.978   9.327  65.690  1.00  0.00    -0.243 A  
ENDBRANCH  15  16
ENDBRANCH  14  15
ENDBRANCH  13  14
ENDBRANCH   3  13
ENDBRANCH   2   3
TORSDOF 9
ENDMDL
MODEL      174
REMARK 921   NORMALIZED FREE ENERGY PREDICTED BY IDOCK:   -4.15 KCAL/MOL
REMARK 922        TOTAL FREE ENERGY PREDICTED BY IDOCK:   -7.85 KCAL/MOL
REMARK 923 INTER-LIGAND FREE ENERGY PREDICTED BY IDOCK:   -6.89 KCAL/MOL
REMARK 924 INTRA-LIGAND FREE ENERGY PREDICTED BY IDOCK:   -0.97 KCAL/MOL
REMARK 927      BINDING AFFINITY PREDICTED BY RF-SCORE:    0.00 PKD
ROOT
HETATM    1  C   UNL     1      -9.132  12.472  66.490  1.00  0.00    -0.177 C  
HETATM    2  C   UNL     1      -8.684  11.447  67.526  1.00  0.00    -0.140 C  
ENDROOT
BRANCH   2   3
HETATM    3  N   UNL     1      -9.756  10.862  68.363  1.00  0.00    -0.169 NA 
BRANCH   3   4
HETATM    4  C   UNL     1     -11.097  11.119  67.801  1.00  0.00    -0.285 C  
BRANCH   4   5
HETATM    5  C   UNL     1     -12.006  12.051  68.625  1.00  0.00    -0.290 C  
BRANCH   5   6
HETATM    6  C   UNL     1     -11.583  12.206  70.090  1.00  0.00    -0.202 C  
BRANCH   6   7
HETATM    7  C   UNL     1     -12.433  13.247  70.787  1.00  0.00    -0.403 A  
HETATM    8  C   UNL     1     -12.410  14.584  70.364  1.00  0.00    -0.400 A  
HETATM    9  C   UNL     1     -13.242  15.530  70.967  1.00  0.00    -0.539 A  
HETATM   10  C   UNL     1     -13.300  12.879  71.826  1.00  0.00    -0.451 A  
HETATM   11  C   UNL     1     -14.103  15.152  71.995  1.00  0.00    -0.659 A  
HETATM   12  C   UNL     1     -14.130  13.826  72.427  1.00  0.00    -0.593 A  
ENDBRANCH   6   7
ENDBRANCH   5   6
ENDBRANCH   4   5
ENDBRANCH   3   4
BRANCH   3  13
HETATM   13  C   UNL     1      -9.527   9.412  68.539  1.00  0.00    -0.145 C  
BRANCH  13  14
HETATM   14  C   UNL     1     -10.550   8.695  69.421  1.00  0.00    -0.207 C  
BRANCH  14  15
HETATM   15  C   UNL     1     -10.461   9.106  70.894  1.00  0.00    -0.347 C  
BRANCH  15  16
HETATM   16  C   UNL     1     -10.616   7.875  71.749  1.00  0.00    -0.276 A  
HETATM   17  C   UNL     1     -10.616   5.527  73.268  1.00  0.00    -0.285 A  
HETATM   18  C   UNL     1     -11.007   5.491  71.927  1.00  0.00    -0.264 A  
HETATM   19  C   UNL     1     -10.245   7.907  73.101  1.00  0.00    -0.358 A  
HETATM   20  C   UNL     1     -10.244   6.732  73.853  1.00  0.00    -0.396 A  
HETATM   21  C   UNL     1     -11.013   6.662  71.173  1.00  0.00    -0.302 A  
ENDBRANCH  15  16
ENDBRANCH  14  15
ENDBRANCH  13  14
ENDBRANCH   3  13
ENDBRANCH   2   3
TORSDOF 9
ENDMDL
MODEL      175
REMARK 921   NORMALIZED FREE ENERGY PREDICTED BY IDOCK:   -4.15 KCAL/MOL
REMARK 922        TOTAL FREE ENERGY PREDICTED BY IDOCK:   -7.85 KCAL/MOL
REMARK 923 INTER-LIGAND FREE ENERGY PREDICTED BY IDOCK:   -7.22 KCAL/MOL
REMARK 924 INTRA-LIGAND FREE ENERGY PREDICTED BY IDOCK:   -0.63 KCAL/MOL
REMARK 927      BINDING AFFINITY PREDICTED BY RF-SCORE:    0.00 PKD
ROOT
HETATM    1  C   UNL     1      -7.155  14.592  69.339  1.00  0.00    -0.140 C  
HETATM    2  C   UNL     1      -8.240  14.057  68.410  1.00  0.00    -0.150 C  
ENDROOT
BRANCH   2   3
HETATM    3  N   UNL     1      -9.233  15.049  67.938  1.00  0.00    -0.180 NA 
BRANCH   3   4
HETATM    4  C   UNL     1     -10.236  14.442  67.042  1.00  0.00    -0.263 C  
BRANCH   4   5
HETATM    5  C   UNL     1     -10.258  12.902  66.998  1.00  0.00    -0.243 C  
BRANCH   5   6
HETATM    6  C   UNL     1     -11.607  12.283  67.375  1.00  0.00    -0.425 C  
BRANCH   6   7
HETATM    7  C   UNL     1     -11.474  11.416  68.610  1.00  0.00    -0.359 A  
HETATM    8  C   UNL     1     -10.460  10.451  68.696  1.00  0.00    -0.216 A  
HETATM    9  C   UNL     1     -10.299   9.697  69.861  1.00  0.00    -0.282 A  
HETATM   10  C   UNL     1     -12.325  11.605  69.708  1.00  0.00    -0.197 A  
HETATM   11  C   UNL     1     -11.147   9.898  70.948  1.00  0.00    -0.418 A  
HETATM   12  C   UNL     1     -12.163  10.851  70.871  1.00  0.00    -0.485 A  
ENDBRANCH   6   7
ENDBRANCH   5   6
ENDBRANCH   4   5
ENDBRANCH   3   4
BRANCH   3  13
HETATM   13  C   UNL     1      -9.883  15.703  69.094  1.00  0.00    -0.247 C  
BRANCH  13  14
HETATM   14  C   UNL     1     -11.354  16.067  68.891  1.00  0.00    -0.370 C  
BRANCH  14  15
HETATM   15  C   UNL     1     -12.312  14.973  69.372  1.00  0.00    -0.161 C  
BRANCH  15  16
HETATM   16  C   UNL     1     -12.491  15.111  70.863  1.00  0.00    -0.425 A  
HETATM   17  C   UNL     1     -12.818  15.665  73.584  1.00  0.00    -0.704 A  
HETATM   18  C   UNL     1     -11.536  15.509  73.053  1.00  0.00    -0.372 A  
HETATM   19  C   UNL     1     -13.776  15.248  71.407  1.00  0.00    -0.602 A  
HETATM   20  C   UNL     1     -13.934  15.527  72.765  1.00  0.00    -0.545 A  
HETATM   21  C   UNL     1     -11.374  15.227  71.699  1.00  0.00    -0.440 A  
ENDBRANCH  15  16
ENDBRANCH  14  15
ENDBRANCH  13  14
ENDBRANCH   3  13
ENDBRANCH   2   3
TORSDOF 9
ENDMDL
MODEL      176
REMARK 921   NORMALIZED FREE ENERGY PREDICTED BY IDOCK:   -4.14 KCAL/MOL
REMARK 922        TOTAL FREE ENERGY PREDICTED BY IDOCK:   -7.83 KCAL/MOL
REMARK 923 INTER-LIGAND FREE ENERGY PREDICTED BY IDOCK:   -6.67 KCAL/MOL
REMARK 924 INTRA-LIGAND FREE ENERGY PREDICTED BY IDOCK:   -1.16 KCAL/MOL
REMARK 927      BINDING AFFINITY PREDICTED BY RF-SCORE:    0.00 PKD
ROOT
HETATM    1  C   UNL     1     -11.401  15.432  64.477  1.00  0.00    -0.321 C  
HETATM    2  C   UNL     1     -10.740  14.927  65.755  1.00  0.00    -0.331 C  
ENDROOT
BRANCH   2   3
HETATM    3  N   UNL     1     -10.641  15.907  66.861  1.00  0.00    -0.314 NA 
BRANCH   3   4
HETATM    4  C   UNL     1     -10.635  17.298  66.367  1.00  0.00    -0.179 C  
BRANCH   4   5
HETATM    5  C   UNL     1      -9.633  18.251  67.048  1.00  0.00    -0.291 C  
BRANCH   5   6
HETATM    6  C   UNL     1      -9.505  18.049  68.561  1.00  0.00    -0.326 C  
BRANCH   6   7
HETATM    7  C   UNL     1      -8.156  17.458  68.911  1.00  0.00    -0.183 A  
HETATM    8  C   UNL     1      -8.034  16.097  69.222  1.00  0.00    -0.194 A  
HETATM    9  C   UNL     1      -6.779  15.541  69.483  1.00  0.00    -0.179 A  
HETATM   10  C   UNL     1      -6.999  18.251  68.871  1.00  0.00    -0.289 A  
HETATM   11  C   UNL     1      -5.637  16.337  69.435  1.00  0.00    -0.132 A  
HETATM   12  C   UNL     1      -5.746  17.694  69.132  1.00  0.00    -0.197 A  
ENDBRANCH   6   7
ENDBRANCH   5   6
ENDBRANCH   4   5
ENDBRANCH   3   4
BRANCH   3  13
HETATM   13  C   UNL     1     -11.741  15.694  67.825  1.00  0.00    -0.032 C  
BRANCH  13  14
HETATM   14  C   UNL     1     -11.952  14.243  68.261  1.00  0.00    -0.346 C  
BRANCH  14  15
HETATM   15  C   UNL     1     -11.286  13.919  69.601  1.00  0.00    -0.259 C  
BRANCH  15  16
HETATM   16  C   UNL     1     -12.047  14.619  70.699  1.00  0.00    -0.385 A  
HETATM   17  C   UNL     1     -13.326  15.723  72.927  1.00  0.00    -0.661 A  
HETATM   18  C   UNL     1     -13.940  14.695  72.208  1.00  0.00    -0.589 A  
HETATM   19  C   UNL     1     -11.446  15.665  71.414  1.00  0.00    -0.488 A  
HETATM   20  C   UNL     1     -12.087  16.210  72.526  1.00  0.00    -0.644 A  
HETATM   21  C   UNL     1     -13.305  14.149  71.095  1.00  0.00    -0.330 A  
ENDBRANCH  15  16
ENDBRANCH  14  15
ENDBRANCH  13  14
ENDBRANCH   3  13
ENDBRANCH   2   3
TORSDOF 9
ENDMDL
MODEL      177
REMARK 921   NORMALIZED FREE ENERGY PREDICTED BY IDOCK:   -4.13 KCAL/MOL
REMARK 922        TOTAL FREE ENERGY PREDICTED BY IDOCK:   -7.83 KCAL/MOL
REMARK 923 INTER-LIGAND FREE ENERGY PREDICTED BY IDOCK:   -6.98 KCAL/MOL
REMARK 924 INTRA-LIGAND FREE ENERGY PREDICTED BY IDOCK:   -0.85 KCAL/MOL
REMARK 927      BINDING AFFINITY PREDICTED BY RF-SCORE:    0.00 PKD
ROOT
HETATM    1  C   UNL     1      -9.929   8.801  66.388  1.00  0.00    -0.346 C  
HETATM    2  C   UNL     1     -10.719   9.368  67.562  1.00  0.00    -0.222 C  
ENDROOT
BRANCH   2   3
HETATM    3  N   UNL     1      -9.914   9.909  68.681  1.00  0.00    -0.159 NA 
BRANCH   3   4
HETATM    4  C   UNL     1     -10.414  11.221  69.136  1.00  0.00    -0.160 C  
BRANCH   4   5
HETATM    5  C   UNL     1     -11.823  11.612  68.649  1.00  0.00    -0.370 C  
BRANCH   5   6
HETATM    6  C   UNL     1     -11.944  13.066  68.183  1.00  0.00    -0.322 C  
BRANCH   6   7
HETATM    7  C   UNL     1     -11.901  14.013  69.364  1.00  0.00    -0.381 A  
HETATM    8  C   UNL     1     -12.525  13.673  70.573  1.00  0.00    -0.394 A  
HETATM    9  C   UNL     1     -12.430  14.519  71.680  1.00  0.00    -0.422 A  
HETATM   10  C   UNL     1     -11.187  15.217  69.286  1.00  0.00    -0.291 A  
HETATM   11  C   UNL     1     -11.713  15.710  71.592  1.00  0.00    -0.521 A  
HETATM   12  C   UNL     1     -11.093  16.062  70.393  1.00  0.00    -0.376 A  
ENDBRANCH   6   7
ENDBRANCH   5   6
ENDBRANCH   4   5
ENDBRANCH   3   4
BRANCH   3  13
HETATM   13  C   UNL     1      -9.881   8.940  69.797  1.00  0.00    -0.180 C  
BRANCH  13  14
HETATM   14  C   UNL     1     -10.477   9.443  71.112  1.00  0.00    -0.392 C  
BRANCH  14  15
HETATM   15  C   UNL     1     -11.674   8.611  71.582  1.00  0.00    -0.380 C  
BRANCH  15  16
HETATM   16  C   UNL     1     -11.161   7.416  72.346  1.00  0.00    -0.337 A  
HETATM   17  C   UNL     1     -10.436   5.250  73.959  1.00  0.00    -0.318 A  
HETATM   18  C   UNL     1      -9.879   6.510  74.190  1.00  0.00    -0.318 A  
HETATM   19  C   UNL     1     -11.700   6.145  72.106  1.00  0.00    -0.361 A  
HETATM   20  C   UNL     1     -11.337   5.068  72.916  1.00  0.00    -0.329 A  
HETATM   21  C   UNL     1     -10.236   7.588  73.383  1.00  0.00    -0.399 A  
ENDBRANCH  15  16
ENDBRANCH  14  15
ENDBRANCH  13  14
ENDBRANCH   3  13
ENDBRANCH   2   3
TORSDOF 9
ENDMDL
MODEL      178
REMARK 921   NORMALIZED FREE ENERGY PREDICTED BY IDOCK:   -4.13 KCAL/MOL
REMARK 922        TOTAL FREE ENERGY PREDICTED BY IDOCK:   -7.83 KCAL/MOL
REMARK 923 INTER-LIGAND FREE ENERGY PREDICTED BY IDOCK:   -6.34 KCAL/MOL
REMARK 924 INTRA-LIGAND FREE ENERGY PREDICTED BY IDOCK:   -1.49 KCAL/MOL
REMARK 927      BINDING AFFINITY PREDICTED BY RF-SCORE:    0.00 PKD
ROOT
HETATM    1  C   UNL     1     -13.392  11.790  71.806  1.00  0.00    -0.342 C  
HETATM    2  C   UNL     1     -12.833  10.706  70.890  1.00  0.00    -0.382 C  
ENDROOT
BRANCH   2   3
HETATM    3  N   UNL     1     -11.366  10.514  70.937  1.00  0.00    -0.237 NA 
BRANCH   3   4
HETATM    4  C   UNL     1     -11.000   9.168  71.419  1.00  0.00    -0.344 C  
BRANCH   4   5
HETATM    5  C   UNL     1      -9.522   8.768  71.247  1.00  0.00    -0.320 C  
BRANCH   5   6
HETATM    6  C   UNL     1      -9.315   7.428  70.533  1.00  0.00    -0.157 C  
BRANCH   6   7
HETATM    7  C   UNL     1      -9.359   7.610  69.030  1.00  0.00    -0.146 A  
HETATM    8  C   UNL     1      -8.241   8.098  68.339  1.00  0.00    -0.129 A  
HETATM    9  C   UNL     1      -8.262   8.205  66.946  1.00  0.00    -0.111 A  
HETATM   10  C   UNL     1     -10.497   7.236  68.301  1.00  0.00    -0.239 A  
HETATM   11  C   UNL     1      -9.397   7.825  66.232  1.00  0.00    -0.210 A  
HETATM   12  C   UNL     1     -10.516   7.344  66.909  1.00  0.00    -0.379 A  
ENDBRANCH   6   7
ENDBRANCH   5   6
ENDBRANCH   4   5
ENDBRANCH   3   4
BRANCH   3  13
HETATM   13  C   UNL     1     -10.779  10.775  69.605  1.00  0.00    -0.211 C  
BRANCH  13  14
HETATM   14  C   UNL     1     -11.775  11.219  68.532  1.00  0.00    -0.378 C  
BRANCH  14  15
HETATM   15  C   UNL     1     -11.268  10.972  67.108  1.00  0.00    -0.290 C  
BRANCH  15  16
HETATM   16  C   UNL     1     -11.621  12.165  66.256  1.00  0.00    -0.424 A  
HETATM   17  C   UNL     1     -11.982  14.446  64.679  1.00  0.00    -0.475 A  
HETATM   18  C   UNL     1     -12.071  14.538  66.070  1.00  0.00    -0.298 A  
HETATM   19  C   UNL     1     -11.553  12.076  64.859  1.00  0.00    -0.332 A  
HETATM   20  C   UNL     1     -11.730  13.218  64.077  1.00  0.00    -0.483 A  
HETATM   21  C   UNL     1     -11.898  13.401  66.855  1.00  0.00    -0.453 A  
ENDBRANCH  15  16
ENDBRANCH  14  15
ENDBRANCH  13  14
ENDBRANCH   3  13
ENDBRANCH   2   3
TORSDOF 9
ENDMDL
MODEL      179
REMARK 921   NORMALIZED FREE ENERGY PREDICTED BY IDOCK:   -4.13 KCAL/MOL
REMARK 922        TOTAL FREE ENERGY PREDICTED BY IDOCK:   -7.82 KCAL/MOL
REMARK 923 INTER-LIGAND FREE ENERGY PREDICTED BY IDOCK:   -6.60 KCAL/MOL
REMARK 924 INTRA-LIGAND FREE ENERGY PREDICTED BY IDOCK:   -1.22 KCAL/MOL
REMARK 927      BINDING AFFINITY PREDICTED BY RF-SCORE:    0.00 PKD
ROOT
HETATM    1  C   UNL     1      -8.587   3.598  66.313  1.00  0.00    -0.115 C  
HETATM    2  C   UNL     1      -9.746   4.250  67.058  1.00  0.00    -0.206 C  
ENDROOT
BRANCH   2   3
HETATM    3  N   UNL     1      -9.399   5.424  67.892  1.00  0.00    -0.110 NA 
BRANCH   3   4
HETATM    4  C   UNL     1      -8.952   6.569  67.075  1.00  0.00    -0.120 C  
BRANCH   4   5
HETATM    5  C   UNL     1     -10.037   7.601  66.709  1.00  0.00    -0.325 C  
BRANCH   5   6
HETATM    6  C   UNL     1      -9.505   8.835  65.974  1.00  0.00    -0.302 C  
BRANCH   6   7
HETATM    7  C   UNL     1     -10.218  10.086  66.442  1.00  0.00    -0.290 A  
HETATM    8  C   UNL     1     -10.484  11.132  65.545  1.00  0.00    -0.317 A  
HETATM    9  C   UNL     1     -11.198  12.257  65.963  1.00  0.00    -0.375 A  
HETATM   10  C   UNL     1     -10.677  10.194  67.763  1.00  0.00    -0.328 A  
HETATM   11  C   UNL     1     -11.653  12.350  67.277  1.00  0.00    -0.435 A  
HETATM   12  C   UNL     1     -11.390  11.319  68.178  1.00  0.00    -0.372 A  
ENDBRANCH   6   7
ENDBRANCH   5   6
ENDBRANCH   4   5
ENDBRANCH   3   4
BRANCH   3  13
HETATM   13  C   UNL     1     -10.549   5.799  68.742  1.00  0.00    -0.251 C  
BRANCH  13  14
HETATM   14  C   UNL     1     -10.190   6.526  70.038  1.00  0.00    -0.219 C  
BRANCH  14  15
HETATM   15  C   UNL     1     -11.224   6.314  71.148  1.00  0.00    -0.365 C  
BRANCH  15  16
HETATM   16  C   UNL     1     -11.899   7.631  71.437  1.00  0.00    -0.320 A  
HETATM   17  C   UNL     1     -13.218  10.085  71.678  1.00  0.00    -0.518 A  
HETATM   18  C   UNL     1     -11.846  10.053  71.419  1.00  0.00    -0.447 A  
HETATM   19  C   UNL     1     -13.271   7.671  71.717  1.00  0.00    -0.360 A  
HETATM   20  C   UNL     1     -13.926   8.898  71.833  1.00  0.00    -0.476 A  
HETATM   21  C   UNL     1     -11.188   8.830  71.305  1.00  0.00    -0.352 A  
ENDBRANCH  15  16
ENDBRANCH  14  15
ENDBRANCH  13  14
ENDBRANCH   3  13
ENDBRANCH   2   3
TORSDOF 9
ENDMDL
MODEL      180
REMARK 921   NORMALIZED FREE ENERGY PREDICTED BY IDOCK:   -4.13 KCAL/MOL
REMARK 922        TOTAL FREE ENERGY PREDICTED BY IDOCK:   -7.82 KCAL/MOL
REMARK 923 INTER-LIGAND FREE ENERGY PREDICTED BY IDOCK:   -7.12 KCAL/MOL
REMARK 924 INTRA-LIGAND FREE ENERGY PREDICTED BY IDOCK:   -0.71 KCAL/MOL
REMARK 927      BINDING AFFINITY PREDICTED BY RF-SCORE:    0.00 PKD
ROOT
HETATM    1  C   UNL     1      -9.876  11.006  65.088  1.00  0.00    -0.319 C  
HETATM    2  C   UNL     1     -10.411   9.943  66.042  1.00  0.00    -0.132 C  
ENDROOT
BRANCH   2   3
HETATM    3  N   UNL     1     -10.046  10.111  67.467  1.00  0.00    -0.190 NA 
BRANCH   3   4
HETATM    4  C   UNL     1     -10.572  11.372  68.026  1.00  0.00    -0.191 C  
BRANCH   4   5
HETATM    5  C   UNL     1     -11.896  11.263  68.808  1.00  0.00    -0.396 C  
BRANCH   5   6
HETATM    6  C   UNL     1     -11.745  11.441  70.322  1.00  0.00    -0.397 C  
BRANCH   6   7
HETATM    7  C   UNL     1     -12.398  12.729  70.779  1.00  0.00    -0.375 A  
HETATM    8  C   UNL     1     -13.248  12.739  71.894  1.00  0.00    -0.511 A  
HETATM    9  C   UNL     1     -13.800  13.938  72.351  1.00  0.00    -0.668 A  
HETATM   10  C   UNL     1     -12.118  13.940  70.129  1.00  0.00    -0.418 A  
HETATM   11  C   UNL     1     -13.509  15.136  71.701  1.00  0.00    -0.535 A  
HETATM   12  C   UNL     1     -12.670  15.137  70.587  1.00  0.00    -0.451 A  
ENDBRANCH   6   7
ENDBRANCH   5   6
ENDBRANCH   4   5
ENDBRANCH   3   4
BRANCH   3  13
HETATM   13  C   UNL     1     -10.518   8.950  68.251  1.00  0.00    -0.195 C  
BRANCH  13  14
HETATM   14  C   UNL     1      -9.753   7.648  68.006  1.00  0.00    -0.173 C  
BRANCH  14  15
HETATM   15  C   UNL     1     -10.293   6.475  68.830  1.00  0.00    -0.220 C  
BRANCH  15  16
HETATM   16  C   UNL     1     -10.731   6.992  70.177  1.00  0.00    -0.265 A  
HETATM   17  C   UNL     1     -11.618   8.208  72.533  1.00  0.00    -0.468 A  
HETATM   18  C   UNL     1     -10.280   8.322  72.150  1.00  0.00    -0.355 A  
HETATM   19  C   UNL     1     -12.068   6.864  70.578  1.00  0.00    -0.315 A  
HETATM   20  C   UNL     1     -12.506   7.475  71.753  1.00  0.00    -0.360 A  
HETATM   21  C   UNL     1      -9.837   7.711  70.980  1.00  0.00    -0.181 A  
ENDBRANCH  15  16
ENDBRANCH  14  15
ENDBRANCH  13  14
ENDBRANCH   3  13
ENDBRANCH   2   3
TORSDOF 9
ENDMDL
MODEL      181
REMARK 921   NORMALIZED FREE ENERGY PREDICTED BY IDOCK:   -4.12 KCAL/MOL
REMARK 922        TOTAL FREE ENERGY PREDICTED BY IDOCK:   -7.80 KCAL/MOL
REMARK 923 INTER-LIGAND FREE ENERGY PREDICTED BY IDOCK:   -6.19 KCAL/MOL
REMARK 924 INTRA-LIGAND FREE ENERGY PREDICTED BY IDOCK:   -1.62 KCAL/MOL
REMARK 927      BINDING AFFINITY PREDICTED BY RF-SCORE:    0.00 PKD
ROOT
HETATM    1  C   UNL     1     -10.326   7.133  73.523  1.00  0.00    -0.412 C  
HETATM    2  C   UNL     1      -9.675   7.282  72.153  1.00  0.00    -0.152 C  
ENDROOT
BRANCH   2   3
HETATM    3  N   UNL     1     -10.359   8.195  71.208  1.00  0.00    -0.195 NA 
BRANCH   3   4
HETATM    4  C   UNL     1     -11.017   7.460  70.110  1.00  0.00    -0.255 C  
BRANCH   4   5
HETATM    5  C   UNL     1     -10.522   7.787  68.688  1.00  0.00    -0.199 C  
BRANCH   5   6
HETATM    6  C   UNL     1      -9.277   8.680  68.647  1.00  0.00    -0.138 C  
BRANCH   6   7
HETATM    7  C   UNL     1      -9.088   9.274  67.267  1.00  0.00    -0.143 A  
HETATM    8  C   UNL     1     -10.186   9.461  66.416  1.00  0.00    -0.300 A  
HETATM    9  C   UNL     1     -10.019  10.067  65.168  1.00  0.00    -0.350 A  
HETATM   10  C   UNL     1      -7.821   9.700  66.843  1.00  0.00    -0.102 A  
HETATM   11  C   UNL     1      -8.756  10.491  64.760  1.00  0.00    -0.196 A  
HETATM   12  C   UNL     1      -7.655  10.305  65.596  1.00  0.00    -0.148 A  
ENDBRANCH   6   7
ENDBRANCH   5   6
ENDBRANCH   4   5
ENDBRANCH   3   4
BRANCH   3  13
HETATM   13  C   UNL     1     -11.331   9.039  71.935  1.00  0.00    -0.368 C  
BRANCH  13  14
HETATM   14  C   UNL     1     -12.427   9.661  71.068  1.00  0.00    -0.382 C  
BRANCH  14  15
HETATM   15  C   UNL     1     -12.708  11.125  71.421  1.00  0.00    -0.524 C  
BRANCH  15  16
HETATM   16  C   UNL     1     -12.250  11.993  70.276  1.00  0.00    -0.348 A  
HETATM   17  C   UNL     1     -11.693  13.639  68.085  1.00  0.00    -0.392 A  
HETATM   18  C   UNL     1     -11.764  12.254  67.917  1.00  0.00    -0.410 A  
HETATM   19  C   UNL     1     -12.157  13.382  70.441  1.00  0.00    -0.405 A  
HETATM   20  C   UNL     1     -11.882  14.199  69.344  1.00  0.00    -0.378 A  
HETATM   21  C   UNL     1     -12.035  11.434  69.010  1.00  0.00    -0.387 A  
ENDBRANCH  15  16
ENDBRANCH  14  15
ENDBRANCH  13  14
ENDBRANCH   3  13
ENDBRANCH   2   3
TORSDOF 9
ENDMDL
MODEL      182
REMARK 921   NORMALIZED FREE ENERGY PREDICTED BY IDOCK:   -4.12 KCAL/MOL
REMARK 922        TOTAL FREE ENERGY PREDICTED BY IDOCK:   -7.80 KCAL/MOL
REMARK 923 INTER-LIGAND FREE ENERGY PREDICTED BY IDOCK:   -6.71 KCAL/MOL
REMARK 924 INTRA-LIGAND FREE ENERGY PREDICTED BY IDOCK:   -1.09 KCAL/MOL
REMARK 927      BINDING AFFINITY PREDICTED BY RF-SCORE:    0.00 PKD
ROOT
HETATM    1  C   UNL     1      -7.058  12.540  67.734  1.00  0.00    -0.126 C  
HETATM    2  C   UNL     1      -8.472  12.817  68.232  1.00  0.00    -0.161 C  
ENDROOT
BRANCH   2   3
HETATM    3  N   UNL     1      -9.407  11.669  68.194  1.00  0.00    -0.182 NA 
BRANCH   3   4
HETATM    4  C   UNL     1      -9.975  11.465  66.847  1.00  0.00    -0.206 C  
BRANCH   4   5
HETATM    5  C   UNL     1     -11.505  11.611  66.731  1.00  0.00    -0.299 C  
BRANCH   5   6
HETATM    6  C   UNL     1     -11.958  12.666  65.716  1.00  0.00    -0.503 C  
BRANCH   6   7
HETATM    7  C   UNL     1     -11.448  14.038  66.104  1.00  0.00    -0.350 A  
HETATM    8  C   UNL     1     -11.662  14.537  67.397  1.00  0.00    -0.425 A  
HETATM    9  C   UNL     1     -11.136  15.776  67.772  1.00  0.00    -0.313 A  
HETATM   10  C   UNL     1     -10.704  14.805  65.195  1.00  0.00    -0.433 A  
HETATM   11  C   UNL     1     -10.393  16.526  66.862  1.00  0.00    -0.300 A  
HETATM   12  C   UNL     1     -10.179  16.042  65.572  1.00  0.00    -0.389 A  
ENDBRANCH   6   7
ENDBRANCH   5   6
ENDBRANCH   4   5
ENDBRANCH   3   4
BRANCH   3  13
HETATM   13  C   UNL     1      -8.726  10.447  68.672  1.00  0.00    -0.138 C  
BRANCH  13  14
HETATM   14  C   UNL     1      -9.428   9.718  69.819  1.00  0.00    -0.253 C  
BRANCH  14  15
HETATM   15  C   UNL     1     -10.761  10.364  70.209  1.00  0.00    -0.249 C  
BRANCH  15  16
HETATM   16  C   UNL     1     -11.629   9.320  70.866  1.00  0.00    -0.364 A  
HETATM   17  C   UNL     1     -13.379   7.358  71.818  1.00  0.00    -0.373 A  
HETATM   18  C   UNL     1     -13.717   8.708  71.930  1.00  0.00    -0.462 A  
HETATM   19  C   UNL     1     -11.286   7.964  70.776  1.00  0.00    -0.283 A  
HETATM   20  C   UNL     1     -12.164   6.989  71.250  1.00  0.00    -0.419 A  
HETATM   21  C   UNL     1     -12.843   9.686  71.461  1.00  0.00    -0.485 A  
ENDBRANCH  15  16
ENDBRANCH  14  15
ENDBRANCH  13  14
ENDBRANCH   3  13
ENDBRANCH   2   3
TORSDOF 9
ENDMDL
MODEL      183
REMARK 921   NORMALIZED FREE ENERGY PREDICTED BY IDOCK:   -4.11 KCAL/MOL
REMARK 922        TOTAL FREE ENERGY PREDICTED BY IDOCK:   -7.79 KCAL/MOL
REMARK 923 INTER-LIGAND FREE ENERGY PREDICTED BY IDOCK:   -6.92 KCAL/MOL
REMARK 924 INTRA-LIGAND FREE ENERGY PREDICTED BY IDOCK:   -0.86 KCAL/MOL
REMARK 927      BINDING AFFINITY PREDICTED BY RF-SCORE:    0.00 PKD
ROOT
HETATM    1  C   UNL     1      -9.336  15.356  66.950  1.00  0.00    -0.255 C  
HETATM    2  C   UNL     1     -10.786  14.919  66.769  1.00  0.00    -0.320 C  
ENDROOT
BRANCH   2   3
HETATM    3  N   UNL     1     -11.114  13.554  67.241  1.00  0.00    -0.280 NA 
BRANCH   3   4
HETATM    4  C   UNL     1     -11.820  13.573  68.537  1.00  0.00    -0.362 C  
BRANCH   4   5
HETATM    5  C   UNL     1     -12.118  12.197  69.163  1.00  0.00    -0.224 C  
BRANCH   5   6
HETATM    6  C   UNL     1     -12.204  12.210  70.693  1.00  0.00    -0.392 C  
BRANCH   6   7
HETATM    7  C   UNL     1     -12.231  10.798  71.240  1.00  0.00    -0.426 A  
HETATM    8  C   UNL     1     -13.356  10.323  71.929  1.00  0.00    -0.487 A  
HETATM    9  C   UNL     1     -13.405   9.002  72.378  1.00  0.00    -0.516 A  
HETATM   10  C   UNL     1     -11.155   9.927  71.017  1.00  0.00    -0.401 A  
HETATM   11  C   UNL     1     -12.332   8.143  72.144  1.00  0.00    -0.383 A  
HETATM   12  C   UNL     1     -11.205   8.606  71.466  1.00  0.00    -0.360 A  
ENDBRANCH   6   7
ENDBRANCH   5   6
ENDBRANCH   4   5
ENDBRANCH   3   4
BRANCH   3  13
HETATM   13  C   UNL     1     -11.909  12.843  66.217  1.00  0.00    -0.416 C  
BRANCH  13  14
HETATM   14  C   UNL     1     -11.092  12.039  65.204  1.00  0.00    -0.369 C  
BRANCH  14  15
HETATM   15  C   UNL     1      -9.981  11.210  65.855  1.00  0.00    -0.285 C  
BRANCH  15  16
HETATM   16  C   UNL     1      -9.473  10.209  64.849  1.00  0.00    -0.349 A  
HETATM   17  C   UNL     1      -8.279   8.520  62.967  1.00  0.00    -0.165 A  
HETATM   18  C   UNL     1      -9.083   9.579  62.543  1.00  0.00    -0.236 A  
HETATM   19  C   UNL     1      -8.681   9.131  65.269  1.00  0.00    -0.219 A  
HETATM   20  C   UNL     1      -8.085   8.293  64.326  1.00  0.00    -0.147 A  
HETATM   21  C   UNL     1      -9.683  10.417  63.480  1.00  0.00    -0.333 A  
ENDBRANCH  15  16
ENDBRANCH  14  15
ENDBRANCH  13  14
ENDBRANCH   3  13
ENDBRANCH   2   3
TORSDOF 9
ENDMDL
MODEL      184
REMARK 921   NORMALIZED FREE ENERGY PREDICTED BY IDOCK:   -4.09 KCAL/MOL
REMARK 922        TOTAL FREE ENERGY PREDICTED BY IDOCK:   -7.77 KCAL/MOL
REMARK 923 INTER-LIGAND FREE ENERGY PREDICTED BY IDOCK:   -6.59 KCAL/MOL
REMARK 924 INTRA-LIGAND FREE ENERGY PREDICTED BY IDOCK:   -1.18 KCAL/MOL
REMARK 927      BINDING AFFINITY PREDICTED BY RF-SCORE:    0.00 PKD
ROOT
HETATM    1  C   UNL     1     -12.419   8.665  72.231  1.00  0.00    -0.460 C  
HETATM    2  C   UNL     1     -11.647   8.834  70.927  1.00  0.00    -0.277 C  
ENDROOT
BRANCH   2   3
HETATM    3  N   UNL     1     -11.075  10.178  70.685  1.00  0.00    -0.323 NA 
BRANCH   3   4
HETATM    4  C   UNL     1      -9.716  10.104  70.114  1.00  0.00    -0.016 C  
BRANCH   4   5
HETATM    5  C   UNL     1      -9.036   8.722  70.166  1.00  0.00    -0.176 C  
BRANCH   5   6
HETATM    6  C   UNL     1      -8.250   8.362  68.902  1.00  0.00    -0.115 C  
BRANCH   6   7
HETATM    7  C   UNL     1      -8.995   7.330  68.082  1.00  0.00    -0.132 A  
HETATM    8  C   UNL     1      -8.383   6.116  67.740  1.00  0.00    -0.116 A  
HETATM    9  C   UNL     1      -9.094   5.139  67.038  1.00  0.00    -0.112 A  
HETATM   10  C   UNL     1     -10.328   7.548  67.704  1.00  0.00    -0.295 A  
HETATM   11  C   UNL     1     -10.419   5.364  66.673  1.00  0.00    -0.356 A  
HETATM   12  C   UNL     1     -11.037   6.570  67.003  1.00  0.00    -0.411 A  
ENDBRANCH   6   7
ENDBRANCH   5   6
ENDBRANCH   4   5
ENDBRANCH   3   4
BRANCH   3  13
HETATM   13  C   UNL     1     -11.973  10.961  69.809  1.00  0.00    -0.351 C  
BRANCH  13  14
HETATM   14  C   UNL     1     -11.520  11.079  68.353  1.00  0.00    -0.378 C  
BRANCH  14  15
HETATM   15  C   UNL     1     -11.690  12.492  67.788  1.00  0.00    -0.419 C  
BRANCH  15  16
HETATM   16  C   UNL     1     -11.553  12.431  66.287  1.00  0.00    -0.449 A  
HETATM   17  C   UNL     1     -11.550  12.148  63.505  1.00  0.00    -0.562 A  
HETATM   18  C   UNL     1     -10.856  11.234  64.301  1.00  0.00    -0.398 A  
HETATM   19  C   UNL     1     -12.232  13.356  65.482  1.00  0.00    -0.499 A  
HETATM   20  C   UNL     1     -12.229  13.209  64.094  1.00  0.00    -0.465 A  
HETATM   21  C   UNL     1     -10.852  11.378  65.686  1.00  0.00    -0.280 A  
ENDBRANCH  15  16
ENDBRANCH  14  15
ENDBRANCH  13  14
ENDBRANCH   3  13
ENDBRANCH   2   3
TORSDOF 9
ENDMDL
MODEL      185
REMARK 921   NORMALIZED FREE ENERGY PREDICTED BY IDOCK:   -4.08 KCAL/MOL
REMARK 922        TOTAL FREE ENERGY PREDICTED BY IDOCK:   -7.75 KCAL/MOL
REMARK 923 INTER-LIGAND FREE ENERGY PREDICTED BY IDOCK:   -5.18 KCAL/MOL
REMARK 924 INTRA-LIGAND FREE ENERGY PREDICTED BY IDOCK:   -2.57 KCAL/MOL
REMARK 927      BINDING AFFINITY PREDICTED BY RF-SCORE:    0.00 PKD
ROOT
HETATM    1  C   UNL     1     -10.009   4.104  65.378  1.00  0.00    -0.211 C  
HETATM    2  C   UNL     1      -9.033   5.258  65.583  1.00  0.00    -0.158 C  
ENDROOT
BRANCH   2   3
HETATM    3  N   UNL     1      -9.054   5.891  66.922  1.00  0.00    -0.118 NA 
BRANCH   3   4
HETATM    4  C   UNL     1      -8.495   5.004  67.960  1.00  0.00    -0.103 C  
BRANCH   4   5
HETATM    5  C   UNL     1      -9.168   5.078  69.345  1.00  0.00    -0.156 C  
BRANCH   5   6
HETATM    6  C   UNL     1     -10.609   5.597  69.314  1.00  0.00    -0.359 C  
BRANCH   6   7
HETATM    7  C   UNL     1     -10.739   6.866  70.131  1.00  0.00    -0.270 A  
HETATM    8  C   UNL     1     -11.946   7.177  70.774  1.00  0.00    -0.352 A  
HETATM    9  C   UNL     1     -12.045   8.315  71.579  1.00  0.00    -0.335 A  
HETATM   10  C   UNL     1      -9.638   7.717  70.306  1.00  0.00    -0.172 A  
HETATM   11  C   UNL     1     -10.942   9.150  71.749  1.00  0.00    -0.429 A  
HETATM   12  C   UNL     1      -9.739   8.853  71.110  1.00  0.00    -0.344 A  
ENDBRANCH   6   7
ENDBRANCH   5   6
ENDBRANCH   4   5
ENDBRANCH   3   4
BRANCH   3  13
HETATM   13  C   UNL     1      -8.331   7.180  66.883  1.00  0.00    -0.118 C  
BRANCH  13  14
HETATM   14  C   UNL     1      -9.106   8.342  66.260  1.00  0.00    -0.235 C  
BRANCH  14  15
HETATM   15  C   UNL     1     -10.448   8.604  66.952  1.00  0.00    -0.329 C  
BRANCH  15  16
HETATM   16  C   UNL     1     -10.459  10.022  67.462  1.00  0.00    -0.307 A  
HETATM   17  C   UNL     1     -10.335  12.549  68.654  1.00  0.00    -0.193 A  
HETATM   18  C   UNL     1     -11.440  11.725  68.877  1.00  0.00    -0.357 A  
HETATM   19  C   UNL     1      -9.362  10.862  67.226  1.00  0.00    -0.168 A  
HETATM   20  C   UNL     1      -9.303  12.121  67.825  1.00  0.00    -0.193 A  
HETATM   21  C   UNL     1     -11.505  10.469  68.279  1.00  0.00    -0.272 A  
ENDBRANCH  15  16
ENDBRANCH  14  15
ENDBRANCH  13  14
ENDBRANCH   3  13
ENDBRANCH   2   3
TORSDOF 9
ENDMDL
MODEL      186
REMARK 921   NORMALIZED FREE ENERGY PREDICTED BY IDOCK:   -4.07 KCAL/MOL
REMARK 922        TOTAL FREE ENERGY PREDICTED BY IDOCK:   -7.73 KCAL/MOL
REMARK 923 INTER-LIGAND FREE ENERGY PREDICTED BY IDOCK:   -5.72 KCAL/MOL
REMARK 924 INTRA-LIGAND FREE ENERGY PREDICTED BY IDOCK:   -2.01 KCAL/MOL
REMARK 927      BINDING AFFINITY PREDICTED BY RF-SCORE:    0.00 PKD
ROOT
HETATM    1  C   UNL     1      -9.840  12.668  67.109  1.00  0.00    -0.212 C  
HETATM    2  C   UNL     1     -10.397  11.364  66.549  1.00  0.00    -0.236 C  
ENDROOT
BRANCH   2   3
HETATM    3  N   UNL     1     -10.741  10.327  67.548  1.00  0.00    -0.276 NA 
BRANCH   3   4
HETATM    4  C   UNL     1      -9.857   9.149  67.446  1.00  0.00    -0.184 C  
BRANCH   4   5
HETATM    5  C   UNL     1      -9.973   8.118  68.585  1.00  0.00    -0.201 C  
BRANCH   5   6
HETATM    6  C   UNL     1     -11.024   7.030  68.341  1.00  0.00    -0.137 C  
BRANCH   6   7
HETATM    7  C   UNL     1     -10.399   5.653  68.418  1.00  0.00    -0.258 A  
HETATM    8  C   UNL     1     -10.037   4.970  67.248  1.00  0.00    -0.226 A  
HETATM    9  C   UNL     1      -9.403   3.727  67.323  1.00  0.00    -0.228 A  
HETATM   10  C   UNL     1     -10.119   5.066  69.661  1.00  0.00    -0.321 A  
HETATM   11  C   UNL     1      -9.125   3.157  68.564  1.00  0.00    -0.210 A  
HETATM   12  C   UNL     1      -9.485   3.824  69.733  1.00  0.00    -0.256 A  
ENDBRANCH   6   7
ENDBRANCH   5   6
ENDBRANCH   4   5
ENDBRANCH   3   4
BRANCH   3  13
HETATM   13  C   UNL     1     -10.699  10.902  68.909  1.00  0.00    -0.215 C  
BRANCH  13  14
HETATM   14  C   UNL     1     -12.060  11.063  69.588  1.00  0.00    -0.411 C  
BRANCH  14  15
HETATM   15  C   UNL     1     -12.004  10.830  71.101  1.00  0.00    -0.361 C  
BRANCH  15  16
HETATM   16  C   UNL     1     -11.933   9.346  71.359  1.00  0.00    -0.446 A  
HETATM   17  C   UNL     1     -11.920   6.653  72.110  1.00  0.00    -0.320 A  
HETATM   18  C   UNL     1     -10.801   7.451  72.356  1.00  0.00    -0.305 A  
HETATM   19  C   UNL     1     -13.045   8.534  71.097  1.00  0.00    -0.061 A  
HETATM   20  C   UNL     1     -13.035   7.191  71.477  1.00  0.00    -0.431 A  
HETATM   21  C   UNL     1     -10.806   8.791  71.976  1.00  0.00    -0.428 A  
ENDBRANCH  15  16
ENDBRANCH  14  15
ENDBRANCH  13  14
ENDBRANCH   3  13
ENDBRANCH   2   3
TORSDOF 9
ENDMDL
MODEL      187
REMARK 921   NORMALIZED FREE ENERGY PREDICTED BY IDOCK:   -4.06 KCAL/MOL
REMARK 922        TOTAL FREE ENERGY PREDICTED BY IDOCK:   -7.72 KCAL/MOL
REMARK 923 INTER-LIGAND FREE ENERGY PREDICTED BY IDOCK:   -6.79 KCAL/MOL
REMARK 924 INTRA-LIGAND FREE ENERGY PREDICTED BY IDOCK:   -0.93 KCAL/MOL
REMARK 927      BINDING AFFINITY PREDICTED BY RF-SCORE:    0.00 PKD
ROOT
HETATM    1  C   UNL     1     -12.690  13.849  71.297  1.00  0.00    -0.444 C  
HETATM    2  C   UNL     1     -12.304  15.210  70.726  1.00  0.00    -0.360 C  
ENDROOT
BRANCH   2   3
HETATM    3  N   UNL     1     -11.508  15.184  69.477  1.00  0.00    -0.276 NA 
BRANCH   3   4
HETATM    4  C   UNL     1     -11.987  14.149  68.540  1.00  0.00    -0.332 C  
BRANCH   4   5
HETATM    5  C   UNL     1     -10.896  13.374  67.775  1.00  0.00    -0.267 C  
BRANCH   5   6
HETATM    6  C   UNL     1     -10.666  13.866  66.342  1.00  0.00    -0.281 C  
BRANCH   6   7
HETATM    7  C   UNL     1     -10.342  12.707  65.423  1.00  0.00    -0.311 A  
HETATM    8  C   UNL     1     -10.749  12.727  64.081  1.00  0.00    -0.441 A  
HETATM    9  C   UNL     1     -10.395  11.687  63.219  1.00  0.00    -0.444 A  
HETATM   10  C   UNL     1      -9.579  11.624  65.884  1.00  0.00    -0.250 A  
HETATM   11  C   UNL     1      -9.632  10.619  63.688  1.00  0.00    -0.360 A  
HETATM   12  C   UNL     1      -9.226  10.585  65.021  1.00  0.00    -0.245 A  
ENDBRANCH   6   7
ENDBRANCH   5   6
ENDBRANCH   4   5
ENDBRANCH   3   4
BRANCH   3  13
HETATM   13  C   UNL     1     -11.521  16.518  68.841  1.00  0.00    -0.131 C  
BRANCH  13  14
HETATM   14  C   UNL     1     -10.203  17.290  68.922  1.00  0.00    -0.349 C  
BRANCH  14  15
HETATM   15  C   UNL     1     -10.221  18.589  68.112  1.00  0.00    -0.412 C  
BRANCH  15  16
HETATM   16  C   UNL     1      -9.048  18.584  67.165  1.00  0.00    -0.280 A  
HETATM   17  C   UNL     1      -6.697  18.615  65.652  1.00  0.00    -0.309 A  
HETATM   18  C   UNL     1      -7.396  19.802  65.879  1.00  0.00    -0.331 A  
HETATM   19  C   UNL     1      -8.352  17.393  66.915  1.00  0.00    -0.260 A  
HETATM   20  C   UNL     1      -7.178  17.414  66.162  1.00  0.00    -0.327 A  
HETATM   21  C   UNL     1      -8.570  19.786  66.628  1.00  0.00    -0.380 A  
ENDBRANCH  15  16
ENDBRANCH  14  15
ENDBRANCH  13  14
ENDBRANCH   3  13
ENDBRANCH   2   3
TORSDOF 9
ENDMDL
MODEL      188
REMARK 921   NORMALIZED FREE ENERGY PREDICTED BY IDOCK:   -4.06 KCAL/MOL
REMARK 922        TOTAL FREE ENERGY PREDICTED BY IDOCK:   -7.71 KCAL/MOL
REMARK 923 INTER-LIGAND FREE ENERGY PREDICTED BY IDOCK:   -6.79 KCAL/MOL
REMARK 924 INTRA-LIGAND FREE ENERGY PREDICTED BY IDOCK:   -0.91 KCAL/MOL
REMARK 927      BINDING AFFINITY PREDICTED BY RF-SCORE:    0.00 PKD
ROOT
HETATM    1  C   UNL     1     -11.990  15.464  64.300  1.00  0.00    -0.198 C  
HETATM    2  C   UNL     1     -11.081  14.985  65.427  1.00  0.00    -0.374 C  
ENDROOT
BRANCH   2   3
HETATM    3  N   UNL     1     -11.762  14.375  66.592  1.00  0.00    -0.385 NA 
BRANCH   3   4
HETATM    4  C   UNL     1     -11.841  12.906  66.478  1.00  0.00    -0.407 C  
BRANCH   4   5
HETATM    5  C   UNL     1     -10.783  12.241  65.575  1.00  0.00    -0.314 C  
BRANCH   5   6
HETATM    6  C   UNL     1      -9.492  11.855  66.302  1.00  0.00    -0.238 C  
BRANCH   6   7
HETATM    7  C   UNL     1      -9.724  10.668  67.214  1.00  0.00    -0.195 A  
HETATM    8  C   UNL     1      -9.702  10.826  68.607  1.00  0.00    -0.187 A  
HETATM    9  C   UNL     1      -9.979   9.744  69.446  1.00  0.00    -0.217 A  
HETATM   10  C   UNL     1     -10.023   9.406  66.679  1.00  0.00    -0.326 A  
HETATM   11  C   UNL     1     -10.281   8.497  68.903  1.00  0.00    -0.221 A  
HETATM   12  C   UNL     1     -10.300   8.326  67.519  1.00  0.00    -0.333 A  
ENDBRANCH   6   7
ENDBRANCH   5   6
ENDBRANCH   4   5
ENDBRANCH   3   4
BRANCH   3  13
HETATM   13  C   UNL     1     -11.080  14.773  67.842  1.00  0.00    -0.293 C  
BRANCH  13  14
HETATM   14  C   UNL     1     -11.560  16.089  68.454  1.00  0.00    -0.279 C  
BRANCH  14  15
HETATM   15  C   UNL     1     -10.445  16.856  69.171  1.00  0.00    -0.335 C  
BRANCH  15  16
HETATM   16  C   UNL     1      -9.976  17.976  68.277  1.00  0.00    -0.374 A  
HETATM   17  C   UNL     1      -9.258  20.241  66.804  1.00  0.00    -0.452 A  
HETATM   18  C   UNL     1     -10.417  19.535  66.477  1.00  0.00    -0.595 A  
HETATM   19  C   UNL     1      -8.803  18.679  68.587  1.00  0.00    -0.333 A  
HETATM   20  C   UNL     1      -8.451  19.810  67.851  1.00  0.00    -0.348 A  
HETATM   21  C   UNL     1     -10.772  18.403  67.207  1.00  0.00    -0.389 A  
ENDBRANCH  15  16
ENDBRANCH  14  15
ENDBRANCH  13  14
ENDBRANCH   3  13
ENDBRANCH   2   3
TORSDOF 9
ENDMDL
MODEL      189
REMARK 921   NORMALIZED FREE ENERGY PREDICTED BY IDOCK:   -4.05 KCAL/MOL
REMARK 922        TOTAL FREE ENERGY PREDICTED BY IDOCK:   -7.70 KCAL/MOL
REMARK 923 INTER-LIGAND FREE ENERGY PREDICTED BY IDOCK:   -5.42 KCAL/MOL
REMARK 924 INTRA-LIGAND FREE ENERGY PREDICTED BY IDOCK:   -2.29 KCAL/MOL
REMARK 927      BINDING AFFINITY PREDICTED BY RF-SCORE:    0.00 PKD
ROOT
HETATM    1  C   UNL     1      -9.896   5.154  70.160  1.00  0.00    -0.300 C  
HETATM    2  C   UNL     1     -11.116   6.054  70.322  1.00  0.00    -0.345 C  
ENDROOT
BRANCH   2   3
HETATM    3  N   UNL     1     -10.834   7.489  70.556  1.00  0.00    -0.236 NA 
BRANCH   3   4
HETATM    4  C   UNL     1     -11.975   8.180  71.185  1.00  0.00    -0.273 C  
BRANCH   4   5
HETATM    5  C   UNL     1     -11.765   9.672  71.511  1.00  0.00    -0.472 C  
BRANCH   5   6
HETATM    6  C   UNL     1     -12.799  10.605  70.873  1.00  0.00    -0.473 C  
BRANCH   6   7
HETATM    7  C   UNL     1     -12.156  11.474  69.813  1.00  0.00    -0.374 A  
HETATM    8  C   UNL     1     -11.900  10.963  68.533  1.00  0.00    -0.236 A  
HETATM    9  C   UNL     1     -11.365  11.785  67.538  1.00  0.00    -0.377 A  
HETATM   10  C   UNL     1     -11.862  12.820  70.078  1.00  0.00    -0.352 A  
HETATM   11  C   UNL     1     -11.082  13.122  67.811  1.00  0.00    -0.287 A  
HETATM   12  C   UNL     1     -11.328  13.639  69.082  1.00  0.00    -0.335 A  
ENDBRANCH   6   7
ENDBRANCH   5   6
ENDBRANCH   4   5
ENDBRANCH   3   4
BRANCH   3  13
HETATM   13  C   UNL     1      -9.611   7.637  71.373  1.00  0.00    -0.158 C  
BRANCH  13  14
HETATM   14  C   UNL     1      -8.413   8.251  70.647  1.00  0.00    -0.131 C  
BRANCH  14  15
HETATM   15  C   UNL     1      -8.640   9.714  70.254  1.00  0.00    -0.234 C  
BRANCH  15  16
HETATM   16  C   UNL     1      -8.436   9.851  68.766  1.00  0.00    -0.122 A  
HETATM   17  C   UNL     1      -8.333  10.231  65.998  1.00  0.00    -0.142 A  
HETATM   18  C   UNL     1      -8.831   9.035  66.520  1.00  0.00    -0.158 A  
HETATM   19  C   UNL     1      -7.920  11.041  68.235  1.00  0.00    -0.124 A  
HETATM   20  C   UNL     1      -7.873  11.227  66.853  1.00  0.00    -0.156 A  
HETATM   21  C   UNL     1      -8.876   8.844  67.899  1.00  0.00    -0.133 A  
ENDBRANCH  15  16
ENDBRANCH  14  15
ENDBRANCH  13  14
ENDBRANCH   3  13
ENDBRANCH   2   3
TORSDOF 9
ENDMDL
MODEL      190
REMARK 921   NORMALIZED FREE ENERGY PREDICTED BY IDOCK:   -4.05 KCAL/MOL
REMARK 922        TOTAL FREE ENERGY PREDICTED BY IDOCK:   -7.70 KCAL/MOL
REMARK 923 INTER-LIGAND FREE ENERGY PREDICTED BY IDOCK:   -6.84 KCAL/MOL
REMARK 924 INTRA-LIGAND FREE ENERGY PREDICTED BY IDOCK:   -0.85 KCAL/MOL
REMARK 927      BINDING AFFINITY PREDICTED BY RF-SCORE:    0.00 PKD
ROOT
HETATM    1  C   UNL     1     -10.491  19.583  66.245  1.00  0.00    -0.609 C  
HETATM    2  C   UNL     1     -10.414  18.510  67.326  1.00  0.00    -0.419 C  
ENDROOT
BRANCH   2   3
HETATM    3  N   UNL     1      -9.761  17.241  66.932  1.00  0.00    -0.263 NA 
BRANCH   3   4
HETATM    4  C   UNL     1      -8.871  16.726  67.991  1.00  0.00    -0.216 C  
BRANCH   4   5
HETATM    5  C   UNL     1      -7.569  16.056  67.511  1.00  0.00    -0.179 C  
BRANCH   5   6
HETATM    6  C   UNL     1      -6.560  17.025  66.885  1.00  0.00    -0.251 C  
BRANCH   6   7
HETATM    7  C   UNL     1      -6.255  18.168  67.830  1.00  0.00    -0.174 A  
HETATM    8  C   UNL     1      -6.658  19.474  67.520  1.00  0.00    -0.235 A  
HETATM    9  C   UNL     1      -6.432  20.517  68.423  1.00  0.00    -0.324 A  
HETATM   10  C   UNL     1      -5.619  17.927  69.057  1.00  0.00    -0.192 A  
HETATM   11  C   UNL     1      -5.804  20.264  69.641  1.00  0.00    -0.381 A  
HETATM   12  C   UNL     1      -5.394  18.969  69.957  1.00  0.00    -0.226 A  
ENDBRANCH   6   7
ENDBRANCH   5   6
ENDBRANCH   4   5
ENDBRANCH   3   4
BRANCH   3  13
HETATM   13  C   UNL     1     -10.784  16.238  66.568  1.00  0.00    -0.187 C  
BRANCH  13  14
HETATM   14  C   UNL     1     -10.768  15.795  65.104  1.00  0.00    -0.455 C  
BRANCH  14  15
HETATM   15  C   UNL     1     -11.799  14.704  64.799  1.00  0.00    -0.444 C  
BRANCH  15  16
HETATM   16  C   UNL     1     -11.092  13.373  64.742  1.00  0.00    -0.363 A  
HETATM   17  C   UNL     1     -10.033  10.785  64.746  1.00  0.00    -0.382 A  
HETATM   18  C   UNL     1      -9.866  11.610  65.861  1.00  0.00    -0.262 A  
HETATM   19  C   UNL     1     -11.238  12.548  63.618  1.00  0.00    -0.545 A  
HETATM   20  C   UNL     1     -10.711  11.256  63.627  1.00  0.00    -0.438 A  
HETATM   21  C   UNL     1     -10.388  12.901  65.856  1.00  0.00    -0.297 A  
ENDBRANCH  15  16
ENDBRANCH  14  15
ENDBRANCH  13  14
ENDBRANCH   3  13
ENDBRANCH   2   3
TORSDOF 9
ENDMDL
MODEL      191
REMARK 921   NORMALIZED FREE ENERGY PREDICTED BY IDOCK:   -4.05 KCAL/MOL
REMARK 922        TOTAL FREE ENERGY PREDICTED BY IDOCK:   -7.69 KCAL/MOL
REMARK 923 INTER-LIGAND FREE ENERGY PREDICTED BY IDOCK:   -5.30 KCAL/MOL
REMARK 924 INTRA-LIGAND FREE ENERGY PREDICTED BY IDOCK:   -2.40 KCAL/MOL
REMARK 927      BINDING AFFINITY PREDICTED BY RF-SCORE:    0.00 PKD
ROOT
HETATM    1  C   UNL     1     -10.366   3.360  73.712  1.00  0.00    -0.233 C  
HETATM    2  C   UNL     1      -9.898   2.662  72.439  1.00  0.00    -0.154 C  
ENDROOT
BRANCH   2   3
HETATM    3  N   UNL     1      -9.685   3.537  71.263  1.00  0.00    -0.174 NA 
BRANCH   3   4
HETATM    4  C   UNL     1      -9.029   4.807  71.633  1.00  0.00    -0.134 C  
BRANCH   4   5
HETATM    5  C   UNL     1      -9.815   6.092  71.308  1.00  0.00    -0.204 C  
BRANCH   5   6
HETATM    6  C   UNL     1     -11.324   5.880  71.147  1.00  0.00    -0.230 C  
BRANCH   6   7
HETATM    7  C   UNL     1     -12.061   7.201  71.215  1.00  0.00    -0.386 A  
HETATM    8  C   UNL     1     -13.435   7.235  71.493  1.00  0.00    -0.439 A  
HETATM    9  C   UNL     1     -14.101   8.457  71.618  1.00  0.00    -0.487 A  
HETATM   10  C   UNL     1     -11.370   8.411  71.060  1.00  0.00    -0.303 A  
HETATM   11  C   UNL     1     -13.403   9.653  71.468  1.00  0.00    -0.468 A  
HETATM   12  C   UNL     1     -12.037   9.631  71.186  1.00  0.00    -0.448 A  
ENDBRANCH   6   7
ENDBRANCH   5   6
ENDBRANCH   4   5
ENDBRANCH   3   4
BRANCH   3  13
HETATM   13  C   UNL     1      -8.904   2.820  70.233  1.00  0.00    -0.085 C  
BRANCH  13  14
HETATM   14  C   UNL     1      -9.426   2.966  68.803  1.00  0.00    -0.182 C  
BRANCH  14  15
HETATM   15  C   UNL     1      -8.514   3.823  67.920  1.00  0.00    -0.106 C  
BRANCH  15  16
HETATM   16  C   UNL     1      -9.141   5.184  67.756  1.00  0.00    -0.119 A  
HETATM   17  C   UNL     1     -10.377   7.692  67.745  1.00  0.00    -0.282 A  
HETATM   18  C   UNL     1     -11.117   6.548  67.436  1.00  0.00    -0.411 A  
HETATM   19  C   UNL     1      -8.400   6.339  68.045  1.00  0.00    -0.114 A  
HETATM   20  C   UNL     1      -9.023   7.587  68.041  1.00  0.00    -0.129 A  
HETATM   21  C   UNL     1     -10.499   5.300  67.435  1.00  0.00    -0.213 A  
ENDBRANCH  15  16
ENDBRANCH  14  15
ENDBRANCH  13  14
ENDBRANCH   3  13
ENDBRANCH   2   3
TORSDOF 9
ENDMDL
MODEL      192
REMARK 921   NORMALIZED FREE ENERGY PREDICTED BY IDOCK:   -4.05 KCAL/MOL
REMARK 922        TOTAL FREE ENERGY PREDICTED BY IDOCK:   -7.69 KCAL/MOL
REMARK 923 INTER-LIGAND FREE ENERGY PREDICTED BY IDOCK:   -4.70 KCAL/MOL
REMARK 924 INTRA-LIGAND FREE ENERGY PREDICTED BY IDOCK:   -2.99 KCAL/MOL
REMARK 927      BINDING AFFINITY PREDICTED BY RF-SCORE:    0.00 PKD
ROOT
HETATM    1  C   UNL     1     -14.044   9.058  72.291  1.00  0.00    -0.485 C  
HETATM    2  C   UNL     1     -12.815   9.593  71.564  1.00  0.00    -0.392 C  
ENDROOT
BRANCH   2   3
HETATM    3  N   UNL     1     -11.757   8.600  71.268  1.00  0.00    -0.279 NA 
BRANCH   3   4
HETATM    4  C   UNL     1     -10.495   9.245  70.857  1.00  0.00    -0.302 C  
BRANCH   4   5
HETATM    5  C   UNL     1      -9.253   8.899  71.701  1.00  0.00    -0.302 C  
BRANCH   5   6
HETATM    6  C   UNL     1      -7.958   8.778  70.892  1.00  0.00    -0.155 C  
BRANCH   6   7
HETATM    7  C   UNL     1      -7.319   7.421  71.102  1.00  0.00    -0.072 A  
HETATM    8  C   UNL     1      -6.831   6.688  70.011  1.00  0.00    -0.054 A  
HETATM    9  C   UNL     1      -6.186   5.466  70.213  1.00  0.00    -0.023 A  
HETATM   10  C   UNL     1      -7.153   6.904  72.395  1.00  0.00    -0.070 A  
HETATM   11  C   UNL     1      -6.021   4.965  71.503  1.00  0.00    -0.017 A  
HETATM   12  C   UNL     1      -6.507   5.683  72.595  1.00  0.00    -0.065 A  
ENDBRANCH   6   7
ENDBRANCH   5   6
ENDBRANCH   4   5
ENDBRANCH   3   4
BRANCH   3  13
HETATM   13  C   UNL     1     -11.545   7.723  72.439  1.00  0.00    -0.356 C  
BRANCH  13  14
HETATM   14  C   UNL     1     -11.805   6.237  72.194  1.00  0.00    -0.365 C  
BRANCH  14  15
HETATM   15  C   UNL     1     -10.586   5.359  72.494  1.00  0.00    -0.277 C  
BRANCH  15  16
HETATM   16  C   UNL     1     -10.037   4.834  71.192  1.00  0.00    -0.261 A  
HETATM   17  C   UNL     1      -9.293   3.741  68.728  1.00  0.00    -0.230 A  
HETATM   18  C   UNL     1      -9.120   3.002  69.900  1.00  0.00    -0.196 A  
HETATM   19  C   UNL     1     -10.189   5.578  70.014  1.00  0.00    -0.337 A  
HETATM   20  C   UNL     1      -9.819   5.027  68.787  1.00  0.00    -0.236 A  
HETATM   21  C   UNL     1      -9.485   3.548  71.128  1.00  0.00    -0.229 A  
ENDBRANCH  15  16
ENDBRANCH  14  15
ENDBRANCH  13  14
ENDBRANCH   3  13
ENDBRANCH   2   3
TORSDOF 9
ENDMDL
MODEL      193
REMARK 921   NORMALIZED FREE ENERGY PREDICTED BY IDOCK:   -4.05 KCAL/MOL
REMARK 922        TOTAL FREE ENERGY PREDICTED BY IDOCK:   -7.69 KCAL/MOL
REMARK 923 INTER-LIGAND FREE ENERGY PREDICTED BY IDOCK:   -6.69 KCAL/MOL
REMARK 924 INTRA-LIGAND FREE ENERGY PREDICTED BY IDOCK:   -1.00 KCAL/MOL
REMARK 927      BINDING AFFINITY PREDICTED BY RF-SCORE:    0.00 PKD
ROOT
HETATM    1  C   UNL     1      -9.296  12.095  66.741  1.00  0.00    -0.212 C  
HETATM    2  C   UNL     1     -10.586  11.283  66.785  1.00  0.00    -0.260 C  
ENDROOT
BRANCH   2   3
HETATM    3  N   UNL     1     -11.497  11.578  67.915  1.00  0.00    -0.384 NA 
BRANCH   3   4
HETATM    4  C   UNL     1     -11.616  10.435  68.841  1.00  0.00    -0.139 C  
BRANCH   4   5
HETATM    5  C   UNL     1     -11.849  10.788  70.323  1.00  0.00    -0.438 C  
BRANCH   5   6
HETATM    6  C   UNL     1     -12.860   9.881  71.032  1.00  0.00    -0.417 C  
BRANCH   6   7
HETATM    7  C   UNL     1     -12.168   8.676  71.635  1.00  0.00    -0.388 A  
HETATM    8  C   UNL     1     -12.744   7.402  71.539  1.00  0.00    -0.409 A  
HETATM    9  C   UNL     1     -12.075   6.283  72.040  1.00  0.00    -0.321 A  
HETATM   10  C   UNL     1     -10.913   8.808  72.247  1.00  0.00    -0.336 A  
HETATM   11  C   UNL     1     -10.825   6.426  72.641  1.00  0.00    -0.270 A  
HETATM   12  C   UNL     1     -10.245   7.689  72.748  1.00  0.00    -0.336 A  
ENDBRANCH   6   7
ENDBRANCH   5   6
ENDBRANCH   4   5
ENDBRANCH   3   4
BRANCH   3  13
HETATM   13  C   UNL     1     -11.040  12.790  68.629  1.00  0.00    -0.266 C  
BRANCH  13  14
HETATM   14  C   UNL     1     -11.979  13.993  68.533  1.00  0.00    -0.383 C  
BRANCH  14  15
HETATM   15  C   UNL     1     -11.935  14.677  67.163  1.00  0.00    -0.310 C  
BRANCH  15  16
HETATM   16  C   UNL     1     -10.898  15.770  67.202  1.00  0.00    -0.289 A  
HETATM   17  C   UNL     1      -9.164  17.962  67.106  1.00  0.00    -0.258 A  
HETATM   18  C   UNL     1      -9.075  16.958  66.139  1.00  0.00    -0.265 A  
HETATM   19  C   UNL     1     -10.969  16.771  68.181  1.00  0.00    -0.309 A  
HETATM   20  C   UNL     1     -10.103  17.864  68.127  1.00  0.00    -0.368 A  
HETATM   21  C   UNL     1      -9.934  15.864  66.190  1.00  0.00    -0.337 A  
ENDBRANCH  15  16
ENDBRANCH  14  15
ENDBRANCH  13  14
ENDBRANCH   3  13
ENDBRANCH   2   3
TORSDOF 9
ENDMDL
MODEL      194
REMARK 921   NORMALIZED FREE ENERGY PREDICTED BY IDOCK:   -4.04 KCAL/MOL
REMARK 922        TOTAL FREE ENERGY PREDICTED BY IDOCK:   -7.68 KCAL/MOL
REMARK 923 INTER-LIGAND FREE ENERGY PREDICTED BY IDOCK:   -7.10 KCAL/MOL
REMARK 924 INTRA-LIGAND FREE ENERGY PREDICTED BY IDOCK:   -0.59 KCAL/MOL
REMARK 927      BINDING AFFINITY PREDICTED BY RF-SCORE:    0.00 PKD
ROOT
HETATM    1  C   UNL     1      -6.792  13.322  68.291  1.00  0.00    -0.105 C  
HETATM    2  C   UNL     1      -8.242  13.010  68.647  1.00  0.00     0.011 C  
ENDROOT
BRANCH   2   3
HETATM    3  N   UNL     1      -8.790  11.754  68.084  1.00  0.00    -0.164 NA 
BRANCH   3   4
HETATM    4  C   UNL     1      -8.472  10.586  68.929  1.00  0.00    -0.152 C  
BRANCH   4   5
HETATM    5  C   UNL     1      -9.659   9.670  69.287  1.00  0.00    -0.190 C  
BRANCH   5   6
HETATM    6  C   UNL     1      -9.799   9.384  70.785  1.00  0.00    -0.348 C  
BRANCH   6   7
HETATM    7  C   UNL     1     -11.217   8.970  71.122  1.00  0.00    -0.375 A  
HETATM    8  C   UNL     1     -11.647   7.655  70.895  1.00  0.00    -0.299 A  
HETATM    9  C   UNL     1     -12.935   7.259  71.264  1.00  0.00    -0.377 A  
HETATM   10  C   UNL     1     -12.102   9.880  71.719  1.00  0.00    -0.382 A  
HETATM   11  C   UNL     1     -13.803   8.170  71.862  1.00  0.00    -0.424 A  
HETATM   12  C   UNL     1     -13.388   9.482  72.087  1.00  0.00    -0.545 A  
ENDBRANCH   6   7
ENDBRANCH   5   6
ENDBRANCH   4   5
ENDBRANCH   3   4
BRANCH   3  13
HETATM   13  C   UNL     1     -10.249  11.883  67.887  1.00  0.00    -0.193 C  
BRANCH  13  14
HETATM   14  C   UNL     1     -11.047  12.225  69.147  1.00  0.00    -0.261 C  
BRANCH  14  15
HETATM   15  C   UNL     1     -11.902  13.485  68.988  1.00  0.00    -0.385 C  
BRANCH  15  16
HETATM   16  C   UNL     1     -12.080  14.121  70.344  1.00  0.00    -0.417 A  
HETATM   17  C   UNL     1     -12.661  15.429  72.746  1.00  0.00    -0.510 A  
HETATM   18  C   UNL     1     -11.847  16.047  71.794  1.00  0.00    -0.599 A  
HETATM   19  C   UNL     1     -12.880  13.499  71.312  1.00  0.00    -0.420 A  
HETATM   20  C   UNL     1     -13.169  14.157  72.508  1.00  0.00    -0.596 A  
HETATM   21  C   UNL     1     -11.553  15.393  70.600  1.00  0.00    -0.363 A  
ENDBRANCH  15  16
ENDBRANCH  14  15
ENDBRANCH  13  14
ENDBRANCH   3  13
ENDBRANCH   2   3
TORSDOF 9
ENDMDL
MODEL      195
REMARK 921   NORMALIZED FREE ENERGY PREDICTED BY IDOCK:   -4.04 KCAL/MOL
REMARK 922        TOTAL FREE ENERGY PREDICTED BY IDOCK:   -7.68 KCAL/MOL
REMARK 923 INTER-LIGAND FREE ENERGY PREDICTED BY IDOCK:   -6.38 KCAL/MOL
REMARK 924 INTRA-LIGAND FREE ENERGY PREDICTED BY IDOCK:   -1.30 KCAL/MOL
REMARK 927      BINDING AFFINITY PREDICTED BY RF-SCORE:    0.00 PKD
ROOT
HETATM    1  C   UNL     1      -6.272   9.630  66.996  1.00  0.00    -0.064 C  
HETATM    2  C   UNL     1      -6.778  11.038  66.704  1.00  0.00    -0.134 C  
ENDROOT
BRANCH   2   3
HETATM    3  N   UNL     1      -8.248  11.189  66.608  1.00  0.00    -0.153 NA 
BRANCH   3   4
HETATM    4  C   UNL     1      -8.855  10.153  65.749  1.00  0.00    -0.158 C  
BRANCH   4   5
HETATM    5  C   UNL     1      -9.270  10.606  64.336  1.00  0.00    -0.267 C  
BRANCH   5   6
HETATM    6  C   UNL     1     -10.749  10.986  64.209  1.00  0.00    -0.348 C  
BRANCH   6   7
HETATM    7  C   UNL     1     -11.020  12.319  64.875  1.00  0.00    -0.344 A  
HETATM    8  C   UNL     1     -10.340  13.473  64.461  1.00  0.00    -0.381 A  
HETATM    9  C   UNL     1     -10.637  14.712  65.033  1.00  0.00    -0.461 A  
HETATM   10  C   UNL     1     -11.996  12.430  65.876  1.00  0.00    -0.434 A  
HETATM   11  C   UNL     1     -11.613  14.811  66.022  1.00  0.00    -0.286 A  
HETATM   12  C   UNL     1     -12.291  13.669  66.447  1.00  0.00    -0.441 A  
ENDBRANCH   6   7
ENDBRANCH   5   6
ENDBRANCH   4   5
ENDBRANCH   3   4
BRANCH   3  13
HETATM   13  C   UNL     1      -8.848  11.172  67.959  1.00  0.00    -0.142 C  
BRANCH  13  14
HETATM   14  C   UNL     1      -9.854  10.048  68.209  1.00  0.00    -0.163 C  
BRANCH  14  15
HETATM   15  C   UNL     1      -9.579   9.277  69.504  1.00  0.00    -0.178 C  
BRANCH  15  16
HETATM   16  C   UNL     1     -10.838   9.261  70.333  1.00  0.00    -0.302 A  
HETATM   17  C   UNL     1     -13.007   9.353  72.095  1.00  0.00    -0.503 A  
HETATM   18  C   UNL     1     -12.205   8.211  72.035  1.00  0.00    -0.385 A  
HETATM   19  C   UNL     1     -11.659  10.396  70.385  1.00  0.00    -0.423 A  
HETATM   20  C   UNL     1     -12.739  10.438  71.268  1.00  0.00    -0.536 A  
HETATM   21  C   UNL     1     -11.128   8.164  71.153  1.00  0.00    -0.279 A  
ENDBRANCH  15  16
ENDBRANCH  14  15
ENDBRANCH  13  14
ENDBRANCH   3  13
ENDBRANCH   2   3
TORSDOF 9
ENDMDL
MODEL      196
REMARK 921   NORMALIZED FREE ENERGY PREDICTED BY IDOCK:   -4.04 KCAL/MOL
REMARK 922        TOTAL FREE ENERGY PREDICTED BY IDOCK:   -7.68 KCAL/MOL
REMARK 923 INTER-LIGAND FREE ENERGY PREDICTED BY IDOCK:   -6.69 KCAL/MOL
REMARK 924 INTRA-LIGAND FREE ENERGY PREDICTED BY IDOCK:   -0.99 KCAL/MOL
REMARK 927      BINDING AFFINITY PREDICTED BY RF-SCORE:    0.00 PKD
ROOT
HETATM    1  C   UNL     1      -9.836   8.359  66.354  1.00  0.00    -0.310 C  
HETATM    2  C   UNL     1      -9.203   9.707  66.679  1.00  0.00    -0.151 C  
ENDROOT
BRANCH   2   3
HETATM    3  N   UNL     1      -9.489  10.246  68.028  1.00  0.00    -0.145 NA 
BRANCH   3   4
HETATM    4  C   UNL     1      -8.956  11.612  68.201  1.00  0.00    -0.182 C  
BRANCH   4   5
HETATM    5  C   UNL     1      -8.706  12.407  66.905  1.00  0.00    -0.191 C  
BRANCH   5   6
HETATM    6  C   UNL     1      -9.603  13.639  66.743  1.00  0.00    -0.277 C  
BRANCH   6   7
HETATM    7  C   UNL     1      -8.787  14.912  66.836  1.00  0.00    -0.284 A  
HETATM    8  C   UNL     1      -7.432  14.864  67.190  1.00  0.00    -0.111 A  
HETATM    9  C   UNL     1      -6.666  16.032  67.214  1.00  0.00    -0.232 A  
HETATM   10  C   UNL     1      -9.360  16.151  66.512  1.00  0.00    -0.296 A  
HETATM   11  C   UNL     1      -7.245  17.256  66.885  1.00  0.00    -0.235 A  
HETATM   12  C   UNL     1      -8.593  17.316  66.537  1.00  0.00    -0.298 A  
ENDBRANCH   6   7
ENDBRANCH   5   6
ENDBRANCH   4   5
ENDBRANCH   3   4
BRANCH   3  13
HETATM   13  C   UNL     1     -10.943  10.209  68.290  1.00  0.00    -0.248 C  
BRANCH  13  14
HETATM   14  C   UNL     1     -11.538  11.508  68.838  1.00  0.00    -0.384 C  
BRANCH  14  15
HETATM   15  C   UNL     1     -11.883  11.424  70.328  1.00  0.00    -0.438 C  
BRANCH  15  16
HETATM   16  C   UNL     1     -12.519  12.724  70.750  1.00  0.00    -0.357 A  
HETATM   17  C   UNL     1     -13.457  15.177  71.711  1.00  0.00    -0.529 A  
HETATM   18  C   UNL     1     -13.810  13.992  72.360  1.00  0.00    -0.653 A  
HETATM   19  C   UNL     1     -12.185  13.916  70.092  1.00  0.00    -0.425 A  
HETATM   20  C   UNL     1     -12.653  15.137  70.577  1.00  0.00    -0.429 A  
HETATM   21  C   UNL     1     -13.348  12.770  71.877  1.00  0.00    -0.510 A  
ENDBRANCH  15  16
ENDBRANCH  14  15
ENDBRANCH  13  14
ENDBRANCH   3  13
ENDBRANCH   2   3
TORSDOF 9
ENDMDL
MODEL      197
REMARK 921   NORMALIZED FREE ENERGY PREDICTED BY IDOCK:   -4.02 KCAL/MOL
REMARK 922        TOTAL FREE ENERGY PREDICTED BY IDOCK:   -7.65 KCAL/MOL
REMARK 923 INTER-LIGAND FREE ENERGY PREDICTED BY IDOCK:   -6.98 KCAL/MOL
REMARK 924 INTRA-LIGAND FREE ENERGY PREDICTED BY IDOCK:   -0.67 KCAL/MOL
REMARK 927      BINDING AFFINITY PREDICTED BY RF-SCORE:    0.00 PKD
ROOT
HETATM    1  C   UNL     1     -11.011  12.520  63.667  1.00  0.00    -0.507 C  
HETATM    2  C   UNL     1     -11.858  13.021  64.832  1.00  0.00    -0.361 C  
ENDROOT
BRANCH   2   3
HETATM    3  N   UNL     1     -11.269  12.848  66.180  1.00  0.00    -0.283 NA 
BRANCH   3   4
HETATM    4  C   UNL     1     -10.641  11.522  66.342  1.00  0.00    -0.259 C  
BRANCH   4   5
HETATM    5  C   UNL     1     -11.077  10.716  67.581  1.00  0.00    -0.385 C  
BRANCH   5   6
HETATM    6  C   UNL     1     -11.783  11.550  68.654  1.00  0.00    -0.389 C  
BRANCH   6   7
HETATM    7  C   UNL     1     -11.993  10.736  69.914  1.00  0.00    -0.418 A  
HETATM    8  C   UNL     1     -12.992  11.090  70.832  1.00  0.00    -0.314 A  
HETATM    9  C   UNL     1     -13.226  10.301  71.961  1.00  0.00    -0.516 A  
HETATM   10  C   UNL     1     -11.232   9.582  70.152  1.00  0.00    -0.275 A  
HETATM   11  C   UNL     1     -12.467   9.154  72.184  1.00  0.00    -0.436 A  
HETATM   12  C   UNL     1     -11.467   8.796  71.280  1.00  0.00    -0.355 A  
ENDBRANCH   6   7
ENDBRANCH   5   6
ENDBRANCH   4   5
ENDBRANCH   3   4
BRANCH   3  13
HETATM   13  C   UNL     1     -10.298  13.929  66.450  1.00  0.00    -0.289 C  
BRANCH  13  14
HETATM   14  C   UNL     1     -10.874  15.345  66.410  1.00  0.00    -0.303 C  
BRANCH  14  15
HETATM   15  C   UNL     1     -10.610  16.134  67.696  1.00  0.00    -0.315 C  
BRANCH  15  16
HETATM   16  C   UNL     1      -9.313  16.888  67.543  1.00  0.00    -0.232 A  
HETATM   17  C   UNL     1      -6.769  18.019  67.288  1.00  0.00    -0.195 A  
HETATM   18  C   UNL     1      -7.366  17.920  68.547  1.00  0.00    -0.268 A  
HETATM   19  C   UNL     1      -8.716  17.009  66.280  1.00  0.00    -0.285 A  
HETATM   20  C   UNL     1      -7.446  17.572  66.159  1.00  0.00    -0.334 A  
HETATM   21  C   UNL     1      -8.636  17.362  68.673  1.00  0.00    -0.259 A  
ENDBRANCH  15  16
ENDBRANCH  14  15
ENDBRANCH  13  14
ENDBRANCH   3  13
ENDBRANCH   2   3
TORSDOF 9
ENDMDL
MODEL      198
REMARK 921   NORMALIZED FREE ENERGY PREDICTED BY IDOCK:   -4.01 KCAL/MOL
REMARK 922        TOTAL FREE ENERGY PREDICTED BY IDOCK:   -7.64 KCAL/MOL
REMARK 923 INTER-LIGAND FREE ENERGY PREDICTED BY IDOCK:   -4.65 KCAL/MOL
REMARK 924 INTRA-LIGAND FREE ENERGY PREDICTED BY IDOCK:   -2.99 KCAL/MOL
REMARK 927      BINDING AFFINITY PREDICTED BY RF-SCORE:    0.00 PKD
ROOT
HETATM    1  C   UNL     1      -8.682  10.721  65.721  1.00  0.00    -0.194 C  
HETATM    2  C   UNL     1      -8.437   9.222  65.578  1.00  0.00    -0.140 C  
ENDROOT
BRANCH   2   3
HETATM    3  N   UNL     1      -8.787   8.396  66.756  1.00  0.00    -0.133 NA 
BRANCH   3   4
HETATM    4  C   UNL     1      -9.249   9.219  67.890  1.00  0.00    -0.129 C  
BRANCH   4   5
HETATM    5  C   UNL     1      -8.398   9.138  69.173  1.00  0.00    -0.123 C  
BRANCH   5   6
HETATM    6  C   UNL     1      -9.210   9.223  70.470  1.00  0.00    -0.311 C  
BRANCH   6   7
HETATM    7  C   UNL     1      -8.587   8.364  71.550  1.00  0.00    -0.215 A  
HETATM    8  C   UNL     1      -9.077   8.405  72.863  1.00  0.00    -0.282 A  
HETATM    9  C   UNL     1      -8.542   7.566  73.844  1.00  0.00    -0.264 A  
HETATM   10  C   UNL     1      -7.550   7.471  71.240  1.00  0.00    -0.081 A  
HETATM   11  C   UNL     1      -7.516   6.679  73.523  1.00  0.00    -0.083 A  
HETATM   12  C   UNL     1      -7.018   6.633  72.221  1.00  0.00    -0.068 A  
ENDBRANCH   6   7
ENDBRANCH   5   6
ENDBRANCH   4   5
ENDBRANCH   3   4
BRANCH   3  13
HETATM   13  C   UNL     1      -9.806   7.391  66.384  1.00  0.00    -0.066 C  
BRANCH  13  14
HETATM   14  C   UNL     1     -10.721   6.941  67.523  1.00  0.00    -0.368 C  
BRANCH  14  15
HETATM   15  C   UNL     1     -10.146   5.768  68.324  1.00  0.00    -0.208 C  
BRANCH  15  16
HETATM   16  C   UNL     1     -10.766   5.771  69.698  1.00  0.00    -0.416 A  
HETATM   17  C   UNL     1     -11.732   6.007  72.311  1.00  0.00    -0.338 A  
HETATM   18  C   UNL     1     -10.666   5.147  72.036  1.00  0.00    -0.236 A  
HETATM   19  C   UNL     1     -11.848   6.617  69.978  1.00  0.00    -0.301 A  
HETATM   20  C   UNL     1     -12.325   6.733  71.284  1.00  0.00    -0.395 A  
HETATM   21  C   UNL     1     -10.190   5.025  70.733  1.00  0.00    -0.299 A  
ENDBRANCH  15  16
ENDBRANCH  14  15
ENDBRANCH  13  14
ENDBRANCH   3  13
ENDBRANCH   2   3
TORSDOF 9
ENDMDL
MODEL      199
REMARK 921   NORMALIZED FREE ENERGY PREDICTED BY IDOCK:   -4.01 KCAL/MOL
REMARK 922        TOTAL FREE ENERGY PREDICTED BY IDOCK:   -7.64 KCAL/MOL
REMARK 923 INTER-LIGAND FREE ENERGY PREDICTED BY IDOCK:   -6.80 KCAL/MOL
REMARK 924 INTRA-LIGAND FREE ENERGY PREDICTED BY IDOCK:   -0.84 KCAL/MOL
REMARK 927      BINDING AFFINITY PREDICTED BY RF-SCORE:    0.00 PKD
ROOT
HETATM    1  C   UNL     1      -6.152   7.968  69.350  1.00  0.00    -0.034 C  
HETATM    2  C   UNL     1      -7.241   7.976  68.283  1.00  0.00    -0.093 C  
ENDROOT
BRANCH   2   3
HETATM    3  N   UNL     1      -8.460   8.751  68.610  1.00  0.00    -0.128 NA 
BRANCH   3   4
HETATM    4  C   UNL     1      -9.692   8.015  68.262  1.00  0.00    -0.164 C  
BRANCH   4   5
HETATM    5  C   UNL     1     -10.333   8.375  66.908  1.00  0.00    -0.378 C  
BRANCH   5   6
HETATM    6  C   UNL     1      -9.423   9.188  65.980  1.00  0.00    -0.321 C  
BRANCH   6   7
HETATM    7  C   UNL     1     -10.144  10.416  65.466  1.00  0.00    -0.352 A  
HETATM    8  C   UNL     1      -9.991  10.825  64.133  1.00  0.00    -0.405 A  
HETATM    9  C   UNL     1     -10.706  11.921  63.643  1.00  0.00    -0.502 A  
HETATM   10  C   UNL     1     -11.019  11.130  66.298  1.00  0.00    -0.227 A  
HETATM   11  C   UNL     1     -11.577  12.618  64.478  1.00  0.00    -0.399 A  
HETATM   12  C   UNL     1     -11.732  12.225  65.807  1.00  0.00    -0.445 A  
ENDBRANCH   6   7
ENDBRANCH   5   6
ENDBRANCH   4   5
ENDBRANCH   3   4
BRANCH   3  13
HETATM   13  C   UNL     1      -8.454   9.123  70.041  1.00  0.00    -0.157 C  
BRANCH  13  14
HETATM   14  C   UNL     1      -9.827   9.433  70.638  1.00  0.00    -0.340 C  
BRANCH  14  15
HETATM   15  C   UNL     1     -10.138   8.599  71.885  1.00  0.00    -0.398 C  
BRANCH  15  16
HETATM   16  C   UNL     1     -11.631   8.403  71.975  1.00  0.00    -0.418 A  
HETATM   17  C   UNL     1     -14.409   8.114  71.848  1.00  0.00    -0.566 A  
HETATM   18  C   UNL     1     -13.851   9.344  72.201  1.00  0.00    -0.433 A  
HETATM   19  C   UNL     1     -12.198   7.166  71.640  1.00  0.00    -0.385 A  
HETATM   20  C   UNL     1     -13.585   7.027  71.576  1.00  0.00    -0.355 A  
HETATM   21  C   UNL     1     -12.467   9.486  72.270  1.00  0.00    -0.299 A  
ENDBRANCH  15  16
ENDBRANCH  14  15
ENDBRANCH  13  14
ENDBRANCH   3  13
ENDBRANCH   2   3
TORSDOF 9
ENDMDL
MODEL      200
REMARK 921   NORMALIZED FREE ENERGY PREDICTED BY IDOCK:   -4.01 KCAL/MOL
REMARK 922        TOTAL FREE ENERGY PREDICTED BY IDOCK:   -7.63 KCAL/MOL
REMARK 923 INTER-LIGAND FREE ENERGY PREDICTED BY IDOCK:   -6.00 KCAL/MOL
REMARK 924 INTRA-LIGAND FREE ENERGY PREDICTED BY IDOCK:   -1.63 KCAL/MOL
REMARK 927      BINDING AFFINITY PREDICTED BY RF-SCORE:    0.00 PKD
ROOT
HETATM    1  C   UNL     1      -7.497   8.916  69.291  1.00  0.00    -0.075 C  
HETATM    2  C   UNL     1      -8.950   8.979  68.833  1.00  0.00    -0.140 C  
ENDROOT
BRANCH   2   3
HETATM    3  N   UNL     1      -9.582  10.318  68.871  1.00  0.00    -0.180 NA 
BRANCH   3   4
HETATM    4  C   UNL     1      -8.728  11.348  68.248  1.00  0.00    -0.160 C  
BRANCH   4   5
HETATM    5  C   UNL     1      -9.457  12.394  67.381  1.00  0.00    -0.186 C  
BRANCH   5   6
HETATM    6  C   UNL     1      -8.587  13.589  66.978  1.00  0.00    -0.169 C  
BRANCH   6   7
HETATM    7  C   UNL     1      -9.195  14.885  67.473  1.00  0.00    -0.194 A  
HETATM    8  C   UNL     1      -9.789  15.782  66.573  1.00  0.00    -0.286 A  
HETATM    9  C   UNL     1     -10.405  16.946  67.039  1.00  0.00    -0.307 A  
HETATM   10  C   UNL     1      -9.225  15.180  68.844  1.00  0.00    -0.209 A  
HETATM   11  C   UNL     1     -10.434  17.225  68.404  1.00  0.00    -0.381 A  
HETATM   12  C   UNL     1      -9.841  16.344  69.307  1.00  0.00    -0.240 A  
ENDBRANCH   6   7
ENDBRANCH   5   6
ENDBRANCH   4   5
ENDBRANCH   3   4
BRANCH   3  13
HETATM   13  C   UNL     1     -10.910  10.269  68.223  1.00  0.00    -0.255 C  
BRANCH  13  14
HETATM   14  C   UNL     1     -12.091  10.593  69.137  1.00  0.00    -0.152 C  
BRANCH  14  15
HETATM   15  C   UNL     1     -11.660  10.985  70.554  1.00  0.00    -0.344 C  
BRANCH  15  16
HETATM   16  C   UNL     1     -12.309  12.299  70.910  1.00  0.00    -0.363 A  
HETATM   17  C   UNL     1     -13.742  14.651  71.392  1.00  0.00    -0.474 A  
HETATM   18  C   UNL     1     -12.826  14.595  70.339  1.00  0.00    -0.321 A  
HETATM   19  C   UNL     1     -13.215  12.369  71.977  1.00  0.00    -0.514 A  
HETATM   20  C   UNL     1     -13.929  13.544  72.212  1.00  0.00    -0.638 A  
HETATM   21  C   UNL     1     -12.108  13.425  70.103  1.00  0.00    -0.415 A  
ENDBRANCH  15  16
ENDBRANCH  14  15
ENDBRANCH  13  14
ENDBRANCH   3  13
ENDBRANCH   2   3
TORSDOF 9
ENDMDL
MODEL      201
REMARK 921   NORMALIZED FREE ENERGY PREDICTED BY IDOCK:   -4.00 KCAL/MOL
REMARK 922        TOTAL FREE ENERGY PREDICTED BY IDOCK:   -7.63 KCAL/MOL
REMARK 923 INTER-LIGAND FREE ENERGY PREDICTED BY IDOCK:   -6.16 KCAL/MOL
REMARK 924 INTRA-LIGAND FREE ENERGY PREDICTED BY IDOCK:   -1.47 KCAL/MOL
REMARK 927      BINDING AFFINITY PREDICTED BY RF-SCORE:    0.00 PKD
ROOT
HETATM    1  C   UNL     1      -5.808  11.233  67.891  1.00  0.00    -0.043 C  
HETATM    2  C   UNL     1      -7.142  11.842  68.310  1.00  0.00    -0.079 C  
ENDROOT
BRANCH   2   3
HETATM    3  N   UNL     1      -7.911  12.513  67.237  1.00  0.00    -0.171 NA 
BRANCH   3   4
HETATM    4  C   UNL     1      -8.892  11.606  66.611  1.00  0.00    -0.187 C  
BRANCH   4   5
HETATM    5  C   UNL     1      -9.519  10.547  67.539  1.00  0.00    -0.166 C  
BRANCH   5   6
HETATM    6  C   UNL     1     -10.968  10.843  67.939  1.00  0.00    -0.325 C  
BRANCH   6   7
HETATM    7  C   UNL     1     -11.243  10.368  69.350  1.00  0.00    -0.314 A  
HETATM    8  C   UNL     1     -12.481  10.620  69.958  1.00  0.00    -0.294 A  
HETATM    9  C   UNL     1     -12.755  10.126  71.236  1.00  0.00    -0.509 A  
HETATM   10  C   UNL     1     -10.285   9.617  70.048  1.00  0.00    -0.296 A  
HETATM   11  C   UNL     1     -11.798   9.376  71.917  1.00  0.00    -0.402 A  
HETATM   12  C   UNL     1     -10.561   9.124  71.325  1.00  0.00    -0.399 A  
ENDBRANCH   6   7
ENDBRANCH   5   6
ENDBRANCH   4   5
ENDBRANCH   3   4
BRANCH   3  13
HETATM   13  C   UNL     1      -8.575  13.721  67.772  1.00  0.00    -0.184 C  
BRANCH  13  14
HETATM   14  C   UNL     1      -8.539  14.943  66.852  1.00  0.00    -0.269 C  
BRANCH  14  15
HETATM   15  C   UNL     1      -9.921  15.565  66.630  1.00  0.00    -0.272 C  
BRANCH  15  16
HETATM   16  C   UNL     1     -10.773  14.586  65.862  1.00  0.00    -0.308 A  
HETATM   17  C   UNL     1     -12.208  12.552  64.589  1.00  0.00    -0.524 A  
HETATM   18  C   UNL     1     -11.021  13.025  64.027  1.00  0.00    -0.422 A  
HETATM   19  C   UNL     1     -11.975  14.120  66.411  1.00  0.00    -0.457 A  
HETATM   20  C   UNL     1     -12.686  13.103  65.773  1.00  0.00    -0.202 A  
HETATM   21  C   UNL     1     -10.309  14.042  64.658  1.00  0.00    -0.337 A  
ENDBRANCH  15  16
ENDBRANCH  14  15
ENDBRANCH  13  14
ENDBRANCH   3  13
ENDBRANCH   2   3
TORSDOF 9
ENDMDL
MODEL      202
REMARK 921   NORMALIZED FREE ENERGY PREDICTED BY IDOCK:   -4.00 KCAL/MOL
REMARK 922        TOTAL FREE ENERGY PREDICTED BY IDOCK:   -7.61 KCAL/MOL
REMARK 923 INTER-LIGAND FREE ENERGY PREDICTED BY IDOCK:   -6.60 KCAL/MOL
REMARK 924 INTRA-LIGAND FREE ENERGY PREDICTED BY IDOCK:   -1.01 KCAL/MOL
REMARK 927      BINDING AFFINITY PREDICTED BY RF-SCORE:    0.00 PKD
ROOT
HETATM    1  C   UNL     1      -9.503  16.489  69.169  1.00  0.00    -0.212 C  
HETATM    2  C   UNL     1      -9.862  17.854  68.593  1.00  0.00    -0.374 C  
ENDROOT
BRANCH   2   3
HETATM    3  N   UNL     1      -9.671  18.010  67.133  1.00  0.00    -0.288 NA 
BRANCH   3   4
HETATM    4  C   UNL     1     -10.740  17.343  66.363  1.00  0.00    -0.084 C  
BRANCH   4   5
HETATM    5  C   UNL     1     -10.333  16.058  65.617  1.00  0.00    -0.414 C  
BRANCH   5   6
HETATM    6  C   UNL     1     -10.793  14.765  66.299  1.00  0.00    -0.322 C  
BRANCH   6   7
HETATM    7  C   UNL     1     -11.046  13.679  65.274  1.00  0.00    -0.307 A  
HETATM    8  C   UNL     1     -10.257  12.520  65.256  1.00  0.00    -0.302 A  
HETATM    9  C   UNL     1     -10.533  11.492  64.351  1.00  0.00    -0.380 A  
HETATM   10  C   UNL     1     -12.110  13.790  64.367  1.00  0.00    -0.474 A  
HETATM   11  C   UNL     1     -11.596  11.611  63.459  1.00  0.00    -0.408 A  
HETATM   12  C   UNL     1     -12.384  12.761  63.464  1.00  0.00    -0.559 A  
ENDBRANCH   6   7
ENDBRANCH   5   6
ENDBRANCH   4   5
ENDBRANCH   3   4
BRANCH   3  13
HETATM   13  C   UNL     1      -9.585  19.444  66.784  1.00  0.00    -0.346 C  
BRANCH  13  14
HETATM   14  C   UNL     1      -8.245  19.891  66.199  1.00  0.00    -0.346 C  
BRANCH  14  15
HETATM   15  C   UNL     1      -7.101  18.925  66.521  1.00  0.00    -0.236 C  
BRANCH  15  16
HETATM   16  C   UNL     1      -6.548  19.267  67.881  1.00  0.00    -0.254 A  
HETATM   17  C   UNL     1      -5.251  19.923  70.270  1.00  0.00    -0.241 A  
HETATM   18  C   UNL     1      -5.398  18.584  69.900  1.00  0.00    -0.213 A  
HETATM   19  C   UNL     1      -6.414  20.608  68.267  1.00  0.00    -0.327 A  
HETATM   20  C   UNL     1      -5.763  20.930  69.459  1.00  0.00    -0.309 A  
HETATM   21  C   UNL     1      -6.050  18.258  68.714  1.00  0.00    -0.207 A  
ENDBRANCH  15  16
ENDBRANCH  14  15
ENDBRANCH  13  14
ENDBRANCH   3  13
ENDBRANCH   2   3
TORSDOF 9
ENDMDL
MODEL      203
REMARK 921   NORMALIZED FREE ENERGY PREDICTED BY IDOCK:   -3.98 KCAL/MOL
REMARK 922        TOTAL FREE ENERGY PREDICTED BY IDOCK:   -7.59 KCAL/MOL
REMARK 923 INTER-LIGAND FREE ENERGY PREDICTED BY IDOCK:   -5.67 KCAL/MOL
REMARK 924 INTRA-LIGAND FREE ENERGY PREDICTED BY IDOCK:   -1.91 KCAL/MOL
REMARK 927      BINDING AFFINITY PREDICTED BY RF-SCORE:    0.00 PKD
ROOT
HETATM    1  C   UNL     1      -7.521  11.378  67.801  1.00  0.00    -0.100 C  
HETATM    2  C   UNL     1      -8.048  10.502  68.932  1.00  0.00    -0.138 C  
ENDROOT
BRANCH   2   3
HETATM    3  N   UNL     1      -9.470  10.702  69.295  1.00  0.00    -0.175 NA 
BRANCH   3   4
HETATM    4  C   UNL     1     -10.111  11.740  68.465  1.00  0.00    -0.207 C  
BRANCH   4   5
HETATM    5  C   UNL     1     -11.544  12.138  68.869  1.00  0.00    -0.377 C  
BRANCH   5   6
HETATM    6  C   UNL     1     -11.865  13.622  68.659  1.00  0.00    -0.409 C  
BRANCH   6   7
HETATM    7  C   UNL     1     -11.490  14.059  67.259  1.00  0.00    -0.372 A  
HETATM    8  C   UNL     1     -12.189  13.565  66.148  1.00  0.00    -0.484 A  
HETATM    9  C   UNL     1     -11.883  14.018  64.862  1.00  0.00    -0.402 A  
HETATM   10  C   UNL     1     -10.478  15.008  67.056  1.00  0.00    -0.278 A  
HETATM   11  C   UNL     1     -10.879  14.966  64.673  1.00  0.00    -0.296 A  
HETATM   12  C   UNL     1     -10.174  15.459  65.770  1.00  0.00    -0.378 A  
ENDBRANCH   6   7
ENDBRANCH   5   6
ENDBRANCH   4   5
ENDBRANCH   3   4
BRANCH   3  13
HETATM   13  C   UNL     1     -10.202   9.421  69.195  1.00  0.00    -0.202 C  
BRANCH  13  14
HETATM   14  C   UNL     1      -9.571   8.382  68.266  1.00  0.00    -0.156 C  
BRANCH  14  15
HETATM   15  C   UNL     1     -10.392   8.140  66.996  1.00  0.00    -0.403 C  
BRANCH  15  16
HETATM   16  C   UNL     1      -9.721   8.847  65.846  1.00  0.00    -0.259 A  
HETATM   17  C   UNL     1      -8.328  10.320  63.920  1.00  0.00    -0.165 A  
HETATM   18  C   UNL     1      -9.568  10.769  64.380  1.00  0.00    -0.330 A  
HETATM   19  C   UNL     1      -8.486   8.392  65.365  1.00  0.00    -0.193 A  
HETATM   20  C   UNL     1      -7.793   9.132  64.407  1.00  0.00    -0.125 A  
HETATM   21  C   UNL     1     -10.265  10.032  65.334  1.00  0.00    -0.226 A  
ENDBRANCH  15  16
ENDBRANCH  14  15
ENDBRANCH  13  14
ENDBRANCH   3  13
ENDBRANCH   2   3
TORSDOF 9
ENDMDL
MODEL      204
REMARK 921   NORMALIZED FREE ENERGY PREDICTED BY IDOCK:   -3.96 KCAL/MOL
REMARK 922        TOTAL FREE ENERGY PREDICTED BY IDOCK:   -7.55 KCAL/MOL
REMARK 923 INTER-LIGAND FREE ENERGY PREDICTED BY IDOCK:   -6.56 KCAL/MOL
REMARK 924 INTRA-LIGAND FREE ENERGY PREDICTED BY IDOCK:   -0.99 KCAL/MOL
REMARK 927      BINDING AFFINITY PREDICTED BY RF-SCORE:    0.00 PKD
ROOT
HETATM    1  C   UNL     1     -10.577  19.322  66.790  1.00  0.00    -0.543 C  
HETATM    2  C   UNL     1     -10.657  18.444  68.035  1.00  0.00    -0.318 C  
ENDROOT
BRANCH   2   3
HETATM    3  N   UNL     1     -10.003  17.119  67.934  1.00  0.00    -0.281 NA 
BRANCH   3   4
HETATM    4  C   UNL     1      -9.152  16.833  69.106  1.00  0.00    -0.120 C  
BRANCH   4   5
HETATM    5  C   UNL     1      -7.639  16.732  68.833  1.00  0.00    -0.239 C  
BRANCH   5   6
HETATM    6  C   UNL     1      -6.886  18.058  68.976  1.00  0.00    -0.250 C  
BRANCH   6   7
HETATM    7  C   UNL     1      -6.704  18.720  67.626  1.00  0.00    -0.211 A  
HETATM    8  C   UNL     1      -6.099  18.025  66.569  1.00  0.00    -0.214 A  
HETATM    9  C   UNL     1      -5.989  18.614  65.307  1.00  0.00    -0.296 A  
HETATM   10  C   UNL     1      -7.190  20.015  67.396  1.00  0.00    -0.295 A  
HETATM   11  C   UNL     1      -6.481  19.900  65.089  1.00  0.00    -0.320 A  
HETATM   12  C   UNL     1      -7.079  20.602  66.134  1.00  0.00    -0.172 A  
ENDBRANCH   6   7
ENDBRANCH   5   6
ENDBRANCH   4   5
ENDBRANCH   3   4
BRANCH   3  13
HETATM   13  C   UNL     1     -11.022  16.064  67.752  1.00  0.00    -0.307 C  
BRANCH  13  14
HETATM   14  C   UNL     1     -10.483  14.633  67.745  1.00  0.00    -0.246 C  
BRANCH  14  15
HETATM   15  C   UNL     1     -11.572  13.585  67.501  1.00  0.00    -0.385 C  
BRANCH  15  16
HETATM   16  C   UNL     1     -11.847  12.863  68.796  1.00  0.00    -0.353 A  
HETATM   17  C   UNL     1     -12.646  11.515  71.111  1.00  0.00    -0.463 A  
HETATM   18  C   UNL     1     -12.623  12.911  71.089  1.00  0.00    -0.373 A  
HETATM   19  C   UNL     1     -11.853  11.462  68.831  1.00  0.00    -0.413 A  
HETATM   20  C   UNL     1     -12.255  10.794  69.988  1.00  0.00    -0.409 A  
HETATM   21  C   UNL     1     -12.219  13.582  69.938  1.00  0.00    -0.356 A  
ENDBRANCH  15  16
ENDBRANCH  14  15
ENDBRANCH  13  14
ENDBRANCH   3  13
ENDBRANCH   2   3
TORSDOF 9
ENDMDL
MODEL      205
REMARK 921   NORMALIZED FREE ENERGY PREDICTED BY IDOCK:   -3.94 KCAL/MOL
REMARK 922        TOTAL FREE ENERGY PREDICTED BY IDOCK:   -7.53 KCAL/MOL
REMARK 923 INTER-LIGAND FREE ENERGY PREDICTED BY IDOCK:   -6.46 KCAL/MOL
REMARK 924 INTRA-LIGAND FREE ENERGY PREDICTED BY IDOCK:   -1.07 KCAL/MOL
REMARK 927      BINDING AFFINITY PREDICTED BY RF-SCORE:    0.00 PKD
ROOT
HETATM    1  C   UNL     1     -12.022  10.823  69.224  1.00  0.00    -0.334 C  
HETATM    2  C   UNL     1     -11.596  12.281  69.091  1.00  0.00    -0.318 C  
ENDROOT
BRANCH   2   3
HETATM    3  N   UNL     1     -10.802  12.615  67.887  1.00  0.00    -0.213 NA 
BRANCH   3   4
HETATM    4  C   UNL     1     -11.548  12.346  66.642  1.00  0.00    -0.385 C  
BRANCH   4   5
HETATM    5  C   UNL     1     -10.696  11.990  65.408  1.00  0.00    -0.330 C  
BRANCH   5   6
HETATM    6  C   UNL     1     -10.302  10.511  65.325  1.00  0.00    -0.300 C  
BRANCH   6   7
HETATM    7  C   UNL     1      -9.115  10.221  66.218  1.00  0.00    -0.178 A  
HETATM    8  C   UNL     1      -7.925  10.950  66.080  1.00  0.00    -0.155 A  
HETATM    9  C   UNL     1      -6.853  10.725  66.947  1.00  0.00    -0.101 A  
HETATM   10  C   UNL     1      -9.207   9.261  67.236  1.00  0.00    -0.149 A  
HETATM   11  C   UNL     1      -6.959   9.772  67.958  1.00  0.00    -0.077 A  
HETATM   12  C   UNL     1      -8.135   9.037  68.101  1.00  0.00    -0.105 A  
ENDBRANCH   6   7
ENDBRANCH   5   6
ENDBRANCH   4   5
ENDBRANCH   3   4
BRANCH   3  13
HETATM   13  C   UNL     1     -10.362  14.025  67.945  1.00  0.00    -0.239 C  
BRANCH  13  14
HETATM   14  C   UNL     1     -11.369  14.994  68.567  1.00  0.00    -0.317 C  
BRANCH  14  15
HETATM   15  C   UNL     1     -10.845  15.662  69.842  1.00  0.00    -0.324 C  
BRANCH  15  16
HETATM   16  C   UNL     1     -11.886  15.521  70.924  1.00  0.00    -0.413 A  
HETATM   17  C   UNL     1     -13.768  14.962  72.914  1.00  0.00    -0.427 A  
HETATM   18  C   UNL     1     -14.165  15.024  71.577  1.00  0.00    -0.633 A  
HETATM   19  C   UNL     1     -11.499  15.477  72.270  1.00  0.00    -0.496 A  
HETATM   20  C   UNL     1     -12.441  15.195  73.259  1.00  0.00    -0.598 A  
HETATM   21  C   UNL     1     -13.228  15.309  70.586  1.00  0.00    -0.370 A  
ENDBRANCH  15  16
ENDBRANCH  14  15
ENDBRANCH  13  14
ENDBRANCH   3  13
ENDBRANCH   2   3
TORSDOF 9
ENDMDL
MODEL      206
REMARK 921   NORMALIZED FREE ENERGY PREDICTED BY IDOCK:   -3.94 KCAL/MOL
REMARK 922        TOTAL FREE ENERGY PREDICTED BY IDOCK:   -7.52 KCAL/MOL
REMARK 923 INTER-LIGAND FREE ENERGY PREDICTED BY IDOCK:   -6.91 KCAL/MOL
REMARK 924 INTRA-LIGAND FREE ENERGY PREDICTED BY IDOCK:   -0.61 KCAL/MOL
REMARK 927      BINDING AFFINITY PREDICTED BY RF-SCORE:    0.00 PKD
ROOT
HETATM    1  C   UNL     1     -10.564   7.197  67.479  1.00  0.00    -0.348 C  
HETATM    2  C   UNL     1      -9.315   7.986  67.856  1.00  0.00    -0.138 C  
ENDROOT
BRANCH   2   3
HETATM    3  N   UNL     1      -9.528   9.144  68.753  1.00  0.00    -0.146 NA 
BRANCH   3   4
HETATM    4  C   UNL     1     -10.892   9.694  68.629  1.00  0.00    -0.167 C  
BRANCH   4   5
HETATM    5  C   UNL     1     -10.986  11.184  68.245  1.00  0.00    -0.278 C  
BRANCH   5   6
HETATM    6  C   UNL     1      -9.998  11.614  67.156  1.00  0.00    -0.219 C  
BRANCH   6   7
HETATM    7  C   UNL     1     -10.733  12.031  65.899  1.00  0.00    -0.314 A  
HETATM    8  C   UNL     1     -10.165  11.811  64.636  1.00  0.00    -0.326 A  
HETATM    9  C   UNL     1     -10.871  12.138  63.477  1.00  0.00    -0.518 A  
HETATM   10  C   UNL     1     -12.018  12.588  65.977  1.00  0.00    -0.456 A  
HETATM   11  C   UNL     1     -12.150  12.686  63.566  1.00  0.00    -0.648 A  
HETATM   12  C   UNL     1     -12.722  12.914  64.817  1.00  0.00    -0.442 A  
ENDBRANCH   6   7
ENDBRANCH   5   6
ENDBRANCH   4   5
ENDBRANCH   3   4
BRANCH   3  13
HETATM   13  C   UNL     1      -9.239   8.760  70.152  1.00  0.00    -0.169 C  
BRANCH  13  14
HETATM   14  C   UNL     1     -10.367   9.036  71.147  1.00  0.00    -0.362 C  
BRANCH  14  15
HETATM   15  C   UNL     1     -11.427   7.931  71.171  1.00  0.00    -0.297 C  
BRANCH  15  16
HETATM   16  C   UNL     1     -11.150   7.021  72.341  1.00  0.00    -0.294 A  
HETATM   17  C   UNL     1     -10.394   5.238  74.358  1.00  0.00    -0.302 A  
HETATM   18  C   UNL     1     -11.266   4.822  73.350  1.00  0.00    -0.425 A  
HETATM   19  C   UNL     1     -10.291   7.438  73.367  1.00  0.00    -0.411 A  
HETATM   20  C   UNL     1      -9.914   6.543  74.369  1.00  0.00    -0.374 A  
HETATM   21  C   UNL     1     -11.648   5.712  72.348  1.00  0.00    -0.281 A  
ENDBRANCH  15  16
ENDBRANCH  14  15
ENDBRANCH  13  14
ENDBRANCH   3  13
ENDBRANCH   2   3
TORSDOF 9
ENDMDL
MODEL      207
REMARK 921   NORMALIZED FREE ENERGY PREDICTED BY IDOCK:   -3.93 KCAL/MOL
REMARK 922        TOTAL FREE ENERGY PREDICTED BY IDOCK:   -7.51 KCAL/MOL
REMARK 923 INTER-LIGAND FREE ENERGY PREDICTED BY IDOCK:   -4.98 KCAL/MOL
REMARK 924 INTRA-LIGAND FREE ENERGY PREDICTED BY IDOCK:   -2.53 KCAL/MOL
REMARK 927      BINDING AFFINITY PREDICTED BY RF-SCORE:    0.00 PKD
ROOT
HETATM    1  C   UNL     1     -12.681  13.381  65.883  1.00  0.00    -0.317 C  
HETATM    2  C   UNL     1     -11.777  13.443  67.108  1.00  0.00    -0.379 C  
ENDROOT
BRANCH   2   3
HETATM    3  N   UNL     1     -11.156  12.163  67.518  1.00  0.00    -0.259 NA 
BRANCH   3   4
HETATM    4  C   UNL     1      -9.762  12.049  67.045  1.00  0.00    -0.196 C  
BRANCH   4   5
HETATM    5  C   UNL     1      -9.226  10.615  66.863  1.00  0.00    -0.172 C  
BRANCH   5   6
HETATM    6  C   UNL     1      -8.630  10.004  68.135  1.00  0.00    -0.118 C  
BRANCH   6   7
HETATM    7  C   UNL     1      -8.626   8.491  68.052  1.00  0.00    -0.134 A  
HETATM    8  C   UNL     1      -7.448   7.768  68.285  1.00  0.00    -0.104 A  
HETATM    9  C   UNL     1      -7.461   6.372  68.271  1.00  0.00    -0.091 A  
HETATM   10  C   UNL     1      -9.814   7.789  67.799  1.00  0.00    -0.200 A  
HETATM   11  C   UNL     1      -8.648   5.685  68.024  1.00  0.00    -0.101 A  
HETATM   12  C   UNL     1      -9.825   6.393  67.784  1.00  0.00    -0.136 A  
ENDBRANCH   6   7
ENDBRANCH   5   6
ENDBRANCH   4   5
ENDBRANCH   3   4
BRANCH   3  13
HETATM   13  C   UNL     1     -11.228  12.013  68.987  1.00  0.00    -0.258 C  
BRANCH  13  14
HETATM   14  C   UNL     1     -11.888  10.723  69.477  1.00  0.00    -0.380 C  
BRANCH  14  15
HETATM   15  C   UNL     1     -11.723  10.503  70.984  1.00  0.00    -0.384 C  
BRANCH  15  16
HETATM   16  C   UNL     1     -11.277   9.082  71.219  1.00  0.00    -0.385 A  
HETATM   17  C   UNL     1     -10.360   6.445  71.365  1.00  0.00    -0.240 A  
HETATM   18  C   UNL     1     -11.688   6.704  71.017  1.00  0.00    -0.415 A  
HETATM   19  C   UNL     1      -9.951   8.814  71.587  1.00  0.00    -0.381 A  
HETATM   20  C   UNL     1      -9.498   7.496  71.656  1.00  0.00    -0.170 A  
HETATM   21  C   UNL     1     -12.145   8.018  70.950  1.00  0.00    -0.164 A  
ENDBRANCH  15  16
ENDBRANCH  14  15
ENDBRANCH  13  14
ENDBRANCH   3  13
ENDBRANCH   2   3
TORSDOF 9
ENDMDL
MODEL      208
REMARK 921   NORMALIZED FREE ENERGY PREDICTED BY IDOCK:   -3.92 KCAL/MOL
REMARK 922        TOTAL FREE ENERGY PREDICTED BY IDOCK:   -7.49 KCAL/MOL
REMARK 923 INTER-LIGAND FREE ENERGY PREDICTED BY IDOCK:   -6.19 KCAL/MOL
REMARK 924 INTRA-LIGAND FREE ENERGY PREDICTED BY IDOCK:   -1.31 KCAL/MOL
REMARK 927      BINDING AFFINITY PREDICTED BY RF-SCORE:    0.00 PKD
ROOT
HETATM    1  C   UNL     1      -6.162  11.186  66.913  1.00  0.00    -0.111 C  
HETATM    2  C   UNL     1      -5.992  12.626  67.385  1.00  0.00    -0.131 C  
ENDROOT
BRANCH   2   3
HETATM    3  N   UNL     1      -7.163  13.512  67.189  1.00  0.00     0.014 NA 
BRANCH   3   4
HETATM    4  C   UNL     1      -8.430  12.755  67.163  1.00  0.00    -0.181 C  
BRANCH   4   5
HETATM    5  C   UNL     1      -9.681  13.547  66.738  1.00  0.00    -0.271 C  
BRANCH   5   6
HETATM    6  C   UNL     1     -11.005  12.895  67.147  1.00  0.00    -0.290 C  
BRANCH   6   7
HETATM    7  C   UNL     1     -11.573  13.562  68.382  1.00  0.00    -0.378 A  
HETATM    8  C   UNL     1     -11.862  12.809  69.529  1.00  0.00    -0.379 A  
HETATM    9  C   UNL     1     -12.326  13.436  70.688  1.00  0.00    -0.423 A  
HETATM   10  C   UNL     1     -11.763  14.951  68.417  1.00  0.00    -0.336 A  
HETATM   11  C   UNL     1     -12.506  14.818  70.713  1.00  0.00    -0.402 A  
HETATM   12  C   UNL     1     -12.227  15.576  69.576  1.00  0.00    -0.264 A  
ENDBRANCH   6   7
ENDBRANCH   5   6
ENDBRANCH   4   5
ENDBRANCH   3   4
BRANCH   3  13
HETATM   13  C   UNL     1      -7.191  14.553  68.239  1.00  0.00    -0.119 C  
BRANCH  13  14
HETATM   14  C   UNL     1      -7.607  15.945  67.762  1.00  0.00    -0.157 C  
BRANCH  14  15
HETATM   15  C   UNL     1      -8.562  16.648  68.731  1.00  0.00    -0.261 C  
BRANCH  15  16
HETATM   16  C   UNL     1      -9.037  17.930  68.097  1.00  0.00    -0.278 A  
HETATM   17  C   UNL     1      -9.788  20.211  66.664  1.00  0.00    -0.588 A  
HETATM   18  C   UNL     1      -8.576  20.191  67.359  1.00  0.00    -0.413 A  
HETATM   19  C   UNL     1     -10.261  17.965  67.414  1.00  0.00    -0.363 A  
HETATM   20  C   UNL     1     -10.629  19.105  66.698  1.00  0.00    -0.520 A  
HETATM   21  C   UNL     1      -8.205  19.057  68.077  1.00  0.00    -0.334 A  
ENDBRANCH  15  16
ENDBRANCH  14  15
ENDBRANCH  13  14
ENDBRANCH   3  13
ENDBRANCH   2   3
TORSDOF 9
ENDMDL
MODEL      209
REMARK 921   NORMALIZED FREE ENERGY PREDICTED BY IDOCK:   -3.91 KCAL/MOL
REMARK 922        TOTAL FREE ENERGY PREDICTED BY IDOCK:   -7.49 KCAL/MOL
REMARK 923 INTER-LIGAND FREE ENERGY PREDICTED BY IDOCK:   -5.35 KCAL/MOL
REMARK 924 INTRA-LIGAND FREE ENERGY PREDICTED BY IDOCK:   -2.14 KCAL/MOL
REMARK 927      BINDING AFFINITY PREDICTED BY RF-SCORE:    0.00 PKD
ROOT
HETATM    1  C   UNL     1     -12.401  14.495  71.306  1.00  0.00    -0.418 C  
HETATM    2  C   UNL     1     -12.461  14.035  69.853  1.00  0.00    -0.246 C  
ENDROOT
BRANCH   2   3
HETATM    3  N   UNL     1     -11.266  13.319  69.352  1.00  0.00    -0.202 NA 
BRANCH   3   4
HETATM    4  C   UNL     1     -11.625  12.232  68.420  1.00  0.00    -0.326 C  
BRANCH   4   5
HETATM    5  C   UNL     1     -10.978  10.861  68.700  1.00  0.00    -0.274 C  
BRANCH   5   6
HETATM    6  C   UNL     1     -11.185   9.831  67.585  1.00  0.00     0.027 C  
BRANCH   6   7
HETATM    7  C   UNL     1      -9.964   9.752  66.694  1.00  0.00    -0.292 A  
HETATM    8  C   UNL     1      -8.825  10.519  66.978  1.00  0.00    -0.142 A  
HETATM    9  C   UNL     1      -7.676  10.397  66.192  1.00  0.00    -0.129 A  
HETATM   10  C   UNL     1      -9.931   8.867  65.606  1.00  0.00     0.168 A  
HETATM   11  C   UNL     1      -7.654   9.510  65.117  1.00  0.00    -0.112 A  
HETATM   12  C   UNL     1      -8.783   8.747  64.822  1.00  0.00    -0.133 A  
ENDBRANCH   6   7
ENDBRANCH   5   6
ENDBRANCH   4   5
ENDBRANCH   3   4
BRANCH   3  13
HETATM   13  C   UNL     1     -10.334  14.274  68.716  1.00  0.00    -0.239 C  
BRANCH  13  14
HETATM   14  C   UNL     1     -10.758  14.773  67.334  1.00  0.00    -0.281 C  
BRANCH  14  15
HETATM   15  C   UNL     1      -9.855  14.259  66.210  1.00  0.00    -0.323 C  
BRANCH  15  16
HETATM   16  C   UNL     1     -10.708  13.536  65.198  1.00  0.00    -0.349 A  
HETATM   17  C   UNL     1     -12.299  11.965  63.519  1.00  0.00    -0.603 A  
HETATM   18  C   UNL     1     -10.908  11.901  63.422  1.00  0.00    -0.469 A  
HETATM   19  C   UNL     1     -12.105  13.611  65.276  1.00  0.00    -0.429 A  
HETATM   20  C   UNL     1     -12.895  12.823  64.438  1.00  0.00    -0.288 A  
HETATM   21  C   UNL     1     -10.115  12.687  64.255  1.00  0.00    -0.292 A  
ENDBRANCH  15  16
ENDBRANCH  14  15
ENDBRANCH  13  14
ENDBRANCH   3  13
ENDBRANCH   2   3
TORSDOF 9
ENDMDL
MODEL      210
REMARK 921   NORMALIZED FREE ENERGY PREDICTED BY IDOCK:   -3.90 KCAL/MOL
REMARK 922        TOTAL FREE ENERGY PREDICTED BY IDOCK:   -7.47 KCAL/MOL
REMARK 923 INTER-LIGAND FREE ENERGY PREDICTED BY IDOCK:   -5.14 KCAL/MOL
REMARK 924 INTRA-LIGAND FREE ENERGY PREDICTED BY IDOCK:   -2.34 KCAL/MOL
REMARK 927      BINDING AFFINITY PREDICTED BY RF-SCORE:    0.00 PKD
ROOT
HETATM    1  C   UNL     1     -10.095   9.125  71.046  1.00  0.00    -0.373 C  
HETATM    2  C   UNL     1     -11.264  10.049  70.722  1.00  0.00    -0.352 C  
ENDROOT
BRANCH   2   3
HETATM    3  N   UNL     1     -11.054  10.983  69.592  1.00  0.00    -0.261 NA 
BRANCH   3   4
HETATM    4  C   UNL     1     -11.674  10.490  68.347  1.00  0.00    -0.010 C  
BRANCH   4   5
HETATM    5  C   UNL     1     -10.753  10.430  67.112  1.00  0.00    -0.316 C  
BRANCH   5   6
HETATM    6  C   UNL     1      -9.339   9.922  67.410  1.00  0.00    -0.158 C  
BRANCH   6   7
HETATM    7  C   UNL     1      -8.381  11.080  67.599  1.00  0.00    -0.117 A  
HETATM    8  C   UNL     1      -8.543  12.264  66.866  1.00  0.00    -0.182 A  
HETATM    9  C   UNL     1      -7.697  13.354  67.088  1.00  0.00     0.002 A  
HETATM   10  C   UNL     1      -7.355  11.007  68.552  1.00  0.00    -0.101 A  
HETATM   11  C   UNL     1      -6.685  13.271  68.042  1.00  0.00    -0.127 A  
HETATM   12  C   UNL     1      -6.511  12.097  68.773  1.00  0.00    -0.078 A  
ENDBRANCH   6   7
ENDBRANCH   5   6
ENDBRANCH   4   5
ENDBRANCH   3   4
BRANCH   3  13
HETATM   13  C   UNL     1     -11.568  12.324  69.943  1.00  0.00    -0.203 C  
BRANCH  13  14
HETATM   14  C   UNL     1     -10.963  13.481  69.146  1.00  0.00    -0.220 C  
BRANCH  14  15
HETATM   15  C   UNL     1     -12.020  14.343  68.449  1.00  0.00    -0.328 C  
BRANCH  15  16
HETATM   16  C   UNL     1     -11.797  14.269  66.960  1.00  0.00    -0.455 A  
HETATM   17  C   UNL     1     -11.155  13.942  64.258  1.00  0.00    -0.250 A  
HETATM   18  C   UNL     1     -10.572  14.976  64.994  1.00  0.00    -0.437 A  
HETATM   19  C   UNL     1     -12.394  13.245  66.210  1.00  0.00    -0.382 A  
HETATM   20  C   UNL     1     -12.069  13.085  64.863  1.00  0.00    -0.459 A  
HETATM   21  C   UNL     1     -10.897  15.142  66.338  1.00  0.00    -0.326 A  
ENDBRANCH  15  16
ENDBRANCH  14  15
ENDBRANCH  13  14
ENDBRANCH   3  13
ENDBRANCH   2   3
TORSDOF 9
ENDMDL
MODEL      211
REMARK 921   NORMALIZED FREE ENERGY PREDICTED BY IDOCK:   -3.90 KCAL/MOL
REMARK 922        TOTAL FREE ENERGY PREDICTED BY IDOCK:   -7.47 KCAL/MOL
REMARK 923 INTER-LIGAND FREE ENERGY PREDICTED BY IDOCK:   -6.69 KCAL/MOL
REMARK 924 INTRA-LIGAND FREE ENERGY PREDICTED BY IDOCK:   -0.79 KCAL/MOL
REMARK 927      BINDING AFFINITY PREDICTED BY RF-SCORE:    0.00 PKD
ROOT
HETATM    1  C   UNL     1      -9.702   5.606  67.691  1.00  0.00    -0.135 C  
HETATM    2  C   UNL     1     -10.365   6.806  67.023  1.00  0.00    -0.268 C  
ENDROOT
BRANCH   2   3
HETATM    3  N   UNL     1     -10.616   7.975  67.897  1.00  0.00    -0.185 NA 
BRANCH   3   4
HETATM    4  C   UNL     1     -10.478   7.634  69.326  1.00  0.00    -0.218 C  
BRANCH   4   5
HETATM    5  C   UNL     1     -11.198   8.571  70.316  1.00  0.00    -0.185 C  
BRANCH   5   6
HETATM    6  C   UNL     1     -10.264   9.277  71.304  1.00  0.00    -0.383 C  
BRANCH   6   7
HETATM    7  C   UNL     1      -9.835   8.330  72.405  1.00  0.00    -0.375 A  
HETATM    8  C   UNL     1      -8.497   8.283  72.822  1.00  0.00    -0.248 A  
HETATM    9  C   UNL     1      -8.114   7.456  73.881  1.00  0.00    -0.174 A  
HETATM   10  C   UNL     1     -10.779   7.530  73.065  1.00  0.00    -0.438 A  
HETATM   11  C   UNL     1      -9.063   6.670  74.532  1.00  0.00    -0.221 A  
HETATM   12  C   UNL     1     -10.395   6.704  74.123  1.00  0.00    -0.347 A  
ENDBRANCH   6   7
ENDBRANCH   5   6
ENDBRANCH   4   5
ENDBRANCH   3   4
BRANCH   3  13
HETATM   13  C   UNL     1      -9.712   9.085  67.529  1.00  0.00    -0.161 C  
BRANCH  13  14
HETATM   14  C   UNL     1     -10.408  10.356  67.042  1.00  0.00    -0.295 C  
BRANCH  14  15
HETATM   15  C   UNL     1     -10.286  10.562  65.529  1.00  0.00    -0.325 C  
BRANCH  15  16
HETATM   16  C   UNL     1     -11.156  11.727  65.128  1.00  0.00    -0.341 A  
HETATM   17  C   UNL     1     -12.513  14.040  64.339  1.00  0.00    -0.326 A  
HETATM   18  C   UNL     1     -12.214  13.833  65.687  1.00  0.00    -0.484 A  
HETATM   19  C   UNL     1     -11.478  11.932  63.780  1.00  0.00    -0.542 A  
HETATM   20  C   UNL     1     -12.153  13.089  63.390  1.00  0.00    -0.591 A  
HETATM   21  C   UNL     1     -11.543  12.677  66.081  1.00  0.00    -0.445 A  
ENDBRANCH  15  16
ENDBRANCH  14  15
ENDBRANCH  13  14
ENDBRANCH   3  13
ENDBRANCH   2   3
TORSDOF 9
ENDMDL
MODEL      212
REMARK 921   NORMALIZED FREE ENERGY PREDICTED BY IDOCK:   -3.90 KCAL/MOL
REMARK 922        TOTAL FREE ENERGY PREDICTED BY IDOCK:   -7.47 KCAL/MOL
REMARK 923 INTER-LIGAND FREE ENERGY PREDICTED BY IDOCK:   -6.50 KCAL/MOL
REMARK 924 INTRA-LIGAND FREE ENERGY PREDICTED BY IDOCK:   -0.97 KCAL/MOL
REMARK 927      BINDING AFFINITY PREDICTED BY RF-SCORE:    0.00 PKD
ROOT
HETATM    1  C   UNL     1      -6.862  13.204  68.050  1.00  0.00    -0.118 C  
HETATM    2  C   UNL     1      -8.271  12.919  68.558  1.00  0.00    -0.065 C  
ENDROOT
BRANCH   2   3
HETATM    3  N   UNL     1      -8.814  11.579  68.241  1.00  0.00    -0.161 NA 
BRANCH   3   4
HETATM    4  C   UNL     1      -8.463  10.583  69.273  1.00  0.00    -0.129 C  
BRANCH   4   5
HETATM    5  C   UNL     1      -9.518   9.493  69.545  1.00  0.00    -0.195 C  
BRANCH   5   6
HETATM    6  C   UNL     1      -9.764   9.216  71.032  1.00  0.00    -0.359 C  
BRANCH   6   7
HETATM    7  C   UNL     1     -11.226   8.917  71.287  1.00  0.00    -0.368 A  
HETATM    8  C   UNL     1     -12.160   9.959  71.382  1.00  0.00    -0.501 A  
HETATM    9  C   UNL     1     -13.517   9.679  71.554  1.00  0.00    -0.430 A  
HETATM   10  C   UNL     1     -11.678   7.592  71.375  1.00  0.00    -0.310 A  
HETATM   11  C   UNL     1     -13.954   8.358  71.634  1.00  0.00    -0.460 A  
HETATM   12  C   UNL     1     -13.034   7.314  71.548  1.00  0.00    -0.434 A  
ENDBRANCH   6   7
ENDBRANCH   5   6
ENDBRANCH   4   5
ENDBRANCH   3   4
BRANCH   3  13
HETATM   13  C   UNL     1     -10.279  11.656  68.058  1.00  0.00    -0.190 C  
BRANCH  13  14
HETATM   14  C   UNL     1     -10.933  12.933  68.588  1.00  0.00    -0.295 C  
BRANCH  14  15
HETATM   15  C   UNL     1     -11.698  13.704  67.508  1.00  0.00    -0.406 C  
BRANCH  15  16
HETATM   16  C   UNL     1     -11.098  15.082  67.382  1.00  0.00    -0.324 A  
HETATM   17  C   UNL     1     -10.259  17.730  67.064  1.00  0.00    -0.346 A  
HETATM   18  C   UNL     1     -10.168  16.836  65.995  1.00  0.00    -0.361 A  
HETATM   19  C   UNL     1     -11.168  15.980  68.457  1.00  0.00    -0.374 A  
HETATM   20  C   UNL     1     -10.751  17.301  68.292  1.00  0.00    -0.349 A  
HETATM   21  C   UNL     1     -10.580  15.515  66.156  1.00  0.00    -0.321 A  
ENDBRANCH  15  16
ENDBRANCH  14  15
ENDBRANCH  13  14
ENDBRANCH   3  13
ENDBRANCH   2   3
TORSDOF 9
ENDMDL
MODEL      213
REMARK 921   NORMALIZED FREE ENERGY PREDICTED BY IDOCK:   -3.90 KCAL/MOL
REMARK 922        TOTAL FREE ENERGY PREDICTED BY IDOCK:   -7.47 KCAL/MOL
REMARK 923 INTER-LIGAND FREE ENERGY PREDICTED BY IDOCK:   -5.47 KCAL/MOL
REMARK 924 INTRA-LIGAND FREE ENERGY PREDICTED BY IDOCK:   -2.00 KCAL/MOL
REMARK 927      BINDING AFFINITY PREDICTED BY RF-SCORE:    0.00 PKD
ROOT
HETATM    1  C   UNL     1     -10.245   3.790  73.702  1.00  0.00    -0.212 C  
HETATM    2  C   UNL     1      -9.622   4.560  72.542  1.00  0.00    -0.140 C  
ENDROOT
BRANCH   2   3
HETATM    3  N   UNL     1      -8.703   5.659  72.916  1.00  0.00    -0.122 NA 
BRANCH   3   4
HETATM    4  C   UNL     1      -7.632   5.846  71.918  1.00  0.00    -0.097 C  
BRANCH   4   5
HETATM    5  C   UNL     1      -7.850   5.157  70.557  1.00  0.00    -0.082 C  
BRANCH   5   6
HETATM    6  C   UNL     1      -7.423   6.000  69.351  1.00  0.00    -0.088 C  
BRANCH   6   7
HETATM    7  C   UNL     1      -8.628   6.418  68.535  1.00  0.00    -0.122 A  
HETATM    8  C   UNL     1      -9.881   5.832  68.764  1.00  0.00    -0.181 A  
HETATM    9  C   UNL     1     -11.004   6.264  68.055  1.00  0.00    -0.418 A  
HETATM   10  C   UNL     1      -8.522   7.439  67.580  1.00  0.00    -0.116 A  
HETATM   11  C   UNL     1     -10.887   7.283  67.112  1.00  0.00    -0.378 A  
HETATM   12  C   UNL     1      -9.645   7.870  66.872  1.00  0.00    -0.263 A  
ENDBRANCH   6   7
ENDBRANCH   5   6
ENDBRANCH   4   5
ENDBRANCH   3   4
BRANCH   3  13
HETATM   13  C   UNL     1      -9.465   6.911  73.113  1.00  0.00    -0.150 C  
BRANCH  13  14
HETATM   14  C   UNL     1     -10.633   7.119  72.148  1.00  0.00    -0.238 C  
BRANCH  14  15
HETATM   15  C   UNL     1     -11.609   8.202  72.617  1.00  0.00    -0.441 C  
BRANCH  15  16
HETATM   16  C   UNL     1     -11.722   9.250  71.538  1.00  0.00    -0.450 A  
HETATM   17  C   UNL     1     -11.740  11.360  69.703  1.00  0.00    -0.415 A  
HETATM   18  C   UNL     1     -12.686  11.319  70.729  1.00  0.00    -0.360 A  
HETATM   19  C   UNL     1     -10.787   9.286  70.494  1.00  0.00    -0.318 A  
HETATM   20  C   UNL     1     -10.799  10.343  69.583  1.00  0.00    -0.320 A  
HETATM   21  C   UNL     1     -12.681  10.265  71.639  1.00  0.00    -0.561 A  
ENDBRANCH  15  16
ENDBRANCH  14  15
ENDBRANCH  13  14
ENDBRANCH   3  13
ENDBRANCH   2   3
TORSDOF 9
ENDMDL
MODEL      214
REMARK 921   NORMALIZED FREE ENERGY PREDICTED BY IDOCK:   -3.90 KCAL/MOL
REMARK 922        TOTAL FREE ENERGY PREDICTED BY IDOCK:   -7.46 KCAL/MOL
REMARK 923 INTER-LIGAND FREE ENERGY PREDICTED BY IDOCK:   -6.83 KCAL/MOL
REMARK 924 INTRA-LIGAND FREE ENERGY PREDICTED BY IDOCK:   -0.63 KCAL/MOL
REMARK 927      BINDING AFFINITY PREDICTED BY RF-SCORE:    0.00 PKD
ROOT
HETATM    1  C   UNL     1     -14.163   8.824  72.211  1.00  0.00    -0.498 C  
HETATM    2  C   UNL     1     -13.333   7.697  71.607  1.00  0.00    -0.350 C  
ENDROOT
BRANCH   2   3
HETATM    3  N   UNL     1     -11.926   8.031  71.288  1.00  0.00    -0.295 NA 
BRANCH   3   4
HETATM    4  C   UNL     1     -11.661   9.478  71.411  1.00  0.00    -0.395 C  
BRANCH   4   5
HETATM    5  C   UNL     1     -11.383  10.227  70.093  1.00  0.00    -0.388 C  
BRANCH   5   6
HETATM    6  C   UNL     1     -11.915  11.663  70.065  1.00  0.00    -0.429 C  
BRANCH   6   7
HETATM    7  C   UNL     1     -11.809  12.247  68.671  1.00  0.00    -0.354 A  
HETATM    8  C   UNL     1     -11.998  13.620  68.459  1.00  0.00    -0.396 A  
HETATM    9  C   UNL     1     -11.838  14.167  67.183  1.00  0.00    -0.454 A  
HETATM   10  C   UNL     1     -11.464  11.434  67.582  1.00  0.00    -0.348 A  
HETATM   11  C   UNL     1     -11.489  13.349  66.110  1.00  0.00    -0.354 A  
HETATM   12  C   UNL     1     -11.304  11.981  66.309  1.00  0.00    -0.415 A  
ENDBRANCH   6   7
ENDBRANCH   5   6
ENDBRANCH   4   5
ENDBRANCH   3   4
BRANCH   3  13
HETATM   13  C   UNL     1     -11.013   7.252  72.151  1.00  0.00    -0.239 C  
BRANCH  13  14
HETATM   14  C   UNL     1     -11.442   5.807  72.414  1.00  0.00    -0.343 C  
BRANCH  14  15
HETATM   15  C   UNL     1     -10.271   4.897  72.795  1.00  0.00    -0.227 C  
BRANCH  15  16
HETATM   16  C   UNL     1     -10.002   3.951  71.652  1.00  0.00    -0.223 A  
HETATM   17  C   UNL     1      -9.208   2.254  69.576  1.00  0.00    -0.185 A  
HETATM   18  C   UNL     1      -9.483   3.598  69.313  1.00  0.00    -0.244 A  
HETATM   19  C   UNL     1      -9.744   2.597  71.906  1.00  0.00    -0.221 A  
HETATM   20  C   UNL     1      -9.346   1.755  70.867  1.00  0.00    -0.188 A  
HETATM   21  C   UNL     1      -9.884   4.442  70.345  1.00  0.00    -0.286 A  
ENDBRANCH  15  16
ENDBRANCH  14  15
ENDBRANCH  13  14
ENDBRANCH   3  13
ENDBRANCH   2   3
TORSDOF 9
ENDMDL
MODEL      215
REMARK 921   NORMALIZED FREE ENERGY PREDICTED BY IDOCK:   -3.89 KCAL/MOL
REMARK 922        TOTAL FREE ENERGY PREDICTED BY IDOCK:   -7.46 KCAL/MOL
REMARK 923 INTER-LIGAND FREE ENERGY PREDICTED BY IDOCK:   -4.34 KCAL/MOL
REMARK 924 INTRA-LIGAND FREE ENERGY PREDICTED BY IDOCK:   -3.12 KCAL/MOL
REMARK 927      BINDING AFFINITY PREDICTED BY RF-SCORE:    0.00 PKD
ROOT
HETATM    1  C   UNL     1     -10.452   4.730  65.842  1.00  0.00    -0.313 C  
HETATM    2  C   UNL     1      -9.009   5.220  65.803  1.00  0.00    -0.154 C  
ENDROOT
BRANCH   2   3
HETATM    3  N   UNL     1      -8.318   5.301  67.111  1.00  0.00    -0.108 NA 
BRANCH   3   4
HETATM    4  C   UNL     1      -8.153   3.971  67.730  1.00  0.00    -0.090 C  
BRANCH   4   5
HETATM    5  C   UNL     1      -8.925   3.739  69.044  1.00  0.00    -0.179 C  
BRANCH   5   6
HETATM    6  C   UNL     1      -8.547   4.705  70.171  1.00  0.00    -0.101 C  
BRANCH   6   7
HETATM    7  C   UNL     1      -9.737   5.549  70.576  1.00  0.00    -0.241 A  
HETATM    8  C   UNL     1     -10.754   5.835  69.653  1.00  0.00    -0.416 A  
HETATM    9  C   UNL     1     -11.881   6.560  70.045  1.00  0.00    -0.284 A  
HETATM   10  C   UNL     1      -9.870   6.008  71.894  1.00  0.00    -0.183 A  
HETATM   11  C   UNL     1     -12.005   7.006  71.359  1.00  0.00    -0.380 A  
HETATM   12  C   UNL     1     -10.998   6.732  72.284  1.00  0.00    -0.276 A  
ENDBRANCH   6   7
ENDBRANCH   5   6
ENDBRANCH   4   5
ENDBRANCH   3   4
BRANCH   3  13
HETATM   13  C   UNL     1      -7.012   5.975  66.952  1.00  0.00    -0.068 C  
BRANCH  13  14
HETATM   14  C   UNL     1      -7.033   7.489  67.163  1.00  0.00    -0.083 C  
BRANCH  14  15
HETATM   15  C   UNL     1      -7.282   7.885  68.622  1.00  0.00    -0.081 C  
BRANCH  15  16
HETATM   16  C   UNL     1      -8.640   8.533  68.721  1.00  0.00    -0.131 A  
HETATM   17  C   UNL     1     -11.024   9.991  68.820  1.00  0.00    -0.242 A  
HETATM   18  C   UNL     1     -10.229   9.873  69.963  1.00  0.00    -0.319 A  
HETATM   19  C   UNL     1      -9.452   8.638  67.583  1.00  0.00    -0.169 A  
HETATM   20  C   UNL     1     -10.639   9.369  67.637  1.00  0.00    -0.333 A  
HETATM   21  C   UNL     1      -9.045   9.142  69.914  1.00  0.00    -0.188 A  
ENDBRANCH  15  16
ENDBRANCH  14  15
ENDBRANCH  13  14
ENDBRANCH   3  13
ENDBRANCH   2   3
TORSDOF 9
ENDMDL
MODEL      216
REMARK 921   NORMALIZED FREE ENERGY PREDICTED BY IDOCK:   -3.89 KCAL/MOL
REMARK 922        TOTAL FREE ENERGY PREDICTED BY IDOCK:   -7.46 KCAL/MOL
REMARK 923 INTER-LIGAND FREE ENERGY PREDICTED BY IDOCK:   -6.61 KCAL/MOL
REMARK 924 INTRA-LIGAND FREE ENERGY PREDICTED BY IDOCK:   -0.85 KCAL/MOL
REMARK 927      BINDING AFFINITY PREDICTED BY RF-SCORE:    0.00 PKD
ROOT
HETATM    1  C   UNL     1     -12.017  14.524  71.752  1.00  0.00    -0.288 C  
HETATM    2  C   UNL     1     -12.501  14.145  70.356  1.00  0.00    -0.357 C  
ENDROOT
BRANCH   2   3
HETATM    3  N   UNL     1     -11.442  13.870  69.358  1.00  0.00    -0.268 NA 
BRANCH   3   4
HETATM    4  C   UNL     1     -11.974  13.852  67.981  1.00  0.00    -0.355 C  
BRANCH   4   5
HETATM    5  C   UNL     1     -11.542  12.658  67.107  1.00  0.00    -0.434 C  
BRANCH   5   6
HETATM    6  C   UNL     1     -10.189  12.055  67.495  1.00  0.00    -0.211 C  
BRANCH   6   7
HETATM    7  C   UNL     1     -10.323  10.573  67.779  1.00  0.00    -0.248 A  
HETATM    8  C   UNL     1     -10.209   9.637  66.741  1.00  0.00    -0.308 A  
HETATM    9  C   UNL     1     -10.270   8.268  67.015  1.00  0.00    -0.380 A  
HETATM   10  C   UNL     1     -10.505  10.113  69.091  1.00  0.00    -0.242 A  
HETATM   11  C   UNL     1     -10.446   7.823  68.324  1.00  0.00    -0.215 A  
HETATM   12  C   UNL     1     -10.566   8.745  69.362  1.00  0.00    -0.218 A  
ENDBRANCH   6   7
ENDBRANCH   5   6
ENDBRANCH   4   5
ENDBRANCH   3   4
BRANCH   3  13
HETATM   13  C   UNL     1     -10.353  14.862  69.490  1.00  0.00    -0.155 C  
BRANCH  13  14
HETATM   14  C   UNL     1     -10.291  15.910  68.379  1.00  0.00    -0.240 C  
BRANCH  14  15
HETATM   15  C   UNL     1     -10.900  17.254  68.791  1.00  0.00    -0.153 C  
BRANCH  15  16
HETATM   16  C   UNL     1      -9.974  18.359  68.350  1.00  0.00    -0.406 A  
HETATM   17  C   UNL     1      -8.275  20.290  67.253  1.00  0.00    -0.393 A  
HETATM   18  C   UNL     1      -7.743  19.115  67.787  1.00  0.00    -0.292 A  
HETATM   19  C   UNL     1     -10.500  19.551  67.831  1.00  0.00    -0.552 A  
HETATM   20  C   UNL     1      -9.648  20.510  67.282  1.00  0.00    -0.580 A  
HETATM   21  C   UNL     1      -8.589  18.156  68.338  1.00  0.00    -0.310 A  
ENDBRANCH  15  16
ENDBRANCH  14  15
ENDBRANCH  13  14
ENDBRANCH   3  13
ENDBRANCH   2   3
TORSDOF 9
ENDMDL
MODEL      217
REMARK 921   NORMALIZED FREE ENERGY PREDICTED BY IDOCK:   -3.88 KCAL/MOL
REMARK 922        TOTAL FREE ENERGY PREDICTED BY IDOCK:   -7.44 KCAL/MOL
REMARK 923 INTER-LIGAND FREE ENERGY PREDICTED BY IDOCK:   -6.19 KCAL/MOL
REMARK 924 INTRA-LIGAND FREE ENERGY PREDICTED BY IDOCK:   -1.25 KCAL/MOL
REMARK 927      BINDING AFFINITY PREDICTED BY RF-SCORE:    0.00 PKD
ROOT
HETATM    1  C   UNL     1      -6.072   8.071  68.913  1.00  0.00    -0.039 C  
HETATM    2  C   UNL     1      -7.102   8.463  67.859  1.00  0.00    -0.083 C  
ENDROOT
BRANCH   2   3
HETATM    3  N   UNL     1      -8.340   9.095  68.369  1.00  0.00    -0.119 NA 
BRANCH   3   4
HETATM    4  C   UNL     1      -9.549   8.359  67.948  1.00  0.00    -0.156 C  
BRANCH   4   5
HETATM    5  C   UNL     1     -10.523   9.129  67.035  1.00  0.00    -0.311 C  
BRANCH   5   6
HETATM    6  C   UNL     1      -9.910  10.361  66.362  1.00  0.00    -0.266 C  
BRANCH   6   7
HETATM    7  C   UNL     1     -10.634  11.621  66.788  1.00  0.00    -0.280 A  
HETATM    8  C   UNL     1     -11.595  12.208  65.952  1.00  0.00    -0.425 A  
HETATM    9  C   UNL     1     -12.306  13.333  66.374  1.00  0.00    -0.347 A  
HETATM   10  C   UNL     1     -10.398  12.186  68.050  1.00  0.00    -0.213 A  
HETATM   11  C   UNL     1     -12.067  13.882  67.632  1.00  0.00    -0.342 A  
HETATM   12  C   UNL     1     -11.110  13.310  68.470  1.00  0.00    -0.294 A  
ENDBRANCH   6   7
ENDBRANCH   5   6
ENDBRANCH   4   5
ENDBRANCH   3   4
BRANCH   3  13
HETATM   13  C   UNL     1      -8.279   9.211  69.842  1.00  0.00    -0.136 C  
BRANCH  13  14
HETATM   14  C   UNL     1      -9.608   9.539  70.524  1.00  0.00    -0.312 C  
BRANCH  14  15
HETATM   15  C   UNL     1     -10.051   8.463  71.520  1.00  0.00    -0.293 C  
BRANCH  15  16
HETATM   16  C   UNL     1     -11.556   8.375  71.497  1.00  0.00    -0.338 A  
HETATM   17  C   UNL     1     -14.333   8.181  71.757  1.00  0.00    -0.582 A  
HETATM   18  C   UNL     1     -13.570   7.030  71.549  1.00  0.00    -0.355 A  
HETATM   19  C   UNL     1     -12.330   9.528  71.686  1.00  0.00    -0.480 A  
HETATM   20  C   UNL     1     -13.715   9.425  71.818  1.00  0.00    -0.418 A  
HETATM   21  C   UNL     1     -12.187   7.128  71.414  1.00  0.00    -0.399 A  
ENDBRANCH  15  16
ENDBRANCH  14  15
ENDBRANCH  13  14
ENDBRANCH   3  13
ENDBRANCH   2   3
TORSDOF 9
ENDMDL
MODEL      218
REMARK 921   NORMALIZED FREE ENERGY PREDICTED BY IDOCK:   -3.86 KCAL/MOL
REMARK 922        TOTAL FREE ENERGY PREDICTED BY IDOCK:   -7.41 KCAL/MOL
REMARK 923 INTER-LIGAND FREE ENERGY PREDICTED BY IDOCK:   -6.93 KCAL/MOL
REMARK 924 INTRA-LIGAND FREE ENERGY PREDICTED BY IDOCK:   -0.49 KCAL/MOL
REMARK 927      BINDING AFFINITY PREDICTED BY RF-SCORE:    0.00 PKD
ROOT
HETATM    1  C   UNL     1     -13.896   9.335  72.354  1.00  0.00    -0.484 C  
HETATM    2  C   UNL     1     -13.260   8.149  71.635  1.00  0.00    -0.332 C  
ENDROOT
BRANCH   2   3
HETATM    3  N   UNL     1     -11.929   8.396  71.035  1.00  0.00    -0.268 NA 
BRANCH   3   4
HETATM    4  C   UNL     1     -11.509   9.803  71.184  1.00  0.00    -0.398 C  
BRANCH   4   5
HETATM    5  C   UNL     1     -11.628  10.680  69.921  1.00  0.00    -0.396 C  
BRANCH   5   6
HETATM    6  C   UNL     1     -11.993  12.140  70.205  1.00  0.00    -0.394 C  
BRANCH   6   7
HETATM    7  C   UNL     1     -11.877  12.976  68.947  1.00  0.00    -0.358 A  
HETATM    8  C   UNL     1     -11.903  14.376  69.017  1.00  0.00    -0.358 A  
HETATM    9  C   UNL     1     -11.732  15.145  67.863  1.00  0.00    -0.275 A  
HETATM   10  C   UNL     1     -11.683  12.363  67.700  1.00  0.00    -0.412 A  
HETATM   11  C   UNL     1     -11.534  14.525  66.631  1.00  0.00    -0.373 A  
HETATM   12  C   UNL     1     -11.512  13.133  66.548  1.00  0.00    -0.378 A  
ENDBRANCH   6   7
ENDBRANCH   5   6
ENDBRANCH   4   5
ENDBRANCH   3   4
BRANCH   3  13
HETATM   13  C   UNL     1     -10.930   7.482  71.628  1.00  0.00    -0.232 C  
BRANCH  13  14
HETATM   14  C   UNL     1     -11.228   5.992  71.453  1.00  0.00    -0.325 C  
BRANCH  14  15
HETATM   15  C   UNL     1     -10.030   5.202  70.917  1.00  0.00    -0.280 C  
BRANCH  15  16
HETATM   16  C   UNL     1     -10.171   5.066  69.422  1.00  0.00    -0.268 A  
HETATM   17  C   UNL     1     -10.193   4.997  66.627  1.00  0.00    -0.299 A  
HETATM   18  C   UNL     1     -10.942   5.960  67.307  1.00  0.00    -0.276 A  
HETATM   19  C   UNL     1      -9.437   4.090  68.733  1.00  0.00    -0.226 A  
HETATM   20  C   UNL     1      -9.449   4.062  67.338  1.00  0.00    -0.231 A  
HETATM   21  C   UNL     1     -10.936   5.990  68.700  1.00  0.00    -0.361 A  
ENDBRANCH  15  16
ENDBRANCH  14  15
ENDBRANCH  13  14
ENDBRANCH   3  13
ENDBRANCH   2   3
TORSDOF 9
ENDMDL
MODEL      219
REMARK 921   NORMALIZED FREE ENERGY PREDICTED BY IDOCK:   -3.86 KCAL/MOL
REMARK 922        TOTAL FREE ENERGY PREDICTED BY IDOCK:   -7.41 KCAL/MOL
REMARK 923 INTER-LIGAND FREE ENERGY PREDICTED BY IDOCK:   -6.40 KCAL/MOL
REMARK 924 INTRA-LIGAND FREE ENERGY PREDICTED BY IDOCK:   -1.01 KCAL/MOL
REMARK 927      BINDING AFFINITY PREDICTED BY RF-SCORE:    0.00 PKD
ROOT
HETATM    1  C   UNL     1     -10.222  10.005  65.965  1.00  0.00    -0.277 C  
HETATM    2  C   UNL     1     -10.626  11.320  66.622  1.00  0.00    -0.262 C  
ENDROOT
BRANCH   2   3
HETATM    3  N   UNL     1      -9.704  11.835  67.660  1.00  0.00    -0.179 NA 
BRANCH   3   4
HETATM    4  C   UNL     1     -10.426  12.281  68.867  1.00  0.00    -0.101 C  
BRANCH   4   5
HETATM    5  C   UNL     1     -10.656  13.799  68.994  1.00  0.00    -0.161 C  
BRANCH   5   6
HETATM    6  C   UNL     1     -12.116  14.194  69.235  1.00  0.00    -0.364 C  
BRANCH   6   7
HETATM    7  C   UNL     1     -12.351  14.517  70.695  1.00  0.00    -0.407 A  
HETATM    8  C   UNL     1     -11.767  15.651  71.277  1.00  0.00    -0.478 A  
HETATM    9  C   UNL     1     -12.035  15.982  72.607  1.00  0.00    -0.646 A  
HETATM   10  C   UNL     1     -13.203  13.719  71.473  1.00  0.00    -0.417 A  
HETATM   11  C   UNL     1     -12.888  15.185  73.368  1.00  0.00    -0.661 A  
HETATM   12  C   UNL     1     -13.470  14.051  72.802  1.00  0.00    -0.576 A  
ENDBRANCH   6   7
ENDBRANCH   5   6
ENDBRANCH   4   5
ENDBRANCH   3   4
BRANCH   3  13
HETATM   13  C   UNL     1      -8.697  10.806  67.996  1.00  0.00    -0.132 C  
BRANCH  13  14
HETATM   14  C   UNL     1      -8.643  10.408  69.472  1.00  0.00    -0.109 C  
BRANCH  14  15
HETATM   15  C   UNL     1      -8.162   8.969  69.685  1.00  0.00    -0.116 C  
BRANCH  15  16
HETATM   16  C   UNL     1      -9.347   8.043  69.574  1.00  0.00    -0.156 A  
HETATM   17  C   UNL     1     -11.406   6.152  69.573  1.00  0.00    -0.426 A  
HETATM   18  C   UNL     1     -10.345   6.028  68.674  1.00  0.00    -0.264 A  
HETATM   19  C   UNL     1     -10.426   8.172  70.460  1.00  0.00    -0.222 A  
HETATM   20  C   UNL     1     -11.449   7.225  70.457  1.00  0.00    -0.310 A  
HETATM   21  C   UNL     1      -9.322   6.974  68.670  1.00  0.00    -0.136 A  
ENDBRANCH  15  16
ENDBRANCH  14  15
ENDBRANCH  13  14
ENDBRANCH   3  13
ENDBRANCH   2   3
TORSDOF 9
ENDMDL
MODEL      220
REMARK 921   NORMALIZED FREE ENERGY PREDICTED BY IDOCK:   -3.85 KCAL/MOL
REMARK 922        TOTAL FREE ENERGY PREDICTED BY IDOCK:   -7.39 KCAL/MOL
REMARK 923 INTER-LIGAND FREE ENERGY PREDICTED BY IDOCK:   -6.29 KCAL/MOL
REMARK 924 INTRA-LIGAND FREE ENERGY PREDICTED BY IDOCK:   -1.10 KCAL/MOL
REMARK 927      BINDING AFFINITY PREDICTED BY RF-SCORE:    0.00 PKD
ROOT
HETATM    1  C   UNL     1      -6.687   8.312  67.498  1.00  0.00    -0.063 C  
HETATM    2  C   UNL     1      -8.063   8.394  68.150  1.00  0.00    -0.120 C  
ENDROOT
BRANCH   2   3
HETATM    3  N   UNL     1      -9.048   9.267  67.472  1.00  0.00    -0.121 NA 
BRANCH   3   4
HETATM    4  C   UNL     1     -10.167   8.494  66.898  1.00  0.00    -0.305 C  
BRANCH   4   5
HETATM    5  C   UNL     1     -10.085   6.964  67.063  1.00  0.00    -0.287 C  
BRANCH   5   6
HETATM    6  C   UNL     1     -11.255   6.354  67.843  1.00  0.00    -0.262 C  
BRANCH   6   7
HETATM    7  C   UNL     1     -10.932   6.275  69.320  1.00  0.00    -0.435 A  
HETATM    8  C   UNL     1     -10.379   5.109  69.867  1.00  0.00    -0.347 A  
HETATM    9  C   UNL     1     -10.024   5.060  71.217  1.00  0.00    -0.264 A  
HETATM   10  C   UNL     1     -11.126   7.388  70.152  1.00  0.00    -0.265 A  
HETATM   11  C   UNL     1     -10.216   6.174  72.032  1.00  0.00    -0.223 A  
HETATM   12  C   UNL     1     -10.770   7.338  71.501  1.00  0.00    -0.241 A  
ENDBRANCH   6   7
ENDBRANCH   5   6
ENDBRANCH   4   5
ENDBRANCH   3   4
BRANCH   3  13
HETATM   13  C   UNL     1      -9.544  10.296  68.411  1.00  0.00    -0.149 C  
BRANCH  13  14
HETATM   14  C   UNL     1     -10.826  11.008  67.978  1.00  0.00    -0.278 C  
BRANCH  14  15
HETATM   15  C   UNL     1     -10.578  12.436  67.484  1.00  0.00    -0.240 C  
BRANCH  15  16
HETATM   16  C   UNL     1     -11.182  12.584  66.110  1.00  0.00    -0.362 A  
HETATM   17  C   UNL     1     -12.050  13.007  63.486  1.00  0.00    -0.617 A  
HETATM   18  C   UNL     1     -12.371  13.929  64.484  1.00  0.00    -0.408 A  
HETATM   19  C   UNL     1     -10.881  11.652  65.107  1.00  0.00    -0.346 A  
HETATM   20  C   UNL     1     -11.314  11.869  63.799  1.00  0.00    -0.532 A  
HETATM   21  C   UNL     1     -11.943  13.715  65.793  1.00  0.00    -0.425 A  
ENDBRANCH  15  16
ENDBRANCH  14  15
ENDBRANCH  13  14
ENDBRANCH   3  13
ENDBRANCH   2   3
TORSDOF 9
ENDMDL
MODEL      221
REMARK 921   NORMALIZED FREE ENERGY PREDICTED BY IDOCK:   -3.85 KCAL/MOL
REMARK 922        TOTAL FREE ENERGY PREDICTED BY IDOCK:   -7.39 KCAL/MOL
REMARK 923 INTER-LIGAND FREE ENERGY PREDICTED BY IDOCK:   -4.14 KCAL/MOL
REMARK 924 INTRA-LIGAND FREE ENERGY PREDICTED BY IDOCK:   -3.25 KCAL/MOL
REMARK 927      BINDING AFFINITY PREDICTED BY RF-SCORE:    0.00 PKD
ROOT
HETATM    1  C   UNL     1      -9.787  14.941  65.996  1.00  0.00    -0.345 C  
HETATM    2  C   UNL     1     -10.423  13.646  65.502  1.00  0.00    -0.306 C  
ENDROOT
BRANCH   2   3
HETATM    3  N   UNL     1      -9.958  12.405  66.161  1.00  0.00    -0.248 NA 
BRANCH   3   4
HETATM    4  C   UNL     1     -10.594  12.208  67.479  1.00  0.00    -0.214 C  
BRANCH   4   5
HETATM    5  C   UNL     1     -11.141  10.795  67.760  1.00  0.00    -0.381 C  
BRANCH   5   6
HETATM    6  C   UNL     1     -10.387  10.039  68.859  1.00  0.00    -0.217 C  
BRANCH   6   7
HETATM    7  C   UNL     1     -10.223   8.580  68.490  1.00  0.00    -0.225 A  
HETATM    8  C   UNL     1      -9.581   7.692  69.366  1.00  0.00    -0.159 A  
HETATM    9  C   UNL     1      -9.487   6.334  69.052  1.00  0.00    -0.133 A  
HETATM   10  C   UNL     1     -10.761   8.082  67.295  1.00  0.00    -0.280 A  
HETATM   11  C   UNL     1     -10.031   5.851  67.863  1.00  0.00    -0.157 A  
HETATM   12  C   UNL     1     -10.666   6.725  66.983  1.00  0.00    -0.435 A  
ENDBRANCH   6   7
ENDBRANCH   5   6
ENDBRANCH   4   5
ENDBRANCH   3   4
BRANCH   3  13
HETATM   13  C   UNL     1     -10.200  11.242  65.280  1.00  0.00    -0.274 C  
BRANCH  13  14
HETATM   14  C   UNL     1      -8.960  10.412  64.944  1.00  0.00    -0.225 C  
BRANCH  14  15
HETATM   15  C   UNL     1      -7.790  10.675  65.897  1.00  0.00    -0.150 C  
BRANCH  15  16
HETATM   16  C   UNL     1      -7.334   9.359  66.476  1.00  0.00    -0.093 A  
HETATM   17  C   UNL     1      -6.226   6.968  67.408  1.00  0.00    -0.041 A  
HETATM   18  C   UNL     1      -6.941   6.984  66.209  1.00  0.00    -0.069 A  
HETATM   19  C   UNL     1      -6.632   9.331  67.689  1.00  0.00    -0.064 A  
HETATM   20  C   UNL     1      -6.078   8.136  68.148  1.00  0.00    -0.046 A  
HETATM   21  C   UNL     1      -7.498   8.174  65.748  1.00  0.00    -0.080 A  
ENDBRANCH  15  16
ENDBRANCH  14  15
ENDBRANCH  13  14
ENDBRANCH   3  13
ENDBRANCH   2   3
TORSDOF 9
ENDMDL
MODEL      222
REMARK 921   NORMALIZED FREE ENERGY PREDICTED BY IDOCK:   -3.84 KCAL/MOL
REMARK 922        TOTAL FREE ENERGY PREDICTED BY IDOCK:   -7.38 KCAL/MOL
REMARK 923 INTER-LIGAND FREE ENERGY PREDICTED BY IDOCK:   -6.11 KCAL/MOL
REMARK 924 INTRA-LIGAND FREE ENERGY PREDICTED BY IDOCK:   -1.27 KCAL/MOL
REMARK 927      BINDING AFFINITY PREDICTED BY RF-SCORE:    0.00 PKD
ROOT
HETATM    1  C   UNL     1     -13.403   9.657  71.417  1.00  0.00    -0.444 C  
HETATM    2  C   UNL     1     -11.910   9.557  71.709  1.00  0.00    -0.360 C  
ENDROOT
BRANCH   2   3
HETATM    3  N   UNL     1     -11.092   8.893  70.668  1.00  0.00    -0.255 NA 
BRANCH   3   4
HETATM    4  C   UNL     1      -9.910   9.697  70.299  1.00  0.00    -0.266 C  
BRANCH   4   5
HETATM    5  C   UNL     1      -9.500   9.652  68.814  1.00  0.00    -0.148 C  
BRANCH   5   6
HETATM    6  C   UNL     1     -10.646   9.309  67.858  1.00  0.00    -0.288 C  
BRANCH   6   7
HETATM    7  C   UNL     1     -10.581  10.167  66.612  1.00  0.00    -0.214 A  
HETATM    8  C   UNL     1     -11.157  11.445  66.597  1.00  0.00    -0.333 A  
HETATM    9  C   UNL     1     -11.040  12.261  65.469  1.00  0.00    -0.348 A  
HETATM   10  C   UNL     1      -9.892   9.721  65.475  1.00  0.00    -0.378 A  
HETATM   11  C   UNL     1     -10.349  11.808  64.347  1.00  0.00    -0.353 A  
HETATM   12  C   UNL     1      -9.777  10.537  64.348  1.00  0.00    -0.388 A  
ENDBRANCH   6   7
ENDBRANCH   5   6
ENDBRANCH   4   5
ENDBRANCH   3   4
BRANCH   3  13
HETATM   13  C   UNL     1     -10.692   7.545  71.123  1.00  0.00    -0.227 C  
BRANCH  13  14
HETATM   14  C   UNL     1     -11.118   6.397  70.206  1.00  0.00    -0.416 C  
BRANCH  14  15
HETATM   15  C   UNL     1     -10.087   5.265  70.148  1.00  0.00    -0.333 C  
BRANCH  15  16
HETATM   16  C   UNL     1      -9.987   4.775  68.726  1.00  0.00    -0.182 A  
HETATM   17  C   UNL     1      -9.532   4.002  66.078  1.00  0.00    -0.186 A  
HETATM   18  C   UNL     1     -10.188   5.204  66.350  1.00  0.00    -0.303 A  
HETATM   19  C   UNL     1      -9.347   3.561  68.444  1.00  0.00    -0.228 A  
HETATM   20  C   UNL     1      -9.119   3.181  67.121  1.00  0.00    -0.203 A  
HETATM   21  C   UNL     1     -10.420   5.586  67.669  1.00  0.00    -0.256 A  
ENDBRANCH  15  16
ENDBRANCH  14  15
ENDBRANCH  13  14
ENDBRANCH   3  13
ENDBRANCH   2   3
TORSDOF 9
ENDMDL
MODEL      223
REMARK 921   NORMALIZED FREE ENERGY PREDICTED BY IDOCK:   -3.84 KCAL/MOL
REMARK 922        TOTAL FREE ENERGY PREDICTED BY IDOCK:   -7.38 KCAL/MOL
REMARK 923 INTER-LIGAND FREE ENERGY PREDICTED BY IDOCK:   -5.48 KCAL/MOL
REMARK 924 INTRA-LIGAND FREE ENERGY PREDICTED BY IDOCK:   -1.89 KCAL/MOL
REMARK 927      BINDING AFFINITY PREDICTED BY RF-SCORE:    0.00 PKD
ROOT
HETATM    1  C   UNL     1      -6.807   8.924  69.050  1.00  0.00    -0.059 C  
HETATM    2  C   UNL     1      -7.823   8.809  67.918  1.00  0.00    -0.102 C  
ENDROOT
BRANCH   2   3
HETATM    3  N   UNL     1      -8.241  10.085  67.293  1.00  0.00    -0.117 NA 
BRANCH   3   4
HETATM    4  C   UNL     1      -7.969  11.243  68.167  1.00  0.00    -0.131 C  
BRANCH   4   5
HETATM    5  C   UNL     1      -7.943  12.619  67.475  1.00  0.00    -0.174 C  
BRANCH   5   6
HETATM    6  C   UNL     1      -7.892  13.806  68.442  1.00  0.00    -0.143 C  
BRANCH   6   7
HETATM    7  C   UNL     1      -9.208  14.555  68.443  1.00  0.00    -0.196 A  
HETATM    8  C   UNL     1      -9.340  15.763  67.744  1.00  0.00    -0.206 A  
HETATM    9  C   UNL     1     -10.572  16.420  67.694  1.00  0.00    -0.313 A  
HETATM   10  C   UNL     1     -10.330  14.022  69.094  1.00  0.00    -0.064 A  
HETATM   11  C   UNL     1     -11.681  15.877  68.340  1.00  0.00    -0.246 A  
HETATM   12  C   UNL     1     -11.560  14.679  69.042  1.00  0.00    -0.328 A  
ENDBRANCH   6   7
ENDBRANCH   5   6
ENDBRANCH   4   5
ENDBRANCH   3   4
BRANCH   3  13
HETATM   13  C   UNL     1      -7.579  10.246  65.981  1.00  0.00    -0.128 C  
BRANCH  13  14
HETATM   14  C   UNL     1      -8.523  10.312  64.780  1.00  0.00    -0.179 C  
BRANCH  14  15
HETATM   15  C   UNL     1      -9.979  10.010  65.149  1.00  0.00    -0.350 C  
BRANCH  15  16
HETATM   16  C   UNL     1     -10.785  11.277  65.009  1.00  0.00    -0.322 A  
HETATM   17  C   UNL     1     -12.525  13.451  64.756  1.00  0.00    -0.416 A  
HETATM   18  C   UNL     1     -12.027  12.819  63.614  1.00  0.00    -0.616 A  
HETATM   19  C   UNL     1     -11.273  11.929  66.150  1.00  0.00    -0.387 A  
HETATM   20  C   UNL     1     -12.143  13.011  66.019  1.00  0.00    -0.493 A  
HETATM   21  C   UNL     1     -11.155  11.740  63.741  1.00  0.00    -0.513 A  
ENDBRANCH  15  16
ENDBRANCH  14  15
ENDBRANCH  13  14
ENDBRANCH   3  13
ENDBRANCH   2   3
TORSDOF 9
ENDMDL
MODEL      224
REMARK 921   NORMALIZED FREE ENERGY PREDICTED BY IDOCK:   -3.83 KCAL/MOL
REMARK 922        TOTAL FREE ENERGY PREDICTED BY IDOCK:   -7.37 KCAL/MOL
REMARK 923 INTER-LIGAND FREE ENERGY PREDICTED BY IDOCK:   -6.48 KCAL/MOL
REMARK 924 INTRA-LIGAND FREE ENERGY PREDICTED BY IDOCK:   -0.89 KCAL/MOL
REMARK 927      BINDING AFFINITY PREDICTED BY RF-SCORE:    0.00 PKD
ROOT
HETATM    1  C   UNL     1     -11.748  15.520  64.069  1.00  0.00     0.053 C  
HETATM    2  C   UNL     1     -11.139  15.246  65.440  1.00  0.00    -0.347 C  
ENDROOT
BRANCH   2   3
HETATM    3  N   UNL     1     -12.061  14.693  66.458  1.00  0.00    -0.289 NA 
BRANCH   3   4
HETATM    4  C   UNL     1     -12.130  13.219  66.397  1.00  0.00    -0.394 C  
BRANCH   4   5
HETATM    5  C   UNL     1     -10.973  12.519  65.659  1.00  0.00    -0.323 C  
BRANCH   5   6
HETATM    6  C   UNL     1      -9.780  12.168  66.555  1.00  0.00    -0.234 C  
BRANCH   6   7
HETATM    7  C   UNL     1      -9.984  10.819  67.214  1.00  0.00    -0.219 A  
HETATM    8  C   UNL     1     -10.251  10.731  68.587  1.00  0.00    -0.198 A  
HETATM    9  C   UNL     1     -10.501   9.492  69.181  1.00  0.00    -0.224 A  
HETATM   10  C   UNL     1      -9.967   9.643  66.450  1.00  0.00    -0.323 A  
HETATM   11  C   UNL     1     -10.487   8.331  68.411  1.00  0.00    -0.206 A  
HETATM   12  C   UNL     1     -10.218   8.406  67.045  1.00  0.00    -0.377 A  
ENDBRANCH   6   7
ENDBRANCH   5   6
ENDBRANCH   4   5
ENDBRANCH   3   4
BRANCH   3  13
HETATM   13  C   UNL     1     -11.658  15.148  67.806  1.00  0.00    -0.289 C  
BRANCH  13  14
HETATM   14  C   UNL     1     -11.530  14.041  68.853  1.00  0.00    -0.331 C  
BRANCH  14  15
HETATM   15  C   UNL     1     -10.928  14.534  70.172  1.00  0.00    -0.057 C  
BRANCH  15  16
HETATM   16  C   UNL     1     -12.048  14.976  71.080  1.00  0.00    -0.381 A  
HETATM   17  C   UNL     1     -14.017  15.596  72.965  1.00  0.00    -0.330 A  
HETATM   18  C   UNL     1     -14.247  14.594  72.020  1.00  0.00    -0.625 A  
HETATM   19  C   UNL     1     -11.832  15.994  72.018  1.00  0.00    -0.623 A  
HETATM   20  C   UNL     1     -12.817  16.298  72.959  1.00  0.00    -0.396 A  
HETATM   21  C   UNL     1     -13.268  14.289  71.077  1.00  0.00    -0.367 A  
ENDBRANCH  15  16
ENDBRANCH  14  15
ENDBRANCH  13  14
ENDBRANCH   3  13
ENDBRANCH   2   3
TORSDOF 9
ENDMDL
MODEL      225
REMARK 921   NORMALIZED FREE ENERGY PREDICTED BY IDOCK:   -3.83 KCAL/MOL
REMARK 922        TOTAL FREE ENERGY PREDICTED BY IDOCK:   -7.37 KCAL/MOL
REMARK 923 INTER-LIGAND FREE ENERGY PREDICTED BY IDOCK:   -6.40 KCAL/MOL
REMARK 924 INTRA-LIGAND FREE ENERGY PREDICTED BY IDOCK:   -0.97 KCAL/MOL
REMARK 927      BINDING AFFINITY PREDICTED BY RF-SCORE:    0.00 PKD
ROOT
HETATM    1  C   UNL     1      -9.285   9.253  65.603  1.00  0.00    -0.291 C  
HETATM    2  C   UNL     1      -9.321   8.556  66.958  1.00  0.00    -0.161 C  
ENDROOT
BRANCH   2   3
HETATM    3  N   UNL     1      -9.752   9.392  68.103  1.00  0.00    -0.142 NA 
BRANCH   3   4
HETATM    4  C   UNL     1      -9.840   8.612  69.353  1.00  0.00    -0.184 C  
BRANCH   4   5
HETATM    5  C   UNL     1     -11.108   8.837  70.200  1.00  0.00    -0.214 C  
BRANCH   5   6
HETATM    6  C   UNL     1     -10.835   9.044  71.693  1.00  0.00    -0.437 C  
BRANCH   6   7
HETATM    7  C   UNL     1     -10.778   7.716  72.418  1.00  0.00    -0.333 A  
HETATM    8  C   UNL     1      -9.911   7.535  73.505  1.00  0.00    -0.371 A  
HETATM    9  C   UNL     1      -9.906   6.330  74.211  1.00  0.00    -0.297 A  
HETATM   10  C   UNL     1     -11.634   6.667  72.050  1.00  0.00    -0.341 A  
HETATM   11  C   UNL     1     -10.764   5.297  73.840  1.00  0.00    -0.320 A  
HETATM   12  C   UNL     1     -11.627   5.464  72.758  1.00  0.00    -0.293 A  
ENDBRANCH   6   7
ENDBRANCH   5   6
ENDBRANCH   4   5
ENDBRANCH   3   4
BRANCH   3  13
HETATM   13  C   UNL     1      -8.837  10.542  68.262  1.00  0.00    -0.139 C  
BRANCH  13  14
HETATM   14  C   UNL     1      -9.500  11.917  68.171  1.00  0.00    -0.195 C  
BRANCH  14  15
HETATM   15  C   UNL     1      -9.001  12.744  66.981  1.00  0.00    -0.221 C  
BRANCH  15  16
HETATM   16  C   UNL     1     -10.193  13.236  66.201  1.00  0.00    -0.296 A  
HETATM   17  C   UNL     1     -12.267  14.041  64.507  1.00  0.00    -0.463 A  
HETATM   18  C   UNL     1     -11.214  14.915  64.785  1.00  0.00    -0.393 A  
HETATM   19  C   UNL     1     -11.264  12.371  65.934  1.00  0.00    -0.373 A  
HETATM   20  C   UNL     1     -12.295  12.777  65.085  1.00  0.00    -0.555 A  
HETATM   21  C   UNL     1     -10.184  14.516  65.634  1.00  0.00    -0.379 A  
ENDBRANCH  15  16
ENDBRANCH  14  15
ENDBRANCH  13  14
ENDBRANCH   3  13
ENDBRANCH   2   3
TORSDOF 9
ENDMDL
MODEL      226
REMARK 921   NORMALIZED FREE ENERGY PREDICTED BY IDOCK:   -3.82 KCAL/MOL
REMARK 922        TOTAL FREE ENERGY PREDICTED BY IDOCK:   -7.35 KCAL/MOL
REMARK 923 INTER-LIGAND FREE ENERGY PREDICTED BY IDOCK:   -5.93 KCAL/MOL
REMARK 924 INTRA-LIGAND FREE ENERGY PREDICTED BY IDOCK:   -1.42 KCAL/MOL
REMARK 927      BINDING AFFINITY PREDICTED BY RF-SCORE:    0.00 PKD
ROOT
HETATM    1  C   UNL     1      -6.926  13.614  68.030  1.00  0.00    -0.135 C  
HETATM    2  C   UNL     1      -7.123  12.125  68.293  1.00  0.00    -0.084 C  
ENDROOT
BRANCH   2   3
HETATM    3  N   UNL     1      -8.521  11.638  68.231  1.00  0.00    -0.155 NA 
BRANCH   3   4
HETATM    4  C   UNL     1      -8.956  11.385  66.844  1.00  0.00    -0.171 C  
BRANCH   4   5
HETATM    5  C   UNL     1      -9.997  12.369  66.274  1.00  0.00    -0.259 C  
BRANCH   5   6
HETATM    6  C   UNL     1     -11.384  12.255  66.915  1.00  0.00    -0.392 C  
BRANCH   6   7
HETATM    7  C   UNL     1     -11.551  13.281  68.016  1.00  0.00    -0.371 A  
HETATM    8  C   UNL     1     -11.380  14.647  67.749  1.00  0.00    -0.338 A  
HETATM    9  C   UNL     1     -11.597  15.596  68.750  1.00  0.00    -0.393 A  
HETATM   10  C   UNL     1     -11.938  12.886  69.306  1.00  0.00    -0.313 A  
HETATM   11  C   UNL     1     -11.986  15.192  70.026  1.00  0.00    -0.374 A  
HETATM   12  C   UNL     1     -12.154  13.836  70.305  1.00  0.00    -0.425 A  
ENDBRANCH   6   7
ENDBRANCH   5   6
ENDBRANCH   4   5
ENDBRANCH   3   4
BRANCH   3  13
HETATM   13  C   UNL     1      -8.670  10.423  69.061  1.00  0.00    -0.168 C  
BRANCH  13  14
HETATM   14  C   UNL     1      -9.637   9.375  68.510  1.00  0.00    -0.154 C  
BRANCH  14  15
HETATM   15  C   UNL     1     -10.996   9.385  69.218  1.00  0.00    -0.137 C  
BRANCH  15  16
HETATM   16  C   UNL     1     -10.947   8.413  70.369  1.00  0.00    -0.249 A  
HETATM   17  C   UNL     1     -11.158   6.584  72.474  1.00  0.00    -0.294 A  
HETATM   18  C   UNL     1     -11.243   7.955  72.729  1.00  0.00    -0.466 A  
HETATM   19  C   UNL     1     -10.843   7.037  70.123  1.00  0.00    -0.285 A  
HETATM   20  C   UNL     1     -10.952   6.129  71.176  1.00  0.00    -0.343 A  
HETATM   21  C   UNL     1     -11.132   8.866  71.681  1.00  0.00    -0.420 A  
ENDBRANCH  15  16
ENDBRANCH  14  15
ENDBRANCH  13  14
ENDBRANCH   3  13
ENDBRANCH   2   3
TORSDOF 9
ENDMDL
MODEL      227
REMARK 921   NORMALIZED FREE ENERGY PREDICTED BY IDOCK:   -3.81 KCAL/MOL
REMARK 922        TOTAL FREE ENERGY PREDICTED BY IDOCK:   -7.33 KCAL/MOL
REMARK 923 INTER-LIGAND FREE ENERGY PREDICTED BY IDOCK:   -5.35 KCAL/MOL
REMARK 924 INTRA-LIGAND FREE ENERGY PREDICTED BY IDOCK:   -1.98 KCAL/MOL
REMARK 927      BINDING AFFINITY PREDICTED BY RF-SCORE:    0.00 PKD
ROOT
HETATM    1  C   UNL     1      -9.737   9.303  70.607  1.00  0.00    -0.334 C  
HETATM    2  C   UNL     1     -10.912  10.174  70.175  1.00  0.00    -0.316 C  
ENDROOT
BRANCH   2   3
HETATM    3  N   UNL     1     -10.695  10.996  68.963  1.00  0.00    -0.208 NA 
BRANCH   3   4
HETATM    4  C   UNL     1     -11.263  10.362  67.757  1.00  0.00    -0.237 C  
BRANCH   4   5
HETATM    5  C   UNL     1     -10.248   9.920  66.685  1.00  0.00    -0.293 C  
BRANCH   5   6
HETATM    6  C   UNL     1      -8.873  10.583  66.813  1.00  0.00    -0.139 C  
BRANCH   6   7
HETATM    7  C   UNL     1      -7.776   9.540  66.851  1.00  0.00    -0.098 A  
HETATM    8  C   UNL     1      -7.885   8.421  67.690  1.00  0.00    -0.107 A  
HETATM    9  C   UNL     1      -6.902   7.429  67.676  1.00  0.00    -0.078 A  
HETATM   10  C   UNL     1      -6.662   9.646  66.005  1.00  0.00    -0.084 A  
HETATM   11  C   UNL     1      -5.803   7.543  66.827  1.00  0.00    -0.039 A  
HETATM   12  C   UNL     1      -5.681   8.653  65.993  1.00  0.00    -0.046 A  
ENDBRANCH   6   7
ENDBRANCH   5   6
ENDBRANCH   4   5
ENDBRANCH   3   4
BRANCH   3  13
HETATM   13  C   UNL     1     -11.257  12.349  69.162  1.00  0.00    -0.236 C  
BRANCH  13  14
HETATM   14  C   UNL     1     -10.785  13.403  68.159  1.00  0.00    -0.267 C  
BRANCH  14  15
HETATM   15  C   UNL     1     -11.909  13.908  67.250  1.00  0.00    -0.442 C  
BRANCH  15  16
HETATM   16  C   UNL     1     -11.675  13.385  65.856  1.00  0.00    -0.389 A  
HETATM   17  C   UNL     1     -11.168  12.149  63.399  1.00  0.00    -0.494 A  
HETATM   18  C   UNL     1     -10.142  12.820  64.067  1.00  0.00    -0.226 A  
HETATM   19  C   UNL     1     -12.705  12.727  65.170  1.00  0.00    -0.402 A  
HETATM   20  C   UNL     1     -12.446  12.110  63.946  1.00  0.00    -0.581 A  
HETATM   21  C   UNL     1     -10.396  13.441  65.288  1.00  0.00    -0.330 A  
ENDBRANCH  15  16
ENDBRANCH  14  15
ENDBRANCH  13  14
ENDBRANCH   3  13
ENDBRANCH   2   3
TORSDOF 9
ENDMDL
MODEL      228
REMARK 921   NORMALIZED FREE ENERGY PREDICTED BY IDOCK:   -3.80 KCAL/MOL
REMARK 922        TOTAL FREE ENERGY PREDICTED BY IDOCK:   -7.31 KCAL/MOL
REMARK 923 INTER-LIGAND FREE ENERGY PREDICTED BY IDOCK:   -6.45 KCAL/MOL
REMARK 924 INTRA-LIGAND FREE ENERGY PREDICTED BY IDOCK:   -0.86 KCAL/MOL
REMARK 927      BINDING AFFINITY PREDICTED BY RF-SCORE:    0.00 PKD
ROOT
HETATM    1  C   UNL     1      -8.633   8.476  71.370  1.00  0.00    -0.224 C  
HETATM    2  C   UNL     1      -9.745   9.312  70.744  1.00  0.00    -0.282 C  
ENDROOT
BRANCH   2   3
HETATM    3  N   UNL     1     -11.021   8.605  70.491  1.00  0.00    -0.235 NA 
BRANCH   3   4
HETATM    4  C   UNL     1     -10.876   7.142  70.620  1.00  0.00    -0.245 C  
BRANCH   4   5
HETATM    5  C   UNL     1     -11.237   6.315  69.370  1.00  0.00    -0.489 C  
BRANCH   5   6
HETATM    6  C   UNL     1     -10.157   6.318  68.283  1.00  0.00    -0.172 C  
BRANCH   6   7
HETATM    7  C   UNL     1      -9.130   5.236  68.546  1.00  0.00    -0.127 A  
HETATM    8  C   UNL     1      -9.527   3.902  68.710  1.00  0.00    -0.224 A  
HETATM    9  C   UNL     1      -8.573   2.897  68.889  1.00  0.00    -0.114 A  
HETATM   10  C   UNL     1      -7.762   5.544  68.571  1.00  0.00    -0.085 A  
HETATM   11  C   UNL     1      -7.217   3.214  68.906  1.00  0.00    -0.049 A  
HETATM   12  C   UNL     1      -6.810   4.539  68.750  1.00  0.00    -0.051 A  
ENDBRANCH   6   7
ENDBRANCH   5   6
ENDBRANCH   4   5
ENDBRANCH   3   4
BRANCH   3  13
HETATM   13  C   UNL     1     -12.069   9.113  71.401  1.00  0.00    -0.337 C  
BRANCH  13  14
HETATM   14  C   UNL     1     -12.793  10.372  70.920  1.00  0.00    -0.482 C  
BRANCH  14  15
HETATM   15  C   UNL     1     -13.368  11.206  72.069  1.00  0.00    -0.384 C  
BRANCH  15  16
HETATM   16  C   UNL     1     -13.223  12.667  71.724  1.00  0.00    -0.457 A  
HETATM   17  C   UNL     1     -13.194  15.340  70.904  1.00  0.00    -0.506 A  
HETATM   18  C   UNL     1     -12.451  14.387  70.203  1.00  0.00    -0.395 A  
HETATM   19  C   UNL     1     -13.949  13.632  72.435  1.00  0.00    -0.651 A  
HETATM   20  C   UNL     1     -13.934  14.964  72.020  1.00  0.00    -0.591 A  
HETATM   21  C   UNL     1     -12.461  13.057  70.616  1.00  0.00    -0.347 A  
ENDBRANCH  15  16
ENDBRANCH  14  15
ENDBRANCH  13  14
ENDBRANCH   3  13
ENDBRANCH   2   3
TORSDOF 9
ENDMDL
MODEL      229
REMARK 921   NORMALIZED FREE ENERGY PREDICTED BY IDOCK:   -3.79 KCAL/MOL
REMARK 922        TOTAL FREE ENERGY PREDICTED BY IDOCK:   -7.30 KCAL/MOL
REMARK 923 INTER-LIGAND FREE ENERGY PREDICTED BY IDOCK:   -6.40 KCAL/MOL
REMARK 924 INTRA-LIGAND FREE ENERGY PREDICTED BY IDOCK:   -0.91 KCAL/MOL
REMARK 927      BINDING AFFINITY PREDICTED BY RF-SCORE:    0.00 PKD
ROOT
HETATM    1  C   UNL     1      -9.059  13.520  67.036  1.00  0.00    -0.248 C  
HETATM    2  C   UNL     1      -8.568  12.545  68.101  1.00  0.00    -0.189 C  
ENDROOT
BRANCH   2   3
HETATM    3  N   UNL     1      -9.557  11.547  68.568  1.00  0.00    -0.188 NA 
BRANCH   3   4
HETATM    4  C   UNL     1     -10.830  11.643  67.827  1.00  0.00    -0.217 C  
BRANCH   4   5
HETATM    5  C   UNL     1     -12.108  11.711  68.686  1.00  0.00    -0.184 C  
BRANCH   5   6
HETATM    6  C   UNL     1     -11.849  11.689  70.196  1.00  0.00    -0.428 C  
BRANCH   6   7
HETATM    7  C   UNL     1     -12.404  12.936  70.854  1.00  0.00    -0.365 A  
HETATM    8  C   UNL     1     -12.091  14.206  70.348  1.00  0.00    -0.417 A  
HETATM    9  C   UNL     1     -12.654  15.351  70.917  1.00  0.00    -0.496 A  
HETATM   10  C   UNL     1     -13.284  12.836  71.941  1.00  0.00    -0.511 A  
HETATM   11  C   UNL     1     -13.533  15.239  71.993  1.00  0.00    -0.547 A  
HETATM   12  C   UNL     1     -13.846  13.981  72.507  1.00  0.00    -0.610 A  
ENDBRANCH   6   7
ENDBRANCH   5   6
ENDBRANCH   4   5
ENDBRANCH   3   4
BRANCH   3  13
HETATM   13  C   UNL     1      -8.989  10.186  68.467  1.00  0.00    -0.127 C  
BRANCH  13  14
HETATM   14  C   UNL     1      -8.301   9.867  67.138  1.00  0.00    -0.121 C  
BRANCH  14  15
HETATM   15  C   UNL     1      -9.230   9.175  66.136  1.00  0.00    -0.259 C  
BRANCH  15  16
HETATM   16  C   UNL     1      -9.443   7.750  66.579  1.00  0.00    -0.262 A  
HETATM   17  C   UNL     1      -9.929   5.050  67.118  1.00  0.00    -0.226 A  
HETATM   18  C   UNL     1     -10.939   5.994  67.316  1.00  0.00    -0.356 A  
HETATM   19  C   UNL     1      -8.428   6.800  66.402  1.00  0.00    -0.126 A  
HETATM   20  C   UNL     1      -8.676   5.453  66.670  1.00  0.00    -0.115 A  
HETATM   21  C   UNL     1     -10.695   7.340  67.053  1.00  0.00    -0.406 A  
ENDBRANCH  15  16
ENDBRANCH  14  15
ENDBRANCH  13  14
ENDBRANCH   3  13
ENDBRANCH   2   3
TORSDOF 9
ENDMDL
MODEL      230
REMARK 921   NORMALIZED FREE ENERGY PREDICTED BY IDOCK:   -3.79 KCAL/MOL
REMARK 922        TOTAL FREE ENERGY PREDICTED BY IDOCK:   -7.30 KCAL/MOL
REMARK 923 INTER-LIGAND FREE ENERGY PREDICTED BY IDOCK:   -6.59 KCAL/MOL
REMARK 924 INTRA-LIGAND FREE ENERGY PREDICTED BY IDOCK:   -0.71 KCAL/MOL
REMARK 927      BINDING AFFINITY PREDICTED BY RF-SCORE:    0.00 PKD
ROOT
HETATM    1  C   UNL     1     -13.596  14.080  72.420  1.00  0.00    -0.658 C  
HETATM    2  C   UNL     1     -13.205  14.698  71.082  1.00  0.00    -0.372 C  
ENDROOT
BRANCH   2   3
HETATM    3  N   UNL     1     -11.850  14.364  70.587  1.00  0.00    -0.302 NA 
BRANCH   3   4
HETATM    4  C   UNL     1     -11.898  13.571  69.343  1.00  0.00    -0.335 C  
BRANCH   4   5
HETATM    5  C   UNL     1     -11.048  12.285  69.330  1.00  0.00    -0.220 C  
BRANCH   5   6
HETATM    6  C   UNL     1     -11.422  11.298  68.219  1.00  0.00    -0.378 C  
BRANCH   6   7
HETATM    7  C   UNL     1     -10.218  10.978  67.359  1.00  0.00    -0.229 A  
HETATM    8  C   UNL     1     -10.308  10.023  66.336  1.00  0.00    -0.249 A  
HETATM    9  C   UNL     1      -9.215   9.774  65.503  1.00  0.00    -0.270 A  
HETATM   10  C   UNL     1      -9.012  11.673  67.533  1.00  0.00    -0.165 A  
HETATM   11  C   UNL     1      -8.024  10.476  65.682  1.00  0.00    -0.158 A  
HETATM   12  C   UNL     1      -7.921  11.423  66.699  1.00  0.00    -0.148 A  
ENDBRANCH   6   7
ENDBRANCH   5   6
ENDBRANCH   4   5
ENDBRANCH   3   4
BRANCH   3  13
HETATM   13  C   UNL     1     -11.063  15.600  70.395  1.00  0.00    -0.352 C  
BRANCH  13  14
HETATM   14  C   UNL     1     -10.479  15.788  68.994  1.00  0.00    -0.225 C  
BRANCH  14  15
HETATM   15  C   UNL     1     -11.281  16.774  68.140  1.00  0.00    -0.154 C  
BRANCH  15  16
HETATM   16  C   UNL     1     -10.351  17.857  67.652  1.00  0.00    -0.387 A  
HETATM   17  C   UNL     1      -8.677  20.002  67.012  1.00  0.00    -0.411 A  
HETATM   18  C   UNL     1     -10.030  20.048  66.672  1.00  0.00    -0.598 A  
HETATM   19  C   UNL     1      -8.988  17.809  67.973  1.00  0.00    -0.263 A  
HETATM   20  C   UNL     1      -8.157  18.883  67.654  1.00  0.00    -0.278 A  
HETATM   21  C   UNL     1     -10.863  18.977  66.986  1.00  0.00    -0.438 A  
ENDBRANCH  15  16
ENDBRANCH  14  15
ENDBRANCH  13  14
ENDBRANCH   3  13
ENDBRANCH   2   3
TORSDOF 9
ENDMDL
MODEL      231
REMARK 921   NORMALIZED FREE ENERGY PREDICTED BY IDOCK:   -3.79 KCAL/MOL
REMARK 922        TOTAL FREE ENERGY PREDICTED BY IDOCK:   -7.29 KCAL/MOL
REMARK 923 INTER-LIGAND FREE ENERGY PREDICTED BY IDOCK:   -6.36 KCAL/MOL
REMARK 924 INTRA-LIGAND FREE ENERGY PREDICTED BY IDOCK:   -0.94 KCAL/MOL
REMARK 927      BINDING AFFINITY PREDICTED BY RF-SCORE:    0.00 PKD
ROOT
HETATM    1  C   UNL     1      -8.658  10.627  68.832  1.00  0.00    -0.158 C  
HETATM    2  C   UNL     1     -10.023  10.596  68.154  1.00  0.00    -0.158 C  
ENDROOT
BRANCH   2   3
HETATM    3  N   UNL     1     -10.822  11.839  68.251  1.00  0.00    -0.208 NA 
BRANCH   3   4
HETATM    4  C   UNL     1     -11.161  12.382  66.921  1.00  0.00    -0.305 C  
BRANCH   4   5
HETATM    5  C   UNL     1     -10.005  13.048  66.149  1.00  0.00    -0.278 C  
BRANCH   5   6
HETATM    6  C   UNL     1     -10.398  14.339  65.424  1.00  0.00    -0.391 C  
BRANCH   6   7
HETATM    7  C   UNL     1      -9.920  15.552  66.195  1.00  0.00    -0.332 A  
HETATM    8  C   UNL     1     -10.372  16.835  65.855  1.00  0.00    -0.341 A  
HETATM    9  C   UNL     1      -9.979  17.946  66.606  1.00  0.00    -0.355 A  
HETATM   10  C   UNL     1      -9.064  15.405  67.297  1.00  0.00    -0.218 A  
HETATM   11  C   UNL     1      -9.134  17.786  67.702  1.00  0.00    -0.246 A  
HETATM   12  C   UNL     1      -8.673  16.516  68.046  1.00  0.00    -0.189 A  
ENDBRANCH   6   7
ENDBRANCH   5   6
ENDBRANCH   4   5
ENDBRANCH   3   4
BRANCH   3  13
HETATM   13  C   UNL     1     -12.042  11.595  69.048  1.00  0.00    -0.225 C  
BRANCH  13  14
HETATM   14  C   UNL     1     -11.812  11.413  70.549  1.00  0.00    -0.394 C  
BRANCH  14  15
HETATM   15  C   UNL     1     -12.767  10.395  71.181  1.00  0.00    -0.514 C  
BRANCH  15  16
HETATM   16  C   UNL     1     -12.023   9.099  71.387  1.00  0.00    -0.410 A  
HETATM   17  C   UNL     1     -10.663   6.753  72.067  1.00  0.00    -0.245 A  
HETATM   18  C   UNL     1      -9.949   7.929  71.831  1.00  0.00    -0.234 A  
HETATM   19  C   UNL     1     -12.732   7.910  71.606  1.00  0.00    -0.352 A  
HETATM   20  C   UNL     1     -12.049   6.742  71.947  1.00  0.00    -0.375 A  
HETATM   21  C   UNL     1     -10.626   9.097  71.486  1.00  0.00    -0.428 A  
ENDBRANCH  15  16
ENDBRANCH  14  15
ENDBRANCH  13  14
ENDBRANCH   3  13
ENDBRANCH   2   3
TORSDOF 9
ENDMDL
MODEL      232
REMARK 921   NORMALIZED FREE ENERGY PREDICTED BY IDOCK:   -3.78 KCAL/MOL
REMARK 922        TOTAL FREE ENERGY PREDICTED BY IDOCK:   -7.29 KCAL/MOL
REMARK 923 INTER-LIGAND FREE ENERGY PREDICTED BY IDOCK:   -6.49 KCAL/MOL
REMARK 924 INTRA-LIGAND FREE ENERGY PREDICTED BY IDOCK:   -0.80 KCAL/MOL
REMARK 927      BINDING AFFINITY PREDICTED BY RF-SCORE:    0.00 PKD
ROOT
HETATM    1  C   UNL     1     -11.911  14.041  64.295  1.00  0.00    -0.435 C  
HETATM    2  C   UNL     1     -12.631  13.971  65.638  1.00  0.00    -0.512 C  
ENDROOT
BRANCH   2   3
HETATM    3  N   UNL     1     -11.763  13.975  66.837  1.00  0.00    -0.388 NA 
BRANCH   3   4
HETATM    4  C   UNL     1     -11.728  12.656  67.498  1.00  0.00    -0.368 C  
BRANCH   4   5
HETATM    5  C   UNL     1     -10.384  11.905  67.434  1.00  0.00    -0.228 C  
BRANCH   5   6
HETATM    6  C   UNL     1     -10.043  11.122  68.706  1.00  0.00    -0.211 C  
BRANCH   6   7
HETATM    7  C   UNL     1     -10.366   9.653  68.535  1.00  0.00    -0.231 A  
HETATM    8  C   UNL     1     -10.444   9.086  67.255  1.00  0.00    -0.343 A  
HETATM    9  C   UNL     1     -10.679   7.717  67.101  1.00  0.00    -0.337 A  
HETATM   10  C   UNL     1     -10.534   8.825  69.655  1.00  0.00    -0.220 A  
HETATM   11  C   UNL     1     -10.839   6.904  68.222  1.00  0.00    -0.244 A  
HETATM   12  C   UNL     1     -10.769   7.458  69.499  1.00  0.00    -0.233 A  
ENDBRANCH   6   7
ENDBRANCH   5   6
ENDBRANCH   4   5
ENDBRANCH   3   4
BRANCH   3  13
HETATM   13  C   UNL     1     -10.401  14.420  66.474  1.00  0.00    -0.281 C  
BRANCH  13  14
HETATM   14  C   UNL     1      -9.972  15.759  67.076  1.00  0.00    -0.240 C  
BRANCH  14  15
HETATM   15  C   UNL     1      -9.031  16.551  66.163  1.00  0.00    -0.344 C  
BRANCH  15  16
HETATM   16  C   UNL     1      -8.532  17.759  66.915  1.00  0.00    -0.260 A  
HETATM   17  C   UNL     1      -7.345  19.964  68.159  1.00  0.00    -0.338 A  
HETATM   18  C   UNL     1      -7.249  18.698  68.742  1.00  0.00    -0.330 A  
HETATM   19  C   UNL     1      -8.641  19.035  66.346  1.00  0.00    -0.320 A  
HETATM   20  C   UNL     1      -8.045  20.132  66.970  1.00  0.00    -0.368 A  
HETATM   21  C   UNL     1      -7.845  17.601  68.125  1.00  0.00    -0.257 A  
ENDBRANCH  15  16
ENDBRANCH  14  15
ENDBRANCH  13  14
ENDBRANCH   3  13
ENDBRANCH   2   3
TORSDOF 9
ENDMDL
MODEL      233
REMARK 921   NORMALIZED FREE ENERGY PREDICTED BY IDOCK:   -3.78 KCAL/MOL
REMARK 922        TOTAL FREE ENERGY PREDICTED BY IDOCK:   -7.28 KCAL/MOL
REMARK 923 INTER-LIGAND FREE ENERGY PREDICTED BY IDOCK:   -6.41 KCAL/MOL
REMARK 924 INTRA-LIGAND FREE ENERGY PREDICTED BY IDOCK:   -0.88 KCAL/MOL
REMARK 927      BINDING AFFINITY PREDICTED BY RF-SCORE:    0.00 PKD
ROOT
HETATM    1  C   UNL     1      -6.910  13.928  68.516  1.00  0.00    -0.098 C  
HETATM    2  C   UNL     1      -7.358  12.487  68.732  1.00  0.00    -0.070 C  
ENDROOT
BRANCH   2   3
HETATM    3  N   UNL     1      -7.883  11.787  67.537  1.00  0.00    -0.139 NA 
BRANCH   3   4
HETATM    4  C   UNL     1      -8.386  10.438  67.864  1.00  0.00    -0.114 C  
BRANCH   4   5
HETATM    5  C   UNL     1      -8.834  10.221  69.323  1.00  0.00    -0.186 C  
BRANCH   5   6
HETATM    6  C   UNL     1      -9.476   8.854  69.584  1.00  0.00    -0.168 C  
BRANCH   6   7
HETATM    7  C   UNL     1     -10.667   8.989  70.509  1.00  0.00    -0.285 A  
HETATM    8  C   UNL     1     -11.024   7.939  71.367  1.00  0.00    -0.264 A  
HETATM    9  C   UNL     1     -12.084   8.089  72.265  1.00  0.00    -0.392 A  
HETATM   10  C   UNL     1     -11.394  10.187  70.564  1.00  0.00    -0.416 A  
HETATM   11  C   UNL     1     -12.796   9.287  72.314  1.00  0.00    -0.459 A  
HETATM   12  C   UNL     1     -12.453  10.335  71.462  1.00  0.00    -0.524 A  
ENDBRANCH   6   7
ENDBRANCH   5   6
ENDBRANCH   4   5
ENDBRANCH   3   4
BRANCH   3  13
HETATM   13  C   UNL     1      -8.936  12.602  66.896  1.00  0.00    -0.213 C  
BRANCH  13  14
HETATM   14  C   UNL     1     -10.184  12.839  67.749  1.00  0.00    -0.223 C  
BRANCH  14  15
HETATM   15  C   UNL     1     -11.415  12.093  67.226  1.00  0.00    -0.413 C  
BRANCH  15  16
HETATM   16  C   UNL     1     -11.804  12.679  65.892  1.00  0.00    -0.499 A  
HETATM   17  C   UNL     1     -12.229  13.789  63.362  1.00  0.00    -0.123 A  
HETATM   18  C   UNL     1     -12.145  14.618  64.482  1.00  0.00    -0.490 A  
HETATM   19  C   UNL     1     -11.909  11.851  64.766  1.00  0.00    -0.259 A  
HETATM   20  C   UNL     1     -12.118  12.410  63.505  1.00  0.00    -0.651 A  
HETATM   21  C   UNL     1     -11.940  14.064  65.744  1.00  0.00    -0.417 A  
ENDBRANCH  15  16
ENDBRANCH  14  15
ENDBRANCH  13  14
ENDBRANCH   3  13
ENDBRANCH   2   3
TORSDOF 9
ENDMDL
MODEL      234
REMARK 921   NORMALIZED FREE ENERGY PREDICTED BY IDOCK:   -3.77 KCAL/MOL
REMARK 922        TOTAL FREE ENERGY PREDICTED BY IDOCK:   -7.28 KCAL/MOL
REMARK 923 INTER-LIGAND FREE ENERGY PREDICTED BY IDOCK:   -6.39 KCAL/MOL
REMARK 924 INTRA-LIGAND FREE ENERGY PREDICTED BY IDOCK:   -0.89 KCAL/MOL
REMARK 927      BINDING AFFINITY PREDICTED BY RF-SCORE:    0.00 PKD
ROOT
HETATM    1  C   UNL     1     -10.433  19.918  65.988  1.00  0.00    -0.580 C  
HETATM    2  C   UNL     1     -10.897  19.037  67.143  1.00  0.00    -0.387 C  
ENDROOT
BRANCH   2   3
HETATM    3  N   UNL     1      -9.868  18.148  67.731  1.00  0.00    -0.298 NA 
BRANCH   3   4
HETATM    4  C   UNL     1      -8.604  18.863  67.990  1.00  0.00    -0.299 C  
BRANCH   4   5
HETATM    5  C   UNL     1      -7.331  18.215  67.411  1.00  0.00    -0.219 C  
BRANCH   5   6
HETATM    6  C   UNL     1      -6.117  19.149  67.367  1.00  0.00    -0.192 C  
BRANCH   6   7
HETATM    7  C   UNL     1      -5.826  19.583  65.946  1.00  0.00    -0.183 A  
HETATM    8  C   UNL     1      -5.773  18.640  64.910  1.00  0.00    -0.263 A  
HETATM    9  C   UNL     1      -5.567  19.049  63.590  1.00  0.00    -0.215 A  
HETATM   10  C   UNL     1      -5.663  20.941  65.635  1.00  0.00    -0.271 A  
HETATM   11  C   UNL     1      -5.412  20.402  63.293  1.00  0.00    -0.270 A  
HETATM   12  C   UNL     1      -5.457  21.349  64.316  1.00  0.00    -0.122 A  
ENDBRANCH   6   7
ENDBRANCH   5   6
ENDBRANCH   4   5
ENDBRANCH   3   4
BRANCH   3  13
HETATM   13  C   UNL     1     -10.386  17.525  68.968  1.00  0.00    -0.303 C  
BRANCH  13  14
HETATM   14  C   UNL     1     -10.371  15.996  68.980  1.00  0.00    -0.242 C  
BRANCH  14  15
HETATM   15  C   UNL     1     -11.741  15.383  68.674  1.00  0.00    -0.371 C  
BRANCH  15  16
HETATM   16  C   UNL     1     -11.581  14.369  67.569  1.00  0.00    -0.398 A  
HETATM   17  C   UNL     1     -10.988  12.490  65.585  1.00  0.00    -0.323 A  
HETATM   18  C   UNL     1     -10.985  13.853  65.279  1.00  0.00    -0.331 A  
HETATM   19  C   UNL     1     -11.602  12.999  67.865  1.00  0.00    -0.385 A  
HETATM   20  C   UNL     1     -11.303  12.066  66.872  1.00  0.00    -0.400 A  
HETATM   21  C   UNL     1     -11.287  14.788  66.266  1.00  0.00    -0.334 A  
ENDBRANCH  15  16
ENDBRANCH  14  15
ENDBRANCH  13  14
ENDBRANCH   3  13
ENDBRANCH   2   3
TORSDOF 9
ENDMDL
MODEL      235
REMARK 921   NORMALIZED FREE ENERGY PREDICTED BY IDOCK:   -3.76 KCAL/MOL
REMARK 922        TOTAL FREE ENERGY PREDICTED BY IDOCK:   -7.26 KCAL/MOL
REMARK 923 INTER-LIGAND FREE ENERGY PREDICTED BY IDOCK:   -6.15 KCAL/MOL
REMARK 924 INTRA-LIGAND FREE ENERGY PREDICTED BY IDOCK:   -1.11 KCAL/MOL
REMARK 927      BINDING AFFINITY PREDICTED BY RF-SCORE:    0.00 PKD
ROOT
HETATM    1  C   UNL     1     -11.003   8.684  71.268  1.00  0.00    -0.333 C  
HETATM    2  C   UNL     1      -9.659   9.128  70.701  1.00  0.00    -0.255 C  
ENDROOT
BRANCH   2   3
HETATM    3  N   UNL     1      -9.700  10.275  69.765  1.00  0.00    -0.194 NA 
BRANCH   3   4
HETATM    4  C   UNL     1      -9.172   9.920  68.433  1.00  0.00    -0.130 C  
BRANCH   4   5
HETATM    5  C   UNL     1      -9.028   8.413  68.145  1.00  0.00    -0.139 C  
BRANCH   5   6
HETATM    6  C   UNL     1      -9.988   7.885  67.073  1.00  0.00    -0.322 C  
BRANCH   6   7
HETATM    7  C   UNL     1      -9.548   6.522  66.583  1.00  0.00    -0.201 A  
HETATM    8  C   UNL     1     -10.167   5.359  67.063  1.00  0.00    -0.274 A  
HETATM    9  C   UNL     1      -9.803   4.106  66.563  1.00  0.00    -0.214 A  
HETATM   10  C   UNL     1      -8.555   6.405  65.599  1.00  0.00    -0.138 A  
HETATM   11  C   UNL     1      -8.819   4.003  65.581  1.00  0.00    -0.123 A  
HETATM   12  C   UNL     1      -8.193   5.153  65.101  1.00  0.00    -0.132 A  
ENDBRANCH   6   7
ENDBRANCH   5   6
ENDBRANCH   4   5
ENDBRANCH   3   4
BRANCH   3  13
HETATM   13  C   UNL     1     -11.081  10.796  69.663  1.00  0.00    -0.279 C  
BRANCH  13  14
HETATM   14  C   UNL     1     -11.640  10.881  68.242  1.00  0.00    -0.335 C  
BRANCH  14  15
HETATM   15  C   UNL     1     -11.750  12.320  67.729  1.00  0.00    -0.403 C  
BRANCH  15  16
HETATM   16  C   UNL     1     -11.660  12.304  66.224  1.00  0.00    -0.446 A  
HETATM   17  C   UNL     1     -11.267  12.476  63.461  1.00  0.00    -0.525 A  
HETATM   18  C   UNL     1     -12.182  13.323  64.090  1.00  0.00    -0.465 A  
HETATM   19  C   UNL     1     -10.757  11.444  65.584  1.00  0.00    -0.301 A  
HETATM   20  C   UNL     1     -10.562  11.536  64.205  1.00  0.00    -0.405 A  
HETATM   21  C   UNL     1     -12.382  13.233  65.465  1.00  0.00    -0.533 A  
ENDBRANCH  15  16
ENDBRANCH  14  15
ENDBRANCH  13  14
ENDBRANCH   3  13
ENDBRANCH   2   3
TORSDOF 9
ENDMDL
MODEL      236
REMARK 921   NORMALIZED FREE ENERGY PREDICTED BY IDOCK:   -3.74 KCAL/MOL
REMARK 922        TOTAL FREE ENERGY PREDICTED BY IDOCK:   -7.23 KCAL/MOL
REMARK 923 INTER-LIGAND FREE ENERGY PREDICTED BY IDOCK:   -6.52 KCAL/MOL
REMARK 924 INTRA-LIGAND FREE ENERGY PREDICTED BY IDOCK:   -0.71 KCAL/MOL
REMARK 927      BINDING AFFINITY PREDICTED BY RF-SCORE:    0.00 PKD
ROOT
HETATM    1  C   UNL     1      -8.129   8.259  71.950  1.00  0.00    -0.184 C  
HETATM    2  C   UNL     1      -9.586   8.709  71.948  1.00  0.00    -0.307 C  
ENDROOT
BRANCH   2   3
HETATM    3  N   UNL     1     -10.520   7.869  71.164  1.00  0.00    -0.204 NA 
BRANCH   3   4
HETATM    4  C   UNL     1     -11.753   8.598  70.809  1.00  0.00    -0.210 C  
BRANCH   4   5
HETATM    5  C   UNL     1     -11.676  10.135  70.892  1.00  0.00    -0.468 C  
BRANCH   5   6
HETATM    6  C   UNL     1     -12.804  10.776  71.707  1.00  0.00    -0.528 C  
BRANCH   6   7
HETATM    7  C   UNL     1     -12.841  12.274  71.486  1.00  0.00    -0.384 A  
HETATM    8  C   UNL     1     -12.111  12.857  70.441  1.00  0.00    -0.385 A  
HETATM    9  C   UNL     1     -12.196  14.230  70.199  1.00  0.00    -0.407 A  
HETATM   10  C   UNL     1     -13.652  13.092  72.286  1.00  0.00    -0.677 A  
HETATM   11  C   UNL     1     -13.010  15.033  70.997  1.00  0.00    -0.466 A  
HETATM   12  C   UNL     1     -13.736  14.464  72.043  1.00  0.00    -0.533 A  
ENDBRANCH   6   7
ENDBRANCH   5   6
ENDBRANCH   4   5
ENDBRANCH   3   4
BRANCH   3  13
HETATM   13  C   UNL     1      -9.844   7.354  69.955  1.00  0.00    -0.178 C  
BRANCH  13  14
HETATM   14  C   UNL     1     -10.215   5.922  69.563  1.00  0.00    -0.288 C  
BRANCH  14  15
HETATM   15  C   UNL     1     -10.954   5.842  68.224  1.00  0.00    -0.262 C  
BRANCH  15  16
HETATM   16  C   UNL     1     -10.178   4.939  67.298  1.00  0.00    -0.190 A  
HETATM   17  C   UNL     1      -8.936   3.046  65.657  1.00  0.00    -0.146 A  
HETATM   18  C   UNL     1      -8.513   3.210  66.978  1.00  0.00    -0.106 A  
HETATM   19  C   UNL     1     -10.584   4.784  65.965  1.00  0.00    -0.300 A  
HETATM   20  C   UNL     1      -9.963   3.836  65.152  1.00  0.00    -0.130 A  
HETATM   21  C   UNL     1      -9.128   4.157  67.793  1.00  0.00    -0.164 A  
ENDBRANCH  15  16
ENDBRANCH  14  15
ENDBRANCH  13  14
ENDBRANCH   3  13
ENDBRANCH   2   3
TORSDOF 9
ENDMDL
MODEL      237
REMARK 921   NORMALIZED FREE ENERGY PREDICTED BY IDOCK:   -3.73 KCAL/MOL
REMARK 922        TOTAL FREE ENERGY PREDICTED BY IDOCK:   -7.22 KCAL/MOL
REMARK 923 INTER-LIGAND FREE ENERGY PREDICTED BY IDOCK:   -6.24 KCAL/MOL
REMARK 924 INTRA-LIGAND FREE ENERGY PREDICTED BY IDOCK:   -0.97 KCAL/MOL
REMARK 927      BINDING AFFINITY PREDICTED BY RF-SCORE:    0.00 PKD
ROOT
HETATM    1  C   UNL     1      -7.113  11.421  67.108  1.00  0.00    -0.134 C  
HETATM    2  C   UNL     1      -7.334  12.725  67.867  1.00  0.00    -0.120 C  
ENDROOT
BRANCH   2   3
HETATM    3  N   UNL     1      -8.382  13.619  67.324  1.00  0.00    -0.184 NA 
BRANCH   3   4
HETATM    4  C   UNL     1      -9.332  12.892  66.459  1.00  0.00    -0.222 C  
BRANCH   4   5
HETATM    5  C   UNL     1     -10.817  13.273  66.619  1.00  0.00    -0.289 C  
BRANCH   5   6
HETATM    6  C   UNL     1     -11.769  12.073  66.677  1.00  0.00    -0.331 C  
BRANCH   6   7
HETATM    7  C   UNL     1     -11.223  10.999  67.595  1.00  0.00    -0.373 A  
HETATM    8  C   UNL     1     -10.714   9.804  67.068  1.00  0.00    -0.236 A  
HETATM    9  C   UNL     1     -10.154   8.841  67.911  1.00  0.00    -0.257 A  
HETATM   10  C   UNL     1     -11.164  11.209  68.980  1.00  0.00    -0.318 A  
HETATM   11  C   UNL     1     -10.095   9.064  69.286  1.00  0.00    -0.197 A  
HETATM   12  C   UNL     1     -10.603  10.247  69.821  1.00  0.00    -0.312 A  
ENDBRANCH   6   7
ENDBRANCH   5   6
ENDBRANCH   4   5
ENDBRANCH   3   4
BRANCH   3  13
HETATM   13  C   UNL     1      -9.089  14.299  68.430  1.00  0.00    -0.194 C  
BRANCH  13  14
HETATM   14  C   UNL     1      -9.153  15.823  68.319  1.00  0.00    -0.187 C  
BRANCH  14  15
HETATM   15  C   UNL     1     -10.579  16.348  68.123  1.00  0.00    -0.318 C  
BRANCH  15  16
HETATM   16  C   UNL     1     -10.507  17.796  67.707  1.00  0.00    -0.402 A  
HETATM   17  C   UNL     1     -10.082  20.431  66.873  1.00  0.00    -0.503 A  
HETATM   18  C   UNL     1      -9.916  20.089  68.217  1.00  0.00    -0.508 A  
HETATM   19  C   UNL     1     -10.692  18.150  66.363  1.00  0.00    -0.163 A  
HETATM   20  C   UNL     1     -10.476  19.466  65.952  1.00  0.00    -0.561 A  
HETATM   21  C   UNL     1     -10.133  18.777  68.633  1.00  0.00    -0.432 A  
ENDBRANCH  15  16
ENDBRANCH  14  15
ENDBRANCH  13  14
ENDBRANCH   3  13
ENDBRANCH   2   3
TORSDOF 9
ENDMDL
MODEL      238
REMARK 921   NORMALIZED FREE ENERGY PREDICTED BY IDOCK:   -3.73 KCAL/MOL
REMARK 922        TOTAL FREE ENERGY PREDICTED BY IDOCK:   -7.21 KCAL/MOL
REMARK 923 INTER-LIGAND FREE ENERGY PREDICTED BY IDOCK:   -6.08 KCAL/MOL
REMARK 924 INTRA-LIGAND FREE ENERGY PREDICTED BY IDOCK:   -1.13 KCAL/MOL
REMARK 927      BINDING AFFINITY PREDICTED BY RF-SCORE:    0.00 PKD
ROOT
HETATM    1  C   UNL     1      -8.741   8.510  71.654  1.00  0.00    -0.262 C  
HETATM    2  C   UNL     1      -9.739   9.416  70.940  1.00  0.00    -0.250 C  
ENDROOT
BRANCH   2   3
HETATM    3  N   UNL     1     -11.164   9.036  71.072  1.00  0.00    -0.273 NA 
BRANCH   3   4
HETATM    4  C   UNL     1     -11.350   7.900  71.996  1.00  0.00    -0.292 C  
BRANCH   4   5
HETATM    5  C   UNL     1     -12.186   6.722  71.458  1.00  0.00    -0.413 C  
BRANCH   5   6
HETATM    6  C   UNL     1     -11.751   6.225  70.076  1.00  0.00    -0.248 C  
BRANCH   6   7
HETATM    7  C   UNL     1     -10.393   5.558  70.149  1.00  0.00    -0.354 A  
HETATM    8  C   UNL     1     -10.106   4.636  71.166  1.00  0.00    -0.243 A  
HETATM    9  C   UNL     1      -8.876   3.975  71.195  1.00  0.00    -0.137 A  
HETATM   10  C   UNL     1      -9.423   5.808  69.167  1.00  0.00    -0.157 A  
HETATM   11  C   UNL     1      -7.922   4.227  70.210  1.00  0.00    -0.055 A  
HETATM   12  C   UNL     1      -8.194   5.146  69.198  1.00  0.00    -0.084 A  
ENDBRANCH   6   7
ENDBRANCH   5   6
ENDBRANCH   4   5
ENDBRANCH   3   4
BRANCH   3  13
HETATM   13  C   UNL     1     -11.961  10.204  71.505  1.00  0.00    -0.317 C  
BRANCH  13  14
HETATM   14  C   UNL     1     -12.158  11.286  70.443  1.00  0.00    -0.474 C  
BRANCH  14  15
HETATM   15  C   UNL     1     -12.431  12.669  71.042  1.00  0.00    -0.354 C  
BRANCH  15  16
HETATM   16  C   UNL     1     -12.136  13.715  69.997  1.00  0.00    -0.417 A  
HETATM   17  C   UNL     1     -11.297  15.620  68.131  1.00  0.00    -0.340 A  
HETATM   18  C   UNL     1     -11.626  16.014  69.429  1.00  0.00    -0.320 A  
HETATM   19  C   UNL     1     -11.824  13.330  68.686  1.00  0.00    -0.380 A  
HETATM   20  C   UNL     1     -11.403  14.284  67.759  1.00  0.00    -0.329 A  
HETATM   21  C   UNL     1     -12.050  15.066  70.357  1.00  0.00    -0.384 A  
ENDBRANCH  15  16
ENDBRANCH  14  15
ENDBRANCH  13  14
ENDBRANCH   3  13
ENDBRANCH   2   3
TORSDOF 9
ENDMDL
MODEL      239
REMARK 921   NORMALIZED FREE ENERGY PREDICTED BY IDOCK:   -3.73 KCAL/MOL
REMARK 922        TOTAL FREE ENERGY PREDICTED BY IDOCK:   -7.21 KCAL/MOL
REMARK 923 INTER-LIGAND FREE ENERGY PREDICTED BY IDOCK:   -6.48 KCAL/MOL
REMARK 924 INTRA-LIGAND FREE ENERGY PREDICTED BY IDOCK:   -0.73 KCAL/MOL
REMARK 927      BINDING AFFINITY PREDICTED BY RF-SCORE:    0.00 PKD
ROOT
HETATM    1  C   UNL     1      -9.689   4.222  66.745  1.00  0.00    -0.241 C  
HETATM    2  C   UNL     1     -10.534   5.422  66.331  1.00  0.00    -0.267 C  
ENDROOT
BRANCH   2   3
HETATM    3  N   UNL     1     -10.686   6.487  67.349  1.00  0.00    -0.294 NA 
BRANCH   3   4
HETATM    4  C   UNL     1     -10.445   5.983  68.715  1.00  0.00    -0.248 C  
BRANCH   4   5
HETATM    5  C   UNL     1     -11.433   6.465  69.796  1.00  0.00    -0.468 C  
BRANCH   5   6
HETATM    6  C   UNL     1     -10.764   7.128  71.004  1.00  0.00    -0.252 C  
BRANCH   6   7
HETATM    7  C   UNL     1     -10.424   6.098  72.061  1.00  0.00    -0.249 A  
HETATM    8  C   UNL     1     -11.440   5.447  72.774  1.00  0.00    -0.333 A  
HETATM    9  C   UNL     1     -11.126   4.452  73.703  1.00  0.00    -0.361 A  
HETATM   10  C   UNL     1      -9.089   5.738  72.300  1.00  0.00    -0.145 A  
HETATM   11  C   UNL     1      -9.797   4.098  73.928  1.00  0.00    -0.155 A  
HETATM   12  C   UNL     1      -8.778   4.743  73.229  1.00  0.00    -0.104 A  
ENDBRANCH   6   7
ENDBRANCH   5   6
ENDBRANCH   4   5
ENDBRANCH   3   4
BRANCH   3  13
HETATM   13  C   UNL     1      -9.786   7.618  67.036  1.00  0.00    -0.195 C  
BRANCH  13  14
HETATM   14  C   UNL     1     -10.488   8.918  66.642  1.00  0.00    -0.231 C  
BRANCH  14  15
HETATM   15  C   UNL     1      -9.704   9.730  65.607  1.00  0.00    -0.357 C  
BRANCH  15  16
HETATM   16  C   UNL     1     -10.515  10.945  65.233  1.00  0.00    -0.299 A  
HETATM   17  C   UNL     1     -12.252  13.010  64.500  1.00  0.00    -0.476 A  
HETATM   18  C   UNL     1     -11.493  12.358  63.526  1.00  0.00    -0.561 A  
HETATM   19  C   UNL     1     -11.265  11.617  66.208  1.00  0.00    -0.332 A  
HETATM   20  C   UNL     1     -12.132  12.645  65.837  1.00  0.00    -0.459 A  
HETATM   21  C   UNL     1     -10.623  11.334  63.892  1.00  0.00    -0.455 A  
ENDBRANCH  15  16
ENDBRANCH  14  15
ENDBRANCH  13  14
ENDBRANCH   3  13
ENDBRANCH   2   3
TORSDOF 9
ENDMDL
MODEL      240
REMARK 921   NORMALIZED FREE ENERGY PREDICTED BY IDOCK:   -3.72 KCAL/MOL
REMARK 922        TOTAL FREE ENERGY PREDICTED BY IDOCK:   -7.20 KCAL/MOL
REMARK 923 INTER-LIGAND FREE ENERGY PREDICTED BY IDOCK:   -5.64 KCAL/MOL
REMARK 924 INTRA-LIGAND FREE ENERGY PREDICTED BY IDOCK:   -1.56 KCAL/MOL
REMARK 927      BINDING AFFINITY PREDICTED BY RF-SCORE:    0.00 PKD
ROOT
HETATM    1  C   UNL     1      -9.305  10.931  65.822  1.00  0.00    -0.232 C  
HETATM    2  C   UNL     1      -8.422  11.733  66.772  1.00  0.00    -0.177 C  
ENDROOT
BRANCH   2   3
HETATM    3  N   UNL     1      -8.818  11.709  68.198  1.00  0.00    -0.158 NA 
BRANCH   3   4
HETATM    4  C   UNL     1     -10.201  11.226  68.379  1.00  0.00    -0.195 C  
BRANCH   4   5
HETATM    5  C   UNL     1     -11.199  12.241  68.969  1.00  0.00    -0.319 C  
BRANCH   5   6
HETATM    6  C   UNL     1     -10.809  13.706  68.745  1.00  0.00    -0.279 C  
BRANCH   6   7
HETATM    7  C   UNL     1     -11.145  14.140  67.334  1.00  0.00    -0.318 A  
HETATM    8  C   UNL     1     -10.280  14.985  66.624  1.00  0.00    -0.271 A  
HETATM    9  C   UNL     1     -10.561  15.334  65.301  1.00  0.00    -0.438 A  
HETATM   10  C   UNL     1     -12.297  13.657  66.695  1.00  0.00    -0.381 A  
HETATM   11  C   UNL     1     -11.705  14.843  64.675  1.00  0.00    -0.406 A  
HETATM   12  C   UNL     1     -12.575  14.007  65.373  1.00  0.00    -0.529 A  
ENDBRANCH   6   7
ENDBRANCH   5   6
ENDBRANCH   4   5
ENDBRANCH   3   4
BRANCH   3  13
HETATM   13  C   UNL     1      -7.866  10.885  68.973  1.00  0.00    -0.138 C  
BRANCH  13  14
HETATM   14  C   UNL     1      -8.506   9.853  69.903  1.00  0.00    -0.210 C  
BRANCH  14  15
HETATM   15  C   UNL     1      -8.071   8.418  69.592  1.00  0.00    -0.115 C  
BRANCH  15  16
HETATM   16  C   UNL     1      -9.129   7.767  68.737  1.00  0.00    -0.140 A  
HETATM   17  C   UNL     1     -10.934   6.302  67.184  1.00  0.00    -0.453 A  
HETATM   18  C   UNL     1      -9.855   6.948  66.577  1.00  0.00    -0.168 A  
HETATM   19  C   UNL     1     -10.226   7.133  69.338  1.00  0.00    -0.194 A  
HETATM   20  C   UNL     1     -11.122   6.401  68.559  1.00  0.00    -0.385 A  
HETATM   21  C   UNL     1      -8.959   7.682  67.350  1.00  0.00    -0.130 A  
ENDBRANCH  15  16
ENDBRANCH  14  15
ENDBRANCH  13  14
ENDBRANCH   3  13
ENDBRANCH   2   3
TORSDOF 9
ENDMDL
MODEL      241
REMARK 921   NORMALIZED FREE ENERGY PREDICTED BY IDOCK:   -3.72 KCAL/MOL
REMARK 922        TOTAL FREE ENERGY PREDICTED BY IDOCK:   -7.19 KCAL/MOL
REMARK 923 INTER-LIGAND FREE ENERGY PREDICTED BY IDOCK:   -6.18 KCAL/MOL
REMARK 924 INTRA-LIGAND FREE ENERGY PREDICTED BY IDOCK:   -1.02 KCAL/MOL
REMARK 927      BINDING AFFINITY PREDICTED BY RF-SCORE:    0.00 PKD
ROOT
HETATM    1  C   UNL     1     -10.589  15.534  69.781  1.00  0.00    -0.301 C  
HETATM    2  C   UNL     1     -11.895  15.158  69.089  1.00  0.00    -0.313 C  
ENDROOT
BRANCH   2   3
HETATM    3  N   UNL     1     -11.764  14.336  67.864  1.00  0.00    -0.342 NA 
BRANCH   3   4
HETATM    4  C   UNL     1     -10.406  14.413  67.291  1.00  0.00    -0.260 C  
BRANCH   4   5
HETATM    5  C   UNL     1     -10.201  15.462  66.180  1.00  0.00    -0.324 C  
BRANCH   5   6
HETATM    6  C   UNL     1      -8.856  16.191  66.248  1.00  0.00    -0.371 C  
BRANCH   6   7
HETATM    7  C   UNL     1      -9.053  17.648  66.612  1.00  0.00    -0.280 A  
HETATM    8  C   UNL     1     -10.330  18.137  66.923  1.00  0.00    -0.386 A  
HETATM    9  C   UNL     1     -10.500  19.466  67.320  1.00  0.00    -0.579 A  
HETATM   10  C   UNL     1      -7.954  18.515  66.700  1.00  0.00    -0.278 A  
HETATM   11  C   UNL     1      -9.400  20.316  67.409  1.00  0.00    -0.531 A  
HETATM   12  C   UNL     1      -8.127  19.842  67.096  1.00  0.00    -0.341 A  
ENDBRANCH   6   7
ENDBRANCH   5   6
ENDBRANCH   4   5
ENDBRANCH   3   4
BRANCH   3  13
HETATM   13  C   UNL     1     -12.137  12.935  68.153  1.00  0.00    -0.136 C  
BRANCH  13  14
HETATM   14  C   UNL     1     -10.997  11.921  68.032  1.00  0.00    -0.271 C  
BRANCH  14  15
HETATM   15  C   UNL     1     -10.947  10.937  69.205  1.00  0.00    -0.290 C  
BRANCH  15  16
HETATM   16  C   UNL     1     -10.148   9.728  68.786  1.00  0.00    -0.187 A  
HETATM   17  C   UNL     1      -8.864   7.322  68.169  1.00  0.00    -0.126 A  
HETATM   18  C   UNL     1      -8.473   8.054  69.292  1.00  0.00    -0.136 A  
HETATM   19  C   UNL     1     -10.522   8.999  67.649  1.00  0.00    -0.324 A  
HETATM   20  C   UNL     1      -9.881   7.797  67.347  1.00  0.00    -0.230 A  
HETATM   21  C   UNL     1      -9.108   9.256  69.596  1.00  0.00    -0.173 A  
ENDBRANCH  15  16
ENDBRANCH  14  15
ENDBRANCH  13  14
ENDBRANCH   3  13
ENDBRANCH   2   3
TORSDOF 9
ENDMDL
MODEL      242
REMARK 921   NORMALIZED FREE ENERGY PREDICTED BY IDOCK:   -3.72 KCAL/MOL
REMARK 922        TOTAL FREE ENERGY PREDICTED BY IDOCK:   -7.19 KCAL/MOL
REMARK 923 INTER-LIGAND FREE ENERGY PREDICTED BY IDOCK:   -6.35 KCAL/MOL
REMARK 924 INTRA-LIGAND FREE ENERGY PREDICTED BY IDOCK:   -0.84 KCAL/MOL
REMARK 927      BINDING AFFINITY PREDICTED BY RF-SCORE:    0.00 PKD
ROOT
HETATM    1  C   UNL     1     -10.671   8.013  67.755  1.00  0.00    -0.174 C  
HETATM    2  C   UNL     1      -9.755   9.218  67.936  1.00  0.00    -0.153 C  
ENDROOT
BRANCH   2   3
HETATM    3  N   UNL     1     -10.235  10.259  68.873  1.00  0.00    -0.193 NA 
BRANCH   3   4
HETATM    4  C   UNL     1     -11.638  10.634  68.610  1.00  0.00    -0.227 C  
BRANCH   4   5
HETATM    5  C   UNL     1     -11.907  12.137  68.401  1.00  0.00    -0.360 C  
BRANCH   5   6
HETATM    6  C   UNL     1     -10.663  12.951  68.031  1.00  0.00    -0.244 C  
BRANCH   6   7
HETATM    7  C   UNL     1     -10.932  13.821  66.820  1.00  0.00    -0.307 A  
HETATM    8  C   UNL     1     -10.282  15.055  66.672  1.00  0.00    -0.271 A  
HETATM    9  C   UNL     1     -10.483  15.826  65.525  1.00  0.00    -0.425 A  
HETATM   10  C   UNL     1     -11.788  13.379  65.802  1.00  0.00    -0.412 A  
HETATM   11  C   UNL     1     -11.332  15.374  64.517  1.00  0.00    -0.321 A  
HETATM   12  C   UNL     1     -11.988  14.151  64.656  1.00  0.00    -0.459 A  
ENDBRANCH   6   7
ENDBRANCH   5   6
ENDBRANCH   4   5
ENDBRANCH   3   4
BRANCH   3  13
HETATM   13  C   UNL     1     -10.064   9.801  70.269  1.00  0.00    -0.266 C  
BRANCH  13  14
HETATM   14  C   UNL     1     -11.308   9.925  71.150  1.00  0.00    -0.443 C  
BRANCH  14  15
HETATM   15  C   UNL     1     -12.144   8.643  71.187  1.00  0.00    -0.297 C  
BRANCH  15  16
HETATM   16  C   UNL     1     -11.285   7.521  71.713  1.00  0.00    -0.281 A  
HETATM   17  C   UNL     1      -9.947   5.314  72.788  1.00  0.00    -0.189 A  
HETATM   18  C   UNL     1     -10.143   6.457  73.565  1.00  0.00    -0.240 A  
HETATM   19  C   UNL     1     -11.068   6.377  70.932  1.00  0.00    -0.354 A  
HETATM   20  C   UNL     1     -10.402   5.277  71.475  1.00  0.00    -0.287 A  
HETATM   21  C   UNL     1     -10.804   7.559  73.027  1.00  0.00    -0.445 A  
ENDBRANCH  15  16
ENDBRANCH  14  15
ENDBRANCH  13  14
ENDBRANCH   3  13
ENDBRANCH   2   3
TORSDOF 9
ENDMDL
MODEL      243
REMARK 921   NORMALIZED FREE ENERGY PREDICTED BY IDOCK:   -3.71 KCAL/MOL
REMARK 922        TOTAL FREE ENERGY PREDICTED BY IDOCK:   -7.18 KCAL/MOL
REMARK 923 INTER-LIGAND FREE ENERGY PREDICTED BY IDOCK:   -5.36 KCAL/MOL
REMARK 924 INTRA-LIGAND FREE ENERGY PREDICTED BY IDOCK:   -1.82 KCAL/MOL
REMARK 927      BINDING AFFINITY PREDICTED BY RF-SCORE:    0.00 PKD
ROOT
HETATM    1  C   UNL     1     -11.133   2.487  73.616  1.00  0.00    -0.318 C  
HETATM    2  C   UNL     1     -10.719   3.946  73.461  1.00  0.00    -0.218 C  
ENDROOT
BRANCH   2   3
HETATM    3  N   UNL     1      -9.583   4.201  72.546  1.00  0.00    -0.133 NA 
BRANCH   3   4
HETATM    4  C   UNL     1     -10.037   4.639  71.211  1.00  0.00    -0.175 C  
BRANCH   4   5
HETATM    5  C   UNL     1     -11.206   5.643  71.192  1.00  0.00    -0.126 C  
BRANCH   5   6
HETATM    6  C   UNL     1     -10.945   6.892  70.343  1.00  0.00    -0.315 C  
BRANCH   6   7
HETATM    7  C   UNL     1     -11.692   8.085  70.902  1.00  0.00    -0.265 A  
HETATM    8  C   UNL     1     -11.288   9.390  70.585  1.00  0.00    -0.352 A  
HETATM    9  C   UNL     1     -12.015  10.488  71.049  1.00  0.00    -0.466 A  
HETATM   10  C   UNL     1     -12.833   7.903  71.697  1.00  0.00    -0.357 A  
HETATM   11  C   UNL     1     -13.151  10.295  71.833  1.00  0.00    -0.568 A  
HETATM   12  C   UNL     1     -13.559   9.002  72.160  1.00  0.00    -0.523 A  
ENDBRANCH   6   7
ENDBRANCH   5   6
ENDBRANCH   4   5
ENDBRANCH   3   4
BRANCH   3  13
HETATM   13  C   UNL     1      -8.666   5.195  73.143  1.00  0.00    -0.116 C  
BRANCH  13  14
HETATM   14  C   UNL     1      -9.271   6.050  74.257  1.00  0.00    -0.141 C  
BRANCH  14  15
HETATM   15  C   UNL     1      -9.524   7.499  73.828  1.00  0.00    -0.330 C  
BRANCH  15  16
HETATM   16  C   UNL     1      -8.222   8.097  73.358  1.00  0.00    -0.267 A  
HETATM   17  C   UNL     1      -5.716   8.923  72.435  1.00  0.00    -0.076 A  
HETATM   18  C   UNL     1      -5.912   8.677  73.795  1.00  0.00    -0.126 A  
HETATM   19  C   UNL     1      -8.024   8.366  71.997  1.00  0.00    -0.184 A  
HETATM   20  C   UNL     1      -6.771   8.775  71.541  1.00  0.00    -0.082 A  
HETATM   21  C   UNL     1      -7.162   8.271  74.256  1.00  0.00    -0.227 A  
ENDBRANCH  15  16
ENDBRANCH  14  15
ENDBRANCH  13  14
ENDBRANCH   3  13
ENDBRANCH   2   3
TORSDOF 9
ENDMDL
MODEL      244
REMARK 921   NORMALIZED FREE ENERGY PREDICTED BY IDOCK:   -3.71 KCAL/MOL
REMARK 922        TOTAL FREE ENERGY PREDICTED BY IDOCK:   -7.17 KCAL/MOL
REMARK 923 INTER-LIGAND FREE ENERGY PREDICTED BY IDOCK:   -6.27 KCAL/MOL
REMARK 924 INTRA-LIGAND FREE ENERGY PREDICTED BY IDOCK:   -0.90 KCAL/MOL
REMARK 927      BINDING AFFINITY PREDICTED BY RF-SCORE:    0.00 PKD
ROOT
HETATM    1  C   UNL     1     -12.053  14.125  67.011  1.00  0.00    -0.449 C  
HETATM    2  C   UNL     1     -10.689  13.455  66.879  1.00  0.00    -0.273 C  
ENDROOT
BRANCH   2   3
HETATM    3  N   UNL     1     -10.067  13.002  68.143  1.00  0.00    -0.232 NA 
BRANCH   3   4
HETATM    4  C   UNL     1      -9.863  11.540  68.165  1.00  0.00    -0.194 C  
BRANCH   4   5
HETATM    5  C   UNL     1     -10.748  10.721  67.205  1.00  0.00    -0.324 C  
BRANCH   5   6
HETATM    6  C   UNL     1      -9.968   9.774  66.287  1.00  0.00    -0.331 C  
BRANCH   6   7
HETATM    7  C   UNL     1      -9.791   8.420  66.942  1.00  0.00    -0.313 A  
HETATM    8  C   UNL     1      -8.517   7.974  67.322  1.00  0.00    -0.125 A  
HETATM    9  C   UNL     1      -8.363   6.753  67.982  1.00  0.00    -0.120 A  
HETATM   10  C   UNL     1     -10.904   7.616  67.230  1.00  0.00    -0.263 A  
HETATM   11  C   UNL     1      -9.477   5.966  68.268  1.00  0.00    -0.123 A  
HETATM   12  C   UNL     1     -10.748   6.396  67.890  1.00  0.00    -0.372 A  
ENDBRANCH   6   7
ENDBRANCH   5   6
ENDBRANCH   4   5
ENDBRANCH   3   4
BRANCH   3  13
HETATM   13  C   UNL     1      -8.791  13.716  68.364  1.00  0.00    -0.152 C  
BRANCH  13  14
HETATM   14  C   UNL     1      -8.736  15.137  67.801  1.00  0.00    -0.169 C  
BRANCH  14  15
HETATM   15  C   UNL     1      -9.177  16.198  68.813  1.00  0.00    -0.224 C  
BRANCH  15  16
HETATM   16  C   UNL     1      -9.572  17.445  68.064  1.00  0.00    -0.276 A  
HETATM   17  C   UNL     1     -10.589  19.700  66.760  1.00  0.00    -0.602 A  
HETATM   18  C   UNL     1     -10.478  18.488  66.074  1.00  0.00    -0.433 A  
HETATM   19  C   UNL     1      -9.667  18.670  68.740  1.00  0.00    -0.407 A  
HETATM   20  C   UNL     1     -10.178  19.791  68.085  1.00  0.00    -0.577 A  
HETATM   21  C   UNL     1      -9.966  17.367  66.723  1.00  0.00    -0.307 A  
ENDBRANCH  15  16
ENDBRANCH  14  15
ENDBRANCH  13  14
ENDBRANCH   3  13
ENDBRANCH   2   3
TORSDOF 9
ENDMDL
MODEL      245
REMARK 921   NORMALIZED FREE ENERGY PREDICTED BY IDOCK:   -3.69 KCAL/MOL
REMARK 922        TOTAL FREE ENERGY PREDICTED BY IDOCK:   -7.14 KCAL/MOL
REMARK 923 INTER-LIGAND FREE ENERGY PREDICTED BY IDOCK:   -5.92 KCAL/MOL
REMARK 924 INTRA-LIGAND FREE ENERGY PREDICTED BY IDOCK:   -1.23 KCAL/MOL
REMARK 927      BINDING AFFINITY PREDICTED BY RF-SCORE:    0.00 PKD
ROOT
HETATM    1  C   UNL     1     -10.307   4.600  65.830  1.00  0.00    -0.315 C  
HETATM    2  C   UNL     1      -9.083   5.445  66.165  1.00  0.00    -0.151 C  
ENDROOT
BRANCH   2   3
HETATM    3  N   UNL     1      -9.304   6.550  67.127  1.00  0.00    -0.123 NA 
BRANCH   3   4
HETATM    4  C   UNL     1      -9.580   6.049  68.487  1.00  0.00    -0.121 C  
BRANCH   4   5
HETATM    5  C   UNL     1     -11.008   6.284  69.016  1.00  0.00    -0.437 C  
BRANCH   5   6
HETATM    6  C   UNL     1     -11.133   7.468  69.980  1.00  0.00    -0.219 C  
BRANCH   6   7
HETATM    7  C   UNL     1     -10.784   7.049  71.392  1.00  0.00    -0.241 A  
HETATM    8  C   UNL     1     -10.054   7.905  72.229  1.00  0.00    -0.297 A  
HETATM    9  C   UNL     1      -9.787   7.543  73.551  1.00  0.00    -0.372 A  
HETATM   10  C   UNL     1     -11.237   5.824  71.904  1.00  0.00    -0.289 A  
HETATM   11  C   UNL     1     -10.247   6.325  74.050  1.00  0.00    -0.327 A  
HETATM   12  C   UNL     1     -10.970   5.464  73.226  1.00  0.00    -0.358 A  
ENDBRANCH   6   7
ENDBRANCH   5   6
ENDBRANCH   4   5
ENDBRANCH   3   4
BRANCH   3  13
HETATM   13  C   UNL     1      -8.140   7.462  67.126  1.00  0.00    -0.114 C  
BRANCH  13  14
HETATM   14  C   UNL     1      -8.457   8.920  66.790  1.00  0.00    -0.117 C  
BRANCH  14  15
HETATM   15  C   UNL     1      -9.836   9.098  66.148  1.00  0.00    -0.363 C  
BRANCH  15  16
HETATM   16  C   UNL     1     -10.441  10.384  66.652  1.00  0.00    -0.279 A  
HETATM   17  C   UNL     1     -11.825  12.671  67.472  1.00  0.00    -0.396 A  
HETATM   18  C   UNL     1     -11.203  12.643  66.222  1.00  0.00    -0.354 A  
HETATM   19  C   UNL     1     -11.050  10.427  67.913  1.00  0.00    -0.363 A  
HETATM   20  C   UNL     1     -11.742  11.569  68.317  1.00  0.00    -0.371 A  
HETATM   21  C   UNL     1     -10.508  11.506  65.816  1.00  0.00    -0.308 A  
ENDBRANCH  15  16
ENDBRANCH  14  15
ENDBRANCH  13  14
ENDBRANCH   3  13
ENDBRANCH   2   3
TORSDOF 9
ENDMDL
MODEL      246
REMARK 921   NORMALIZED FREE ENERGY PREDICTED BY IDOCK:   -3.69 KCAL/MOL
REMARK 922        TOTAL FREE ENERGY PREDICTED BY IDOCK:   -7.14 KCAL/MOL
REMARK 923 INTER-LIGAND FREE ENERGY PREDICTED BY IDOCK:   -4.89 KCAL/MOL
REMARK 924 INTRA-LIGAND FREE ENERGY PREDICTED BY IDOCK:   -2.25 KCAL/MOL
REMARK 927      BINDING AFFINITY PREDICTED BY RF-SCORE:    0.00 PKD
ROOT
HETATM    1  C   UNL     1     -11.041  15.691  65.149  1.00  0.00    -0.357 C  
HETATM    2  C   UNL     1     -12.041  14.560  65.365  1.00  0.00    -0.317 C  
ENDROOT
BRANCH   2   3
HETATM    3  N   UNL     1     -11.463  13.254  65.755  1.00  0.00    -0.315 NA 
BRANCH   3   4
HETATM    4  C   UNL     1     -11.730  12.934  67.172  1.00  0.00    -0.377 C  
BRANCH   4   5
HETATM    5  C   UNL     1     -11.731  11.436  67.536  1.00  0.00    -0.220 C  
BRANCH   5   6
HETATM    6  C   UNL     1     -10.336  10.848  67.770  1.00  0.00    -0.218 C  
BRANCH   6   7
HETATM    7  C   UNL     1     -10.403   9.339  67.886  1.00  0.00    -0.279 A  
HETATM    8  C   UNL     1     -10.356   8.719  69.143  1.00  0.00    -0.227 A  
HETATM    9  C   UNL     1     -10.481   7.332  69.252  1.00  0.00    -0.221 A  
HETATM   10  C   UNL     1     -10.571   8.544  66.744  1.00  0.00    -0.227 A  
HETATM   11  C   UNL     1     -10.654   6.553  68.110  1.00  0.00    -0.307 A  
HETATM   12  C   UNL     1     -10.696   7.158  66.855  1.00  0.00    -0.363 A  
ENDBRANCH   6   7
ENDBRANCH   5   6
ENDBRANCH   4   5
ENDBRANCH   3   4
BRANCH   3  13
HETATM   13  C   UNL     1     -11.977  12.188  64.868  1.00  0.00    -0.290 C  
BRANCH  13  14
HETATM   14  C   UNL     1     -10.985  11.681  63.820  1.00  0.00    -0.495 C  
BRANCH  14  15
HETATM   15  C   UNL     1      -9.526  11.959  64.196  1.00  0.00     0.048 C  
BRANCH  15  16
HETATM   16  C   UNL     1      -8.814  10.641  64.374  1.00  0.00    -0.185 A  
HETATM   17  C   UNL     1      -7.283   8.306  64.515  1.00  0.00    -0.083 A  
HETATM   18  C   UNL     1      -8.285   8.426  63.550  1.00  0.00    -0.106 A  
HETATM   19  C   UNL     1      -7.820  10.506  65.353  1.00  0.00    -0.119 A  
HETATM   20  C   UNL     1      -7.057   9.340  65.417  1.00  0.00    -0.086 A  
HETATM   21  C   UNL     1      -9.052   9.587  63.483  1.00  0.00    -0.145 A  
ENDBRANCH  15  16
ENDBRANCH  14  15
ENDBRANCH  13  14
ENDBRANCH   3  13
ENDBRANCH   2   3
TORSDOF 9
ENDMDL
MODEL      247
REMARK 921   NORMALIZED FREE ENERGY PREDICTED BY IDOCK:   -3.68 KCAL/MOL
REMARK 922        TOTAL FREE ENERGY PREDICTED BY IDOCK:   -7.14 KCAL/MOL
REMARK 923 INTER-LIGAND FREE ENERGY PREDICTED BY IDOCK:   -5.98 KCAL/MOL
REMARK 924 INTRA-LIGAND FREE ENERGY PREDICTED BY IDOCK:   -1.16 KCAL/MOL
REMARK 927      BINDING AFFINITY PREDICTED BY RF-SCORE:    0.00 PKD
ROOT
HETATM    1  C   UNL     1      -8.303   8.946  64.839  1.00  0.00    -0.181 C  
HETATM    2  C   UNL     1      -8.479   8.366  66.238  1.00  0.00    -0.127 C  
ENDROOT
BRANCH   2   3
HETATM    3  N   UNL     1      -9.219   9.215  67.200  1.00  0.00    -0.132 NA 
BRANCH   3   4
HETATM    4  C   UNL     1      -9.501   8.502  68.461  1.00  0.00    -0.142 C  
BRANCH   4   5
HETATM    5  C   UNL     1     -10.908   8.711  69.054  1.00  0.00    -0.043 C  
BRANCH   5   6
HETATM    6  C   UNL     1     -10.914   9.071  70.543  1.00  0.00    -0.295 C  
BRANCH   6   7
HETATM    7  C   UNL     1     -11.687  10.352  70.782  1.00  0.00    -0.464 A  
HETATM    8  C   UNL     1     -12.670  10.414  71.780  1.00  0.00    -0.525 A  
HETATM    9  C   UNL     1     -13.337  11.613  72.041  1.00  0.00    -0.405 A  
HETATM   10  C   UNL     1     -11.391  11.510  70.048  1.00  0.00    -0.222 A  
HETATM   11  C   UNL     1     -13.030  12.759  71.309  1.00  0.00    -0.310 A  
HETATM   12  C   UNL     1     -12.059  12.707  70.310  1.00  0.00    -0.372 A  
ENDBRANCH   6   7
ENDBRANCH   5   6
ENDBRANCH   4   5
ENDBRANCH   3   4
BRANCH   3  13
HETATM   13  C   UNL     1      -8.467  10.463  67.456  1.00  0.00    -0.115 C  
BRANCH  13  14
HETATM   14  C   UNL     1      -9.309  11.739  67.461  1.00  0.00    -0.174 C  
BRANCH  14  15
HETATM   15  C   UNL     1      -9.014  12.654  66.268  1.00  0.00     0.018 C  
BRANCH  15  16
HETATM   16  C   UNL     1     -10.243  12.721  65.396  1.00  0.00    -0.299 A  
HETATM   17  C   UNL     1     -12.345  12.980  63.571  1.00  0.00    -0.500 A  
HETATM   18  C   UNL     1     -12.112  13.983  64.515  1.00  0.00    -0.484 A  
HETATM   19  C   UNL     1     -10.495  11.709  64.459  1.00  0.00    -0.359 A  
HETATM   20  C   UNL     1     -11.544  11.844  63.549  1.00  0.00    -0.537 A  
HETATM   21  C   UNL     1     -11.068  13.851  65.427  1.00  0.00    -0.310 A  
ENDBRANCH  15  16
ENDBRANCH  14  15
ENDBRANCH  13  14
ENDBRANCH   3  13
ENDBRANCH   2   3
TORSDOF 9
ENDMDL
MODEL      248
REMARK 921   NORMALIZED FREE ENERGY PREDICTED BY IDOCK:   -3.68 KCAL/MOL
REMARK 922        TOTAL FREE ENERGY PREDICTED BY IDOCK:   -7.13 KCAL/MOL
REMARK 923 INTER-LIGAND FREE ENERGY PREDICTED BY IDOCK:   -6.25 KCAL/MOL
REMARK 924 INTRA-LIGAND FREE ENERGY PREDICTED BY IDOCK:   -0.88 KCAL/MOL
REMARK 927      BINDING AFFINITY PREDICTED BY RF-SCORE:    0.00 PKD
ROOT
HETATM    1  C   UNL     1     -10.656  16.147  69.734  1.00  0.00    -0.312 C  
HETATM    2  C   UNL     1     -11.849  15.626  68.939  1.00  0.00    -0.352 C  
ENDROOT
BRANCH   2   3
HETATM    3  N   UNL     1     -11.563  15.203  67.549  1.00  0.00    -0.304 NA 
BRANCH   3   4
HETATM    4  C   UNL     1     -10.256  15.700  67.078  1.00  0.00    -0.274 C  
BRANCH   4   5
HETATM    5  C   UNL     1     -10.298  16.725  65.928  1.00  0.00    -0.341 C  
BRANCH   5   6
HETATM    6  C   UNL     1     -10.332  18.185  66.391  1.00  0.00    -0.404 C  
BRANCH   6   7
HETATM    7  C   UNL     1      -9.011  18.580  67.018  1.00  0.00    -0.275 A  
HETATM    8  C   UNL     1      -7.811  18.424  66.308  1.00  0.00    -0.273 A  
HETATM    9  C   UNL     1      -6.601  18.847  66.863  1.00  0.00    -0.199 A  
HETATM   10  C   UNL     1      -8.973  19.161  68.294  1.00  0.00    -0.379 A  
HETATM   11  C   UNL     1      -6.577  19.429  68.129  1.00  0.00    -0.276 A  
HETATM   12  C   UNL     1      -7.763  19.583  68.847  1.00  0.00    -0.369 A  
ENDBRANCH   6   7
ENDBRANCH   5   6
ENDBRANCH   4   5
ENDBRANCH   3   4
BRANCH   3  13
HETATM   13  C   UNL     1     -11.637  13.730  67.444  1.00  0.00    -0.362 C  
BRANCH  13  14
HETATM   14  C   UNL     1     -10.839  13.120  66.289  1.00  0.00    -0.292 C  
BRANCH  14  15
HETATM   15  C   UNL     1      -9.542  12.449  66.749  1.00  0.00    -0.224 C  
BRANCH  15  16
HETATM   16  C   UNL     1      -9.686  10.957  66.583  1.00  0.00    -0.222 A  
HETATM   17  C   UNL     1      -9.721   8.163  66.468  1.00  0.00    -0.309 A  
HETATM   18  C   UNL     1      -8.953   8.890  65.555  1.00  0.00    -0.246 A  
HETATM   19  C   UNL     1     -10.470  10.222  67.483  1.00  0.00    -0.293 A  
HETATM   20  C   UNL     1     -10.482   8.828  67.423  1.00  0.00    -0.349 A  
HETATM   21  C   UNL     1      -8.940  10.282  65.609  1.00  0.00    -0.198 A  
ENDBRANCH  15  16
ENDBRANCH  14  15
ENDBRANCH  13  14
ENDBRANCH   3  13
ENDBRANCH   2   3
TORSDOF 9
ENDMDL
MODEL      249
REMARK 921   NORMALIZED FREE ENERGY PREDICTED BY IDOCK:   -3.68 KCAL/MOL
REMARK 922        TOTAL FREE ENERGY PREDICTED BY IDOCK:   -7.13 KCAL/MOL
REMARK 923 INTER-LIGAND FREE ENERGY PREDICTED BY IDOCK:   -6.03 KCAL/MOL
REMARK 924 INTRA-LIGAND FREE ENERGY PREDICTED BY IDOCK:   -1.10 KCAL/MOL
REMARK 927      BINDING AFFINITY PREDICTED BY RF-SCORE:    0.00 PKD
ROOT
HETATM    1  C   UNL     1      -6.194  14.642  67.957  1.00  0.00    -0.165 C  
HETATM    2  C   UNL     1      -7.106  13.499  68.389  1.00  0.00    -0.107 C  
ENDROOT
BRANCH   2   3
HETATM    3  N   UNL     1      -8.532  13.633  68.011  1.00  0.00    -0.164 NA 
BRANCH   3   4
HETATM    4  C   UNL     1      -9.239  12.338  68.056  1.00  0.00    -0.195 C  
BRANCH   4   5
HETATM    5  C   UNL     1      -8.602  11.252  68.944  1.00  0.00    -0.056 C  
BRANCH   5   6
HETATM    6  C   UNL     1      -9.205   9.856  68.757  1.00  0.00    -0.147 C  
BRANCH   6   7
HETATM    7  C   UNL     1     -10.044   9.469  69.957  1.00  0.00    -0.279 A  
HETATM    8  C   UNL     1      -9.467   8.787  71.038  1.00  0.00    -0.287 A  
HETATM    9  C   UNL     1     -10.227   8.487  72.171  1.00  0.00    -0.403 A  
HETATM   10  C   UNL     1     -11.395   9.837  70.031  1.00  0.00    -0.269 A  
HETATM   11  C   UNL     1     -11.567   8.863  72.235  1.00  0.00    -0.332 A  
HETATM   12  C   UNL     1     -12.153   9.536  71.164  1.00  0.00    -0.429 A  
ENDBRANCH   6   7
ENDBRANCH   5   6
ENDBRANCH   4   5
ENDBRANCH   3   4
BRANCH   3  13
HETATM   13  C   UNL     1      -9.195  14.626  68.884  1.00  0.00    -0.151 C  
BRANCH  13  14
HETATM   14  C   UNL     1     -10.367  15.372  68.245  1.00  0.00    -0.238 C  
BRANCH  14  15
HETATM   15  C   UNL     1     -11.682  14.590  68.317  1.00  0.00    -0.368 C  
BRANCH  15  16
HETATM   16  C   UNL     1     -12.169  14.593  69.744  1.00  0.00    -0.347 A  
HETATM   17  C   UNL     1     -12.787  14.531  72.470  1.00  0.00    -0.471 A  
HETATM   18  C   UNL     1     -12.911  13.373  71.700  1.00  0.00    -0.445 A  
HETATM   19  C   UNL     1     -12.066  15.757  70.518  1.00  0.00    -0.407 A  
HETATM   20  C   UNL     1     -12.372  15.720  71.879  1.00  0.00    -0.533 A  
HETATM   21  C   UNL     1     -12.609  13.406  70.341  1.00  0.00    -0.237 A  
ENDBRANCH  15  16
ENDBRANCH  14  15
ENDBRANCH  13  14
ENDBRANCH   3  13
ENDBRANCH   2   3
TORSDOF 9
ENDMDL
MODEL      250
REMARK 921   NORMALIZED FREE ENERGY PREDICTED BY IDOCK:   -3.67 KCAL/MOL
REMARK 922        TOTAL FREE ENERGY PREDICTED BY IDOCK:   -7.11 KCAL/MOL
REMARK 923 INTER-LIGAND FREE ENERGY PREDICTED BY IDOCK:   -6.04 KCAL/MOL
REMARK 924 INTRA-LIGAND FREE ENERGY PREDICTED BY IDOCK:   -1.07 KCAL/MOL
REMARK 927      BINDING AFFINITY PREDICTED BY RF-SCORE:    0.00 PKD
ROOT
HETATM    1  C   UNL     1      -6.995  11.021  67.681  1.00  0.00    -0.083 C  
HETATM    2  C   UNL     1      -8.031  11.780  68.503  1.00  0.00    -0.145 C  
ENDROOT
BRANCH   2   3
HETATM    3  N   UNL     1      -9.412  11.770  67.968  1.00  0.00    -0.181 NA 
BRANCH   3   4
HETATM    4  C   UNL     1      -9.443  11.469  66.524  1.00  0.00    -0.204 C  
BRANCH   4   5
HETATM    5  C   UNL     1     -10.194  10.186  66.118  1.00  0.00    -0.285 C  
BRANCH   5   6
HETATM    6  C   UNL     1      -9.278   9.013  65.752  1.00  0.00    -0.293 C  
BRANCH   6   7
HETATM    7  C   UNL     1      -9.479   7.857  66.709  1.00  0.00    -0.257 A  
HETATM    8  C   UNL     1     -10.767   7.374  66.982  1.00  0.00    -0.389 A  
HETATM    9  C   UNL     1     -10.946   6.268  67.816  1.00  0.00    -0.427 A  
HETATM   10  C   UNL     1      -8.377   7.214  67.291  1.00  0.00    -0.119 A  
HETATM   11  C   UNL     1      -9.842   5.633  68.383  1.00  0.00    -0.178 A  
HETATM   12  C   UNL     1      -8.557   6.108  68.124  1.00  0.00    -0.115 A  
ENDBRANCH   6   7
ENDBRANCH   5   6
ENDBRANCH   4   5
ENDBRANCH   3   4
BRANCH   3  13
HETATM   13  C   UNL     1     -10.241  10.809  68.726  1.00  0.00    -0.193 C  
BRANCH  13  14
HETATM   14  C   UNL     1     -11.661  11.283  69.042  1.00  0.00    -0.386 C  
BRANCH  14  15
HETATM   15  C   UNL     1     -11.948  11.346  70.546  1.00  0.00    -0.451 C  
BRANCH  15  16
HETATM   16  C   UNL     1     -12.201   9.947  71.048  1.00  0.00    -0.446 A  
HETATM   17  C   UNL     1     -12.732   7.278  71.691  1.00  0.00    -0.410 A  
HETATM   18  C   UNL     1     -13.759   8.223  71.730  1.00  0.00    -0.420 A  
HETATM   19  C   UNL     1     -11.170   8.997  71.030  1.00  0.00    -0.361 A  
HETATM   20  C   UNL     1     -11.441   7.666  71.350  1.00  0.00    -0.290 A  
HETATM   21  C   UNL     1     -13.494   9.553  71.415  1.00  0.00    -0.405 A  
ENDBRANCH  15  16
ENDBRANCH  14  15
ENDBRANCH  13  14
ENDBRANCH   3  13
ENDBRANCH   2   3
TORSDOF 9
ENDMDL
MODEL      251
REMARK 921   NORMALIZED FREE ENERGY PREDICTED BY IDOCK:   -3.66 KCAL/MOL
REMARK 922        TOTAL FREE ENERGY PREDICTED BY IDOCK:   -7.10 KCAL/MOL
REMARK 923 INTER-LIGAND FREE ENERGY PREDICTED BY IDOCK:   -6.14 KCAL/MOL
REMARK 924 INTRA-LIGAND FREE ENERGY PREDICTED BY IDOCK:   -0.96 KCAL/MOL
REMARK 927      BINDING AFFINITY PREDICTED BY RF-SCORE:    0.00 PKD
ROOT
HETATM    1  C   UNL     1      -7.700   8.922  71.595  1.00  0.00    -0.061 C  
HETATM    2  C   UNL     1      -8.186   9.638  70.340  1.00  0.00    -0.160 C  
ENDROOT
BRANCH   2   3
HETATM    3  N   UNL     1      -9.624   9.479  70.021  1.00  0.00    -0.222 NA 
BRANCH   3   4
HETATM    4  C   UNL     1      -9.971  10.086  68.721  1.00  0.00    -0.172 C  
BRANCH   4   5
HETATM    5  C   UNL     1     -10.512  11.528  68.773  1.00  0.00    -0.227 C  
BRANCH   5   6
HETATM    6  C   UNL     1     -11.756  11.762  67.909  1.00  0.00    -0.347 C  
BRANCH   6   7
HETATM    7  C   UNL     1     -11.511  12.867  66.904  1.00  0.00    -0.393 A  
HETATM    8  C   UNL     1     -12.087  12.809  65.627  1.00  0.00    -0.514 A  
HETATM    9  C   UNL     1     -11.911  13.860  64.723  1.00  0.00    -0.426 A  
HETATM   10  C   UNL     1     -10.752  13.994  67.254  1.00  0.00    -0.278 A  
HETATM   11  C   UNL     1     -11.160  14.976  65.085  1.00  0.00    -0.408 A  
HETATM   12  C   UNL     1     -10.578  15.043  66.350  1.00  0.00    -0.310 A  
ENDBRANCH   6   7
ENDBRANCH   5   6
ENDBRANCH   4   5
ENDBRANCH   3   4
BRANCH   3  13
HETATM   13  C   UNL     1      -9.993   8.048  70.051  1.00  0.00    -0.191 C  
BRANCH  13  14
HETATM   14  C   UNL     1     -11.410   7.753  70.546  1.00  0.00    -0.253 C  
BRANCH  14  15
HETATM   15  C   UNL     1     -11.622   8.140  72.013  1.00  0.00    -0.389 C  
BRANCH  15  16
HETATM   16  C   UNL     1     -11.250   6.965  72.882  1.00  0.00    -0.254 A  
HETATM   17  C   UNL     1     -10.343   4.726  74.289  1.00  0.00    -0.317 A  
HETATM   18  C   UNL     1     -11.356   4.589  73.338  1.00  0.00    -0.376 A  
HETATM   19  C   UNL     1     -10.248   7.099  73.852  1.00  0.00    -0.358 A  
HETATM   20  C   UNL     1      -9.797   5.978  74.550  1.00  0.00    -0.295 A  
HETATM   21  C   UNL     1     -11.812   5.705  72.641  1.00  0.00    -0.192 A  
ENDBRANCH  15  16
ENDBRANCH  14  15
ENDBRANCH  13  14
ENDBRANCH   3  13
ENDBRANCH   2   3
TORSDOF 9
ENDMDL
MODEL      252
REMARK 921   NORMALIZED FREE ENERGY PREDICTED BY IDOCK:   -3.65 KCAL/MOL
REMARK 922        TOTAL FREE ENERGY PREDICTED BY IDOCK:   -7.09 KCAL/MOL
REMARK 923 INTER-LIGAND FREE ENERGY PREDICTED BY IDOCK:   -6.42 KCAL/MOL
REMARK 924 INTRA-LIGAND FREE ENERGY PREDICTED BY IDOCK:   -0.67 KCAL/MOL
REMARK 927      BINDING AFFINITY PREDICTED BY RF-SCORE:    0.00 PKD
ROOT
HETATM    1  C   UNL     1     -12.206  10.083  71.437  1.00  0.00    -0.510 C  
HETATM    2  C   UNL     1     -11.114  10.264  70.388  1.00  0.00    -0.319 C  
ENDROOT
BRANCH   2   3
HETATM    3  N   UNL     1     -10.449   9.023  69.928  1.00  0.00    -0.208 NA 
BRANCH   3   4
HETATM    4  C   UNL     1     -11.194   7.815  70.333  1.00  0.00    -0.237 C  
BRANCH   4   5
HETATM    5  C   UNL     1     -10.488   6.470  70.075  1.00  0.00    -0.257 C  
BRANCH   5   6
HETATM    6  C   UNL     1     -10.503   5.515  71.273  1.00  0.00    -0.306 C  
BRANCH   6   7
HETATM    7  C   UNL     1      -9.951   4.159  70.885  1.00  0.00    -0.207 A  
HETATM    8  C   UNL     1      -9.349   3.967  69.633  1.00  0.00    -0.243 A  
HETATM    9  C   UNL     1      -8.784   2.734  69.302  1.00  0.00    -0.134 A  
HETATM   10  C   UNL     1      -9.981   3.091  71.794  1.00  0.00    -0.192 A  
HETATM   11  C   UNL     1      -8.814   1.682  70.216  1.00  0.00    -0.121 A  
HETATM   12  C   UNL     1      -9.415   1.859  71.461  1.00  0.00    -0.192 A  
ENDBRANCH   6   7
ENDBRANCH   5   6
ENDBRANCH   4   5
ENDBRANCH   3   4
BRANCH   3  13
HETATM   13  C   UNL     1     -10.263   9.063  68.462  1.00  0.00    -0.200 C  
BRANCH  13  14
HETATM   14  C   UNL     1     -10.881  10.274  67.761  1.00  0.00    -0.346 C  
BRANCH  14  15
HETATM   15  C   UNL     1      -9.860  11.086  66.959  1.00  0.00    -0.211 C  
BRANCH  15  16
HETATM   16  C   UNL     1     -10.572  11.765  65.817  1.00  0.00    -0.312 A  
HETATM   17  C   UNL     1     -12.066  12.776  63.681  1.00  0.00    -0.624 A  
HETATM   18  C   UNL     1     -10.897  12.053  63.434  1.00  0.00    -0.471 A  
HETATM   19  C   UNL     1     -11.736  12.508  66.058  1.00  0.00    -0.472 A  
HETATM   20  C   UNL     1     -12.479  13.008  64.988  1.00  0.00    -0.534 A  
HETATM   21  C   UNL     1     -10.150  11.555  64.499  1.00  0.00    -0.324 A  
ENDBRANCH  15  16
ENDBRANCH  14  15
ENDBRANCH  13  14
ENDBRANCH   3  13
ENDBRANCH   2   3
TORSDOF 9
ENDMDL
MODEL      253
REMARK 921   NORMALIZED FREE ENERGY PREDICTED BY IDOCK:   -3.65 KCAL/MOL
REMARK 922        TOTAL FREE ENERGY PREDICTED BY IDOCK:   -7.09 KCAL/MOL
REMARK 923 INTER-LIGAND FREE ENERGY PREDICTED BY IDOCK:   -6.39 KCAL/MOL
REMARK 924 INTRA-LIGAND FREE ENERGY PREDICTED BY IDOCK:   -0.70 KCAL/MOL
REMARK 927      BINDING AFFINITY PREDICTED BY RF-SCORE:    0.00 PKD
ROOT
HETATM    1  C   UNL     1     -13.324   9.862  71.430  1.00  0.00    -0.447 C  
HETATM    2  C   UNL     1     -11.810   9.953  71.271  1.00  0.00    -0.395 C  
ENDROOT
BRANCH   2   3
HETATM    3  N   UNL     1     -11.243   9.277  70.081  1.00  0.00    -0.237 NA 
BRANCH   3   4
HETATM    4  C   UNL     1     -10.319  10.154  69.336  1.00  0.00    -0.232 C  
BRANCH   4   5
HETATM    5  C   UNL     1     -10.975  11.185  68.398  1.00  0.00    -0.277 C  
BRANCH   5   6
HETATM    6  C   UNL     1     -10.075  11.649  67.248  1.00  0.00    -0.221 C  
BRANCH   6   7
HETATM    7  C   UNL     1     -10.887  11.882  65.991  1.00  0.00    -0.342 A  
HETATM    8  C   UNL     1     -12.053  12.658  66.031  1.00  0.00    -0.429 A  
HETATM    9  C   UNL     1     -12.766  12.924  64.860  1.00  0.00    -0.474 A  
HETATM   10  C   UNL     1     -10.453  11.373  64.758  1.00  0.00    -0.366 A  
HETATM   11  C   UNL     1     -12.322  12.418  63.640  1.00  0.00    -0.647 A  
HETATM   12  C   UNL     1     -11.166  11.640  63.589  1.00  0.00    -0.497 A  
ENDBRANCH   6   7
ENDBRANCH   5   6
ENDBRANCH   4   5
ENDBRANCH   3   4
BRANCH   3  13
HETATM   13  C   UNL     1     -10.572   8.023  70.483  1.00  0.00    -0.220 C  
BRANCH  13  14
HETATM   14  C   UNL     1     -11.488   6.802  70.592  1.00  0.00    -0.403 C  
BRANCH  14  15
HETATM   15  C   UNL     1     -11.056   5.829  71.693  1.00  0.00    -0.290 C  
BRANCH  15  16
HETATM   16  C   UNL     1      -9.854   5.057  71.211  1.00  0.00    -0.246 A  
HETATM   17  C   UNL     1      -7.538   3.880  70.177  1.00  0.00    -0.048 A  
HETATM   18  C   UNL     1      -8.732   3.822  69.455  1.00  0.00    -0.127 A  
HETATM   19  C   UNL     1      -8.657   5.094  71.939  1.00  0.00    -0.131 A  
HETATM   20  C   UNL     1      -7.503   4.508  71.418  1.00  0.00    -0.068 A  
HETATM   21  C   UNL     1      -9.887   4.403  69.973  1.00  0.00    -0.294 A  
ENDBRANCH  15  16
ENDBRANCH  14  15
ENDBRANCH  13  14
ENDBRANCH   3  13
ENDBRANCH   2   3
TORSDOF 9
ENDMDL
MODEL      254
REMARK 921   NORMALIZED FREE ENERGY PREDICTED BY IDOCK:   -3.64 KCAL/MOL
REMARK 922        TOTAL FREE ENERGY PREDICTED BY IDOCK:   -7.07 KCAL/MOL
REMARK 923 INTER-LIGAND FREE ENERGY PREDICTED BY IDOCK:   -6.45 KCAL/MOL
REMARK 924 INTRA-LIGAND FREE ENERGY PREDICTED BY IDOCK:   -0.62 KCAL/MOL
REMARK 927      BINDING AFFINITY PREDICTED BY RF-SCORE:    0.00 PKD
ROOT
HETATM    1  C   UNL     1     -11.205  16.040  64.547  1.00  0.00    -0.309 C  
HETATM    2  C   UNL     1     -10.138  16.094  65.636  1.00  0.00    -0.337 C  
ENDROOT
BRANCH   2   3
HETATM    3  N   UNL     1     -10.623  16.401  67.001  1.00  0.00    -0.292 NA 
BRANCH   3   4
HETATM    4  C   UNL     1     -10.412  15.272  67.928  1.00  0.00    -0.253 C  
BRANCH   4   5
HETATM    5  C   UNL     1     -11.673  14.480  68.327  1.00  0.00    -0.368 C  
BRANCH   5   6
HETATM    6  C   UNL     1     -12.158  13.495  67.258  1.00  0.00    -0.367 C  
BRANCH   6   7
HETATM    7  C   UNL     1     -11.234  12.298  67.174  1.00  0.00    -0.365 A  
HETATM    8  C   UNL     1     -11.616  11.064  67.719  1.00  0.00    -0.277 A  
HETATM    9  C   UNL     1     -10.791   9.945  67.585  1.00  0.00    -0.318 A  
HETATM   10  C   UNL     1     -10.009  12.390  66.498  1.00  0.00    -0.242 A  
HETATM   11  C   UNL     1      -9.578  10.048  66.906  1.00  0.00    -0.219 A  
HETATM   12  C   UNL     1      -9.185  11.271  66.365  1.00  0.00    -0.206 A  
ENDBRANCH   6   7
ENDBRANCH   5   6
ENDBRANCH   4   5
ENDBRANCH   3   4
BRANCH   3  13
HETATM   13  C   UNL     1      -9.971  17.628  67.506  1.00  0.00    -0.322 C  
BRANCH  13  14
HETATM   14  C   UNL     1     -10.661  18.937  67.117  1.00  0.00    -0.531 C  
BRANCH  14  15
HETATM   15  C   UNL     1      -9.919  19.698  66.014  1.00  0.00    -0.508 C  
BRANCH  15  16
HETATM   16  C   UNL     1      -8.473  19.843  66.417  1.00  0.00    -0.379 A  
HETATM   17  C   UNL     1      -5.834  19.871  67.341  1.00  0.00    -0.195 A  
HETATM   18  C   UNL     1      -6.815  20.607  68.009  1.00  0.00    -0.301 A  
HETATM   19  C   UNL     1      -7.479  19.123  65.739  1.00  0.00    -0.205 A  
HETATM   20  C   UNL     1      -6.165  19.138  66.206  1.00  0.00    -0.193 A  
HETATM   21  C   UNL     1      -8.129  20.598  67.545  1.00  0.00    -0.265 A  
ENDBRANCH  15  16
ENDBRANCH  14  15
ENDBRANCH  13  14
ENDBRANCH   3  13
ENDBRANCH   2   3
TORSDOF 9
ENDMDL
MODEL      255
REMARK 921   NORMALIZED FREE ENERGY PREDICTED BY IDOCK:   -3.64 KCAL/MOL
REMARK 922        TOTAL FREE ENERGY PREDICTED BY IDOCK:   -7.07 KCAL/MOL
REMARK 923 INTER-LIGAND FREE ENERGY PREDICTED BY IDOCK:   -5.43 KCAL/MOL
REMARK 924 INTRA-LIGAND FREE ENERGY PREDICTED BY IDOCK:   -1.63 KCAL/MOL
REMARK 927      BINDING AFFINITY PREDICTED BY RF-SCORE:    0.00 PKD
ROOT
HETATM    1  C   UNL     1      -7.260  13.818  68.215  1.00  0.00    -0.114 C  
HETATM    2  C   UNL     1      -7.566  12.487  68.894  1.00  0.00     0.047 C  
ENDROOT
BRANCH   2   3
HETATM    3  N   UNL     1      -7.317  11.275  68.080  1.00  0.00    -0.084 NA 
BRANCH   3   4
HETATM    4  C   UNL     1      -7.738  10.045  68.780  1.00  0.00    -0.085 C  
BRANCH   4   5
HETATM    5  C   UNL     1      -8.634  10.246  70.017  1.00  0.00     0.103 C  
BRANCH   5   6
HETATM    6  C   UNL     1      -9.502   9.033  70.366  1.00  0.00    -0.247 C  
BRANCH   6   7
HETATM    7  C   UNL     1     -10.906   9.465  70.733  1.00  0.00    -0.372 A  
HETATM    8  C   UNL     1     -11.658   8.731  71.661  1.00  0.00    -0.390 A  
HETATM    9  C   UNL     1     -12.928   9.167  72.045  1.00  0.00    -0.496 A  
HETATM   10  C   UNL     1     -11.453  10.639  70.194  1.00  0.00    -0.411 A  
HETATM   11  C   UNL     1     -13.459  10.338  71.508  1.00  0.00    -0.336 A  
HETATM   12  C   UNL     1     -12.723  11.073  70.580  1.00  0.00    -0.331 A  
ENDBRANCH   6   7
ENDBRANCH   5   6
ENDBRANCH   4   5
ENDBRANCH   3   4
BRANCH   3  13
HETATM   13  C   UNL     1      -7.994  11.396  66.772  1.00  0.00    -0.160 C  
BRANCH  13  14
HETATM   14  C   UNL     1      -9.419  10.843  66.724  1.00  0.00    -0.200 C  
BRANCH  14  15
HETATM   15  C   UNL     1     -10.294  11.537  65.676  1.00  0.00    -0.308 C  
BRANCH  15  16
HETATM   16  C   UNL     1     -10.713  12.883  66.213  1.00  0.00    -0.292 A  
HETATM   17  C   UNL     1     -11.258  15.354  67.402  1.00  0.00    -0.287 A  
HETATM   18  C   UNL     1     -11.862  14.195  67.894  1.00  0.00    -0.405 A  
HETATM   19  C   UNL     1     -10.126  14.053  65.712  1.00  0.00    -0.345 A  
HETATM   20  C   UNL     1     -10.399  15.283  66.310  1.00  0.00    -0.303 A  
HETATM   21  C   UNL     1     -11.595  12.965  67.298  1.00  0.00    -0.416 A  
ENDBRANCH  15  16
ENDBRANCH  14  15
ENDBRANCH  13  14
ENDBRANCH   3  13
ENDBRANCH   2   3
TORSDOF 9
ENDMDL
MODEL      256
REMARK 921   NORMALIZED FREE ENERGY PREDICTED BY IDOCK:   -3.63 KCAL/MOL
REMARK 922        TOTAL FREE ENERGY PREDICTED BY IDOCK:   -7.06 KCAL/MOL
REMARK 923 INTER-LIGAND FREE ENERGY PREDICTED BY IDOCK:   -6.52 KCAL/MOL
REMARK 924 INTRA-LIGAND FREE ENERGY PREDICTED BY IDOCK:   -0.54 KCAL/MOL
REMARK 927      BINDING AFFINITY PREDICTED BY RF-SCORE:    0.00 PKD
ROOT
HETATM    1  C   UNL     1      -9.574  14.324  65.968  1.00  0.00    -0.271 C  
HETATM    2  C   UNL     1      -9.690  14.312  67.488  1.00  0.00    -0.223 C  
ENDROOT
BRANCH   2   3
HETATM    3  N   UNL     1     -11.050  14.085  68.030  1.00  0.00    -0.255 NA 
BRANCH   3   4
HETATM    4  C   UNL     1     -11.055  13.068  69.099  1.00  0.00    -0.192 C  
BRANCH   4   5
HETATM    5  C   UNL     1     -11.712  11.719  68.745  1.00  0.00    -0.389 C  
BRANCH   5   6
HETATM    6  C   UNL     1     -11.140  11.055  67.488  1.00  0.00    -0.366 C  
BRANCH   6   7
HETATM    7  C   UNL     1     -10.763   9.615  67.767  1.00  0.00    -0.316 A  
HETATM    8  C   UNL     1     -10.736   9.128  69.082  1.00  0.00    -0.190 A  
HETATM    9  C   UNL     1     -10.449   7.784  69.332  1.00  0.00    -0.221 A  
HETATM   10  C   UNL     1     -10.492   8.732  66.712  1.00  0.00    -0.283 A  
HETATM   11  C   UNL     1     -10.188   6.915  68.275  1.00  0.00    -0.201 A  
HETATM   12  C   UNL     1     -10.206   7.389  66.964  1.00  0.00    -0.357 A  
ENDBRANCH   6   7
ENDBRANCH   5   6
ENDBRANCH   4   5
ENDBRANCH   3   4
BRANCH   3  13
HETATM   13  C   UNL     1     -11.622  15.360  68.512  1.00  0.00    -0.359 C  
BRANCH  13  14
HETATM   14  C   UNL     1     -11.013  16.620  67.893  1.00  0.00    -0.276 C  
BRANCH  14  15
HETATM   15  C   UNL     1     -10.430  17.576  68.938  1.00  0.00    -0.286 C  
BRANCH  15  16
HETATM   16  C   UNL     1      -9.601  18.617  68.229  1.00  0.00    -0.382 A  
HETATM   17  C   UNL     1      -7.968  20.325  66.734  1.00  0.00    -0.330 A  
HETATM   18  C   UNL     1      -7.463  19.699  67.875  1.00  0.00    -0.321 A  
HETATM   19  C   UNL     1     -10.107  19.265  67.093  1.00  0.00    -0.473 A  
HETATM   20  C   UNL     1      -9.288  20.114  66.349  1.00  0.00    -0.446 A  
HETATM   21  C   UNL     1      -8.278  18.853  68.623  1.00  0.00    -0.380 A  
ENDBRANCH  15  16
ENDBRANCH  14  15
ENDBRANCH  13  14
ENDBRANCH   3  13
ENDBRANCH   2   3
TORSDOF 9
ENDMDL
MODEL      257
REMARK 921   NORMALIZED FREE ENERGY PREDICTED BY IDOCK:   -3.63 KCAL/MOL
REMARK 922        TOTAL FREE ENERGY PREDICTED BY IDOCK:   -7.05 KCAL/MOL
REMARK 923 INTER-LIGAND FREE ENERGY PREDICTED BY IDOCK:   -6.24 KCAL/MOL
REMARK 924 INTRA-LIGAND FREE ENERGY PREDICTED BY IDOCK:   -0.82 KCAL/MOL
REMARK 927      BINDING AFFINITY PREDICTED BY RF-SCORE:    0.00 PKD
ROOT
HETATM    1  C   UNL     1     -10.525  15.183  65.080  1.00  0.00    -0.437 C  
HETATM    2  C   UNL     1      -9.978  15.421  66.484  1.00  0.00    -0.268 C  
ENDROOT
BRANCH   2   3
HETATM    3  N   UNL     1     -10.984  15.467  67.570  1.00  0.00    -0.310 NA 
BRANCH   3   4
HETATM    4  C   UNL     1     -10.798  14.371  68.541  1.00  0.00    -0.251 C  
BRANCH   4   5
HETATM    5  C   UNL     1     -11.945  13.346  68.629  1.00  0.00    -0.362 C  
BRANCH   5   6
HETATM    6  C   UNL     1     -11.684  12.044  67.864  1.00  0.00    -0.393 C  
BRANCH   6   7
HETATM    7  C   UNL     1     -11.434  10.899  68.824  1.00  0.00    -0.376 A  
HETATM    8  C   UNL     1     -11.779  11.017  70.178  1.00  0.00    -0.442 A  
HETATM    9  C   UNL     1     -11.606   9.938  71.048  1.00  0.00    -0.470 A  
HETATM   10  C   UNL     1     -10.909   9.684  68.361  1.00  0.00    -0.212 A  
HETATM   11  C   UNL     1     -11.089   8.733  70.575  1.00  0.00    -0.278 A  
HETATM   12  C   UNL     1     -10.737   8.607  69.232  1.00  0.00    -0.151 A  
ENDBRANCH   6   7
ENDBRANCH   5   6
ENDBRANCH   4   5
ENDBRANCH   3   4
BRANCH   3  13
HETATM   13  C   UNL     1     -10.940  16.782  68.244  1.00  0.00    -0.327 C  
BRANCH  13  14
HETATM   14  C   UNL     1      -9.997  17.806  67.611  1.00  0.00    -0.322 C  
BRANCH  14  15
HETATM   15  C   UNL     1      -8.801  18.149  68.505  1.00  0.00    -0.312 C  
BRANCH  15  16
HETATM   16  C   UNL     1      -7.543  18.081  67.676  1.00  0.00    -0.219 A  
HETATM   17  C   UNL     1      -5.360  17.764  65.959  1.00  0.00    -0.237 A  
HETATM   18  C   UNL     1      -5.505  16.925  67.065  1.00  0.00    -0.190 A  
HETATM   19  C   UNL     1      -7.381  18.933  66.575  1.00  0.00    -0.252 A  
HETATM   20  C   UNL     1      -6.291  18.769  65.719  1.00  0.00    -0.276 A  
HETATM   21  C   UNL     1      -6.589  17.087  67.924  1.00  0.00    -0.151 A  
ENDBRANCH  15  16
ENDBRANCH  14  15
ENDBRANCH  13  14
ENDBRANCH   3  13
ENDBRANCH   2   3
TORSDOF 9
ENDMDL
MODEL      258
REMARK 921   NORMALIZED FREE ENERGY PREDICTED BY IDOCK:   -3.63 KCAL/MOL
REMARK 922        TOTAL FREE ENERGY PREDICTED BY IDOCK:   -7.05 KCAL/MOL
REMARK 923 INTER-LIGAND FREE ENERGY PREDICTED BY IDOCK:   -5.65 KCAL/MOL
REMARK 924 INTRA-LIGAND FREE ENERGY PREDICTED BY IDOCK:   -1.40 KCAL/MOL
REMARK 927      BINDING AFFINITY PREDICTED BY RF-SCORE:    0.00 PKD
ROOT
HETATM    1  C   UNL     1      -9.760  18.856  66.310  1.00  0.00    -0.374 C  
HETATM    2  C   UNL     1     -10.777  17.848  66.834  1.00  0.00    -0.176 C  
ENDROOT
BRANCH   2   3
HETATM    3  N   UNL     1     -10.378  16.425  66.752  1.00  0.00    -0.291 NA 
BRANCH   3   4
HETATM    4  C   UNL     1     -11.081  15.595  67.750  1.00  0.00    -0.311 C  
BRANCH   4   5
HETATM    5  C   UNL     1     -10.225  15.078  68.922  1.00  0.00    -0.235 C  
BRANCH   5   6
HETATM    6  C   UNL     1      -9.133  14.086  68.510  1.00  0.00    -0.163 C  
BRANCH   6   7
HETATM    7  C   UNL     1      -7.770  14.746  68.537  1.00  0.00    -0.120 A  
HETATM    8  C   UNL     1      -7.609  16.023  69.092  1.00  0.00    -0.225 A  
HETATM    9  C   UNL     1      -6.341  16.604  69.173  1.00  0.00    -0.196 A  
HETATM   10  C   UNL     1      -6.640  14.066  68.060  1.00  0.00    -0.150 A  
HETATM   11  C   UNL     1      -5.225  15.916  68.701  1.00  0.00    -0.098 A  
HETATM   12  C   UNL     1      -5.374  14.648  68.142  1.00  0.00    -0.121 A  
ENDBRANCH   6   7
ENDBRANCH   5   6
ENDBRANCH   4   5
ENDBRANCH   3   4
BRANCH   3  13
HETATM   13  C   UNL     1     -10.607  15.913  65.384  1.00  0.00    -0.419 C  
BRANCH  13  14
HETATM   14  C   UNL     1     -10.049  14.515  65.111  1.00  0.00    -0.361 C  
BRANCH  14  15
HETATM   15  C   UNL     1     -11.144  13.472  64.869  1.00  0.00    -0.356 C  
BRANCH  15  16
HETATM   16  C   UNL     1     -10.897  12.294  65.778  1.00  0.00    -0.313 A  
HETATM   17  C   UNL     1     -10.683   9.982  67.335  1.00  0.00    -0.336 A  
HETATM   18  C   UNL     1     -11.426  11.069  67.799  1.00  0.00    -0.339 A  
HETATM   19  C   UNL     1     -10.135  11.207  65.328  1.00  0.00    -0.329 A  
HETATM   20  C   UNL     1     -10.034  10.054  66.107  1.00  0.00    -0.322 A  
HETATM   21  C   UNL     1     -11.528  12.223  67.026  1.00  0.00    -0.419 A  
ENDBRANCH  15  16
ENDBRANCH  14  15
ENDBRANCH  13  14
ENDBRANCH   3  13
ENDBRANCH   2   3
TORSDOF 9
ENDMDL
MODEL      259
REMARK 921   NORMALIZED FREE ENERGY PREDICTED BY IDOCK:   -3.61 KCAL/MOL
REMARK 922        TOTAL FREE ENERGY PREDICTED BY IDOCK:   -7.02 KCAL/MOL
REMARK 923 INTER-LIGAND FREE ENERGY PREDICTED BY IDOCK:   -5.87 KCAL/MOL
REMARK 924 INTRA-LIGAND FREE ENERGY PREDICTED BY IDOCK:   -1.15 KCAL/MOL
REMARK 927      BINDING AFFINITY PREDICTED BY RF-SCORE:    0.00 PKD
ROOT
HETATM    1  C   UNL     1      -8.952   9.106  69.182  1.00  0.00    -0.144 C  
HETATM    2  C   UNL     1      -8.429   9.040  67.751  1.00  0.00    -0.117 C  
ENDROOT
BRANCH   2   3
HETATM    3  N   UNL     1      -9.079   8.041  66.872  1.00  0.00    -0.145 NA 
BRANCH   3   4
HETATM    4  C   UNL     1     -10.535   7.969  67.101  1.00  0.00    -0.338 C  
BRANCH   4   5
HETATM    5  C   UNL     1     -11.156   6.559  67.057  1.00  0.00    -0.411 C  
BRANCH   5   6
HETATM    6  C   UNL     1     -10.315   5.483  67.753  1.00  0.00    -0.246 C  
BRANCH   6   7
HETATM    7  C   UNL     1      -9.855   4.437  66.759  1.00  0.00    -0.241 A  
HETATM    8  C   UNL     1      -9.090   3.341  67.182  1.00  0.00    -0.200 A  
HETATM    9  C   UNL     1      -8.720   2.344  66.276  1.00  0.00    -0.120 A  
HETATM   10  C   UNL     1     -10.236   4.517  65.412  1.00  0.00    -0.224 A  
HETATM   11  C   UNL     1      -9.110   2.432  64.941  1.00  0.00    -0.129 A  
HETATM   12  C   UNL     1      -9.866   3.521  64.507  1.00  0.00    -0.179 A  
ENDBRANCH   6   7
ENDBRANCH   5   6
ENDBRANCH   4   5
ENDBRANCH   3   4
BRANCH   3  13
HETATM   13  C   UNL     1      -8.782   8.345  65.456  1.00  0.00    -0.162 C  
BRANCH  13  14
HETATM   14  C   UNL     1      -8.733   9.833  65.107  1.00  0.00    -0.192 C  
BRANCH  14  15
HETATM   15  C   UNL     1      -9.687  10.210  63.969  1.00  0.00    -0.273 C  
BRANCH  15  16
HETATM   16  C   UNL     1     -10.557  11.354  64.428  1.00  0.00    -0.403 A  
HETATM   17  C   UNL     1     -12.403  13.284  65.254  1.00  0.00    -0.525 A  
HETATM   18  C   UNL     1     -12.080  13.162  63.901  1.00  0.00    -0.536 A  
HETATM   19  C   UNL     1     -10.871  11.496  65.787  1.00  0.00    -0.319 A  
HETATM   20  C   UNL     1     -11.796  12.458  66.193  1.00  0.00    -0.442 A  
HETATM   21  C   UNL     1     -11.155  12.204  63.491  1.00  0.00    -0.525 A  
ENDBRANCH  15  16
ENDBRANCH  14  15
ENDBRANCH  13  14
ENDBRANCH   3  13
ENDBRANCH   2   3
TORSDOF 9
ENDMDL
MODEL      260
REMARK 921   NORMALIZED FREE ENERGY PREDICTED BY IDOCK:   -3.61 KCAL/MOL
REMARK 922        TOTAL FREE ENERGY PREDICTED BY IDOCK:   -7.02 KCAL/MOL
REMARK 923 INTER-LIGAND FREE ENERGY PREDICTED BY IDOCK:   -5.33 KCAL/MOL
REMARK 924 INTRA-LIGAND FREE ENERGY PREDICTED BY IDOCK:   -1.69 KCAL/MOL
REMARK 927      BINDING AFFINITY PREDICTED BY RF-SCORE:    0.00 PKD
ROOT
HETATM    1  C   UNL     1     -13.449  13.680  71.686  1.00  0.00    -0.398 C  
HETATM    2  C   UNL     1     -13.127  12.264  71.221  1.00  0.00    -0.116 C  
ENDROOT
BRANCH   2   3
HETATM    3  N   UNL     1     -12.527  12.147  69.873  1.00  0.00    -0.012 NA 
BRANCH   3   4
HETATM    4  C   UNL     1     -11.551  13.223  69.609  1.00  0.00    -0.261 C  
BRANCH   4   5
HETATM    5  C   UNL     1     -11.881  14.158  68.428  1.00  0.00    -0.388 C  
BRANCH   5   6
HETATM    6  C   UNL     1     -10.745  14.308  67.412  1.00  0.00    -0.282 C  
BRANCH   6   7
HETATM    7  C   UNL     1     -11.075  13.576  66.127  1.00  0.00    -0.299 A  
HETATM    8  C   UNL     1     -12.390  13.549  65.641  1.00  0.00    -0.522 A  
HETATM    9  C   UNL     1     -12.681  12.928  64.424  1.00  0.00    -0.322 A  
HETATM   10  C   UNL     1     -10.061  12.966  65.375  1.00  0.00    -0.265 A  
HETATM   11  C   UNL     1     -11.664  12.330  63.683  1.00  0.00    -0.591 A  
HETATM   12  C   UNL     1     -10.353  12.346  64.159  1.00  0.00    -0.409 A  
ENDBRANCH   6   7
ENDBRANCH   5   6
ENDBRANCH   4   5
ENDBRANCH   3   4
BRANCH   3  13
HETATM   13  C   UNL     1     -11.902  10.817  69.710  1.00  0.00    -0.335 C  
BRANCH  13  14
HETATM   14  C   UNL     1     -10.393  10.834  69.465  1.00  0.00    -0.178 C  
BRANCH  14  15
HETATM   15  C   UNL     1     -10.027  10.691  67.985  1.00  0.00    -0.180 C  
BRANCH  15  16
HETATM   16  C   UNL     1      -8.604  11.154  67.792  1.00  0.00    -0.131 A  
HETATM   17  C   UNL     1      -6.070  12.180  67.206  1.00  0.00    -0.153 A  
HETATM   18  C   UNL     1      -6.498  10.992  66.609  1.00  0.00    -0.129 A  
HETATM   19  C   UNL     1      -8.161  12.335  68.404  1.00  0.00    -0.146 A  
HETATM   20  C   UNL     1      -6.897  12.844  68.106  1.00  0.00    -0.097 A  
HETATM   21  C   UNL     1      -7.758  10.478  66.905  1.00  0.00    -0.114 A  
ENDBRANCH  15  16
ENDBRANCH  14  15
ENDBRANCH  13  14
ENDBRANCH   3  13
ENDBRANCH   2   3
TORSDOF 9
ENDMDL
MODEL      261
REMARK 921   NORMALIZED FREE ENERGY PREDICTED BY IDOCK:   -3.60 KCAL/MOL
REMARK 922        TOTAL FREE ENERGY PREDICTED BY IDOCK:   -7.02 KCAL/MOL
REMARK 923 INTER-LIGAND FREE ENERGY PREDICTED BY IDOCK:   -5.76 KCAL/MOL
REMARK 924 INTRA-LIGAND FREE ENERGY PREDICTED BY IDOCK:   -1.26 KCAL/MOL
REMARK 927      BINDING AFFINITY PREDICTED BY RF-SCORE:    0.00 PKD
ROOT
HETATM    1  C   UNL     1      -6.335   8.103  69.538  1.00  0.00    -0.034 C  
HETATM    2  C   UNL     1      -7.104   8.068  68.221  1.00  0.00    -0.088 C  
ENDROOT
BRANCH   2   3
HETATM    3  N   UNL     1      -8.279   8.964  68.136  1.00  0.00    -0.113 NA 
BRANCH   3   4
HETATM    4  C   UNL     1      -9.504   8.233  67.755  1.00  0.00    -0.149 C  
BRANCH   4   5
HETATM    5  C   UNL     1     -10.210   8.721  66.475  1.00  0.00    -0.314 C  
BRANCH   5   6
HETATM    6  C   UNL     1      -9.434   9.791  65.700  1.00  0.00    -0.307 C  
BRANCH   6   7
HETATM    7  C   UNL     1     -10.340  10.948  65.332  1.00  0.00    -0.326 A  
HETATM    8  C   UNL     1     -10.606  11.244  63.987  1.00  0.00    -0.450 A  
HETATM    9  C   UNL     1     -11.490  12.271  63.651  1.00  0.00    -0.572 A  
HETATM   10  C   UNL     1     -10.971  11.704  66.330  1.00  0.00    -0.345 A  
HETATM   11  C   UNL     1     -12.117  13.011  64.652  1.00  0.00    -0.463 A  
HETATM   12  C   UNL     1     -11.855  12.730  65.992  1.00  0.00    -0.495 A  
ENDBRANCH   6   7
ENDBRANCH   5   6
ENDBRANCH   4   5
ENDBRANCH   3   4
BRANCH   3  13
HETATM   13  C   UNL     1      -8.467   9.676  69.418  1.00  0.00    -0.156 C  
BRANCH  13  14
HETATM   14  C   UNL     1      -9.922   9.933  69.812  1.00  0.00    -0.275 C  
BRANCH  14  15
HETATM   15  C   UNL     1     -10.234   9.513  71.251  1.00  0.00    -0.245 C  
BRANCH  15  16
HETATM   16  C   UNL     1     -10.295   8.007  71.312  1.00  0.00    -0.230 A  
HETATM   17  C   UNL     1     -10.222   5.215  71.184  1.00  0.00    -0.291 A  
HETATM   18  C   UNL     1     -11.212   5.920  70.496  1.00  0.00    -0.293 A  
HETATM   19  C   UNL     1      -9.316   7.293  72.016  1.00  0.00    -0.150 A  
HETATM   20  C   UNL     1      -9.282   5.900  71.947  1.00  0.00    -0.155 A  
HETATM   21  C   UNL     1     -11.252   7.310  70.564  1.00  0.00    -0.305 A  
ENDBRANCH  15  16
ENDBRANCH  14  15
ENDBRANCH  13  14
ENDBRANCH   3  13
ENDBRANCH   2   3
TORSDOF 9
ENDMDL
MODEL      262
REMARK 921   NORMALIZED FREE ENERGY PREDICTED BY IDOCK:   -3.57 KCAL/MOL
REMARK 922        TOTAL FREE ENERGY PREDICTED BY IDOCK:   -6.97 KCAL/MOL
REMARK 923 INTER-LIGAND FREE ENERGY PREDICTED BY IDOCK:   -5.06 KCAL/MOL
REMARK 924 INTRA-LIGAND FREE ENERGY PREDICTED BY IDOCK:   -1.91 KCAL/MOL
REMARK 927      BINDING AFFINITY PREDICTED BY RF-SCORE:    0.00 PKD
ROOT
HETATM    1  C   UNL     1     -10.889  15.027  69.661  1.00  0.00    -0.283 C  
HETATM    2  C   UNL     1     -11.342  15.452  68.268  1.00  0.00    -0.348 C  
ENDROOT
BRANCH   2   3
HETATM    3  N   UNL     1     -10.367  15.229  67.176  1.00  0.00    -0.261 NA 
BRANCH   3   4
HETATM    4  C   UNL     1      -9.473  14.089  67.459  1.00  0.00    -0.221 C  
BRANCH   4   5
HETATM    5  C   UNL     1      -7.965  14.406  67.487  1.00  0.00    -0.208 C  
BRANCH   5   6
HETATM    6  C   UNL     1      -7.182  13.628  68.550  1.00  0.00    -0.109 C  
BRANCH   6   7
HETATM    7  C   UNL     1      -6.960  12.195  68.111  1.00  0.00    -0.082 A  
HETATM    8  C   UNL     1      -6.425  11.913  66.846  1.00  0.00    -0.095 A  
HETATM    9  C   UNL     1      -6.162  10.594  66.467  1.00  0.00    -0.097 A  
HETATM   10  C   UNL     1      -7.231  11.133  68.985  1.00  0.00    -0.118 A  
HETATM   11  C   UNL     1      -6.430   9.547  67.347  1.00  0.00    -0.069 A  
HETATM   12  C   UNL     1      -6.968   9.815  68.605  1.00  0.00    -0.063 A  
ENDBRANCH   6   7
ENDBRANCH   5   6
ENDBRANCH   4   5
ENDBRANCH   3   4
BRANCH   3  13
HETATM   13  C   UNL     1     -11.079  15.036  65.894  1.00  0.00    -0.334 C  
BRANCH  13  14
HETATM   14  C   UNL     1     -10.811  13.701  65.197  1.00  0.00    -0.338 C  
BRANCH  14  15
HETATM   15  C   UNL     1     -11.722  12.575  65.693  1.00  0.00    -0.473 C  
BRANCH  15  16
HETATM   16  C   UNL     1     -10.884  11.342  65.924  1.00  0.00    -0.292 A  
HETATM   17  C   UNL     1      -9.564   8.898  66.244  1.00  0.00    -0.328 A  
HETATM   18  C   UNL     1     -10.327   9.422  67.290  1.00  0.00    -0.325 A  
HETATM   19  C   UNL     1     -10.101  10.821  64.885  1.00  0.00    -0.387 A  
HETATM   20  C   UNL     1      -9.446   9.600  65.049  1.00  0.00    -0.312 A  
HETATM   21  C   UNL     1     -10.980  10.642  67.132  1.00  0.00    -0.312 A  
ENDBRANCH  15  16
ENDBRANCH  14  15
ENDBRANCH  13  14
ENDBRANCH   3  13
ENDBRANCH   2   3
TORSDOF 9
ENDMDL
MODEL      263
REMARK 921   NORMALIZED FREE ENERGY PREDICTED BY IDOCK:   -3.54 KCAL/MOL
REMARK 922        TOTAL FREE ENERGY PREDICTED BY IDOCK:   -6.92 KCAL/MOL
REMARK 923 INTER-LIGAND FREE ENERGY PREDICTED BY IDOCK:   -5.77 KCAL/MOL
REMARK 924 INTRA-LIGAND FREE ENERGY PREDICTED BY IDOCK:   -1.16 KCAL/MOL
REMARK 927      BINDING AFFINITY PREDICTED BY RF-SCORE:    0.00 PKD
ROOT
HETATM    1  C   UNL     1      -8.689   7.679  71.309  1.00  0.00    -0.137 C  
HETATM    2  C   UNL     1      -9.999   7.365  72.025  1.00  0.00    -0.166 C  
ENDROOT
BRANCH   2   3
HETATM    3  N   UNL     1     -11.119   6.931  71.159  1.00  0.00    -0.250 NA 
BRANCH   3   4
HETATM    4  C   UNL     1     -12.422   7.405  71.665  1.00  0.00    -0.349 C  
BRANCH   4   5
HETATM    5  C   UNL     1     -12.408   8.759  72.403  1.00  0.00    -0.414 C  
BRANCH   5   6
HETATM    6  C   UNL     1     -13.545   9.703  72.002  1.00  0.00    -0.467 C  
BRANCH   6   7
HETATM    7  C   UNL     1     -12.995  10.986  71.415  1.00  0.00    -0.517 A  
HETATM    8  C   UNL     1     -12.253  10.964  70.226  1.00  0.00    -0.432 A  
HETATM    9  C   UNL     1     -11.801  12.155  69.653  1.00  0.00    -0.391 A  
HETATM   10  C   UNL     1     -13.270  12.221  72.020  1.00  0.00    -0.508 A  
HETATM   11  C   UNL     1     -12.085  13.377  70.260  1.00  0.00    -0.419 A  
HETATM   12  C   UNL     1     -12.817  13.410  71.446  1.00  0.00    -0.420 A  
ENDBRANCH   6   7
ENDBRANCH   5   6
ENDBRANCH   4   5
ENDBRANCH   3   4
BRANCH   3  13
HETATM   13  C   UNL     1     -10.893   7.389  69.772  1.00  0.00    -0.234 C  
BRANCH  13  14
HETATM   14  C   UNL     1     -11.138   6.334  68.692  1.00  0.00    -0.409 C  
BRANCH  14  15
HETATM   15  C   UNL     1     -10.196   5.132  68.806  1.00  0.00    -0.202 C  
BRANCH  15  16
HETATM   16  C   UNL     1      -8.831   5.540  68.311  1.00  0.00    -0.104 A  
HETATM   17  C   UNL     1      -6.319   6.062  67.201  1.00  0.00    -0.041 A  
HETATM   18  C   UNL     1      -6.429   5.232  68.319  1.00  0.00    -0.040 A  
HETATM   19  C   UNL     1      -8.711   6.388  67.201  1.00  0.00    -0.110 A  
HETATM   20  C   UNL     1      -7.456   6.643  66.649  1.00  0.00    -0.079 A  
HETATM   21  C   UNL     1      -7.680   4.977  68.875  1.00  0.00    -0.077 A  
ENDBRANCH  15  16
ENDBRANCH  14  15
ENDBRANCH  13  14
ENDBRANCH   3  13
ENDBRANCH   2   3
TORSDOF 9
ENDMDL
MODEL      264
REMARK 921   NORMALIZED FREE ENERGY PREDICTED BY IDOCK:   -3.53 KCAL/MOL
REMARK 922        TOTAL FREE ENERGY PREDICTED BY IDOCK:   -6.90 KCAL/MOL
REMARK 923 INTER-LIGAND FREE ENERGY PREDICTED BY IDOCK:   -5.68 KCAL/MOL
REMARK 924 INTRA-LIGAND FREE ENERGY PREDICTED BY IDOCK:   -1.22 KCAL/MOL
REMARK 927      BINDING AFFINITY PREDICTED BY RF-SCORE:    0.00 PKD
ROOT
HETATM    1  C   UNL     1      -9.416   8.739  71.905  1.00  0.00    -0.362 C  
HETATM    2  C   UNL     1      -9.914   9.502  70.682  1.00  0.00    -0.276 C  
ENDROOT
BRANCH   2   3
HETATM    3  N   UNL     1     -11.373   9.751  70.626  1.00  0.00    -0.304 NA 
BRANCH   3   4
HETATM    4  C   UNL     1     -12.012   9.589  71.946  1.00  0.00    -0.311 C  
BRANCH   4   5
HETATM    5  C   UNL     1     -13.169   8.574  72.017  1.00  0.00    -0.399 C  
BRANCH   5   6
HETATM    6  C   UNL     1     -13.158   7.533  70.892  1.00  0.00    -0.035 C  
BRANCH   6   7
HETATM    7  C   UNL     1     -12.026   6.546  71.086  1.00  0.00    -0.365 A  
HETATM    8  C   UNL     1     -11.783   5.981  72.346  1.00  0.00    -0.322 A  
HETATM    9  C   UNL     1     -10.779   5.023  72.509  1.00  0.00    -0.271 A  
HETATM   10  C   UNL     1     -11.243   6.137  69.997  1.00  0.00    -0.471 A  
HETATM   11  C   UNL     1     -10.011   4.620  71.418  1.00  0.00    -0.267 A  
HETATM   12  C   UNL     1     -10.241   5.180  70.162  1.00  0.00    -0.348 A  
ENDBRANCH   6   7
ENDBRANCH   5   6
ENDBRANCH   4   5
ENDBRANCH   3   4
BRANCH   3  13
HETATM   13  C   UNL     1     -11.635  11.097  70.073  1.00  0.00    -0.338 C  
BRANCH  13  14
HETATM   14  C   UNL     1     -11.603  11.191  68.547  1.00  0.00    -0.385 C  
BRANCH  14  15
HETATM   15  C   UNL     1     -10.646  12.272  68.036  1.00  0.00    -0.235 C  
BRANCH  15  16
HETATM   16  C   UNL     1      -9.482  11.601  67.350  1.00  0.00    -0.171 A  
HETATM   17  C   UNL     1      -7.352  10.568  65.862  1.00  0.00    -0.142 A  
HETATM   18  C   UNL     1      -8.648  10.093  65.648  1.00  0.00    -0.166 A  
HETATM   19  C   UNL     1      -8.176  12.059  67.573  1.00  0.00    -0.159 A  
HETATM   20  C   UNL     1      -7.117  11.542  66.826  1.00  0.00    -0.112 A  
HETATM   21  C   UNL     1      -9.708  10.603  66.394  1.00  0.00    -0.241 A  
ENDBRANCH  15  16
ENDBRANCH  14  15
ENDBRANCH  13  14
ENDBRANCH   3  13
ENDBRANCH   2   3
TORSDOF 9
ENDMDL
MODEL      265
REMARK 921   NORMALIZED FREE ENERGY PREDICTED BY IDOCK:   -3.53 KCAL/MOL
REMARK 922        TOTAL FREE ENERGY PREDICTED BY IDOCK:   -6.90 KCAL/MOL
REMARK 923 INTER-LIGAND FREE ENERGY PREDICTED BY IDOCK:   -6.16 KCAL/MOL
REMARK 924 INTRA-LIGAND FREE ENERGY PREDICTED BY IDOCK:   -0.74 KCAL/MOL
REMARK 927      BINDING AFFINITY PREDICTED BY RF-SCORE:    0.00 PKD
ROOT
HETATM    1  C   UNL     1      -6.596   8.698  67.553  1.00  0.00    -0.058 C  
HETATM    2  C   UNL     1      -7.474   8.936  68.778  1.00  0.00    -0.083 C  
ENDROOT
BRANCH   2   3
HETATM    3  N   UNL     1      -8.886   9.286  68.502  1.00  0.00    -0.128 NA 
BRANCH   3   4
HETATM    4  C   UNL     1      -9.765   8.101  68.537  1.00  0.00    -0.162 C  
BRANCH   4   5
HETATM    5  C   UNL     1      -9.404   7.023  69.577  1.00  0.00    -0.148 C  
BRANCH   5   6
HETATM    6  C   UNL     1     -10.326   5.800  69.559  1.00  0.00    -0.333 C  
BRANCH   6   7
HETATM    7  C   UNL     1     -10.360   5.134  70.918  1.00  0.00    -0.282 A  
HETATM    8  C   UNL     1     -11.190   5.630  71.934  1.00  0.00    -0.246 A  
HETATM    9  C   UNL     1     -11.267   4.977  73.166  1.00  0.00    -0.408 A  
HETATM   10  C   UNL     1      -9.608   3.975  71.163  1.00  0.00    -0.242 A  
HETATM   11  C   UNL     1     -10.520   3.823  73.395  1.00  0.00    -0.257 A  
HETATM   12  C   UNL     1      -9.687   3.324  72.394  1.00  0.00    -0.214 A  
ENDBRANCH   6   7
ENDBRANCH   5   6
ENDBRANCH   4   5
ENDBRANCH   3   4
BRANCH   3  13
HETATM   13  C   UNL     1      -9.348  10.315  69.459  1.00  0.00    -0.178 C  
BRANCH  13  14
HETATM   14  C   UNL     1     -10.865  10.416  69.622  1.00  0.00    -0.320 C  
BRANCH  14  15
HETATM   15  C   UNL     1     -11.434  11.741  69.105  1.00  0.00    -0.358 C  
BRANCH  15  16
HETATM   16  C   UNL     1     -12.050  12.486  70.262  1.00  0.00    -0.373 A  
HETATM   17  C   UNL     1     -13.440  13.893  72.238  1.00  0.00    -0.623 A  
HETATM   18  C   UNL     1     -12.661  14.584  71.307  1.00  0.00    -0.415 A  
HETATM   19  C   UNL     1     -12.818  11.798  71.211  1.00  0.00    -0.409 A  
HETATM   20  C   UNL     1     -13.512  12.505  72.193  1.00  0.00    -0.523 A  
HETATM   21  C   UNL     1     -11.963  13.882  70.327  1.00  0.00    -0.401 A  
ENDBRANCH  15  16
ENDBRANCH  14  15
ENDBRANCH  13  14
ENDBRANCH   3  13
ENDBRANCH   2   3
TORSDOF 9
ENDMDL
MODEL      266
REMARK 921   NORMALIZED FREE ENERGY PREDICTED BY IDOCK:   -3.50 KCAL/MOL
REMARK 922        TOTAL FREE ENERGY PREDICTED BY IDOCK:   -6.86 KCAL/MOL
REMARK 923 INTER-LIGAND FREE ENERGY PREDICTED BY IDOCK:   -5.62 KCAL/MOL
REMARK 924 INTRA-LIGAND FREE ENERGY PREDICTED BY IDOCK:   -1.24 KCAL/MOL
REMARK 927      BINDING AFFINITY PREDICTED BY RF-SCORE:    0.00 PKD
ROOT
HETATM    1  C   UNL     1     -11.532  10.485  68.528  1.00  0.00    -0.284 C  
HETATM    2  C   UNL     1     -10.177  11.014  68.984  1.00  0.00    -0.200 C  
ENDROOT
BRANCH   2   3
HETATM    3  N   UNL     1      -9.091  10.961  67.978  1.00  0.00    -0.148 NA 
BRANCH   3   4
HETATM    4  C   UNL     1      -8.942  12.241  67.259  1.00  0.00    -0.187 C  
BRANCH   4   5
HETATM    5  C   UNL     1      -8.859  13.504  68.139  1.00  0.00    -0.179 C  
BRANCH   5   6
HETATM    6  C   UNL     1     -10.193  14.236  68.311  1.00  0.00    -0.244 C  
BRANCH   6   7
HETATM    7  C   UNL     1     -10.892  14.397  66.977  1.00  0.00    -0.297 A  
HETATM    8  C   UNL     1     -12.101  13.735  66.723  1.00  0.00    -0.460 A  
HETATM    9  C   UNL     1     -12.777  13.934  65.516  1.00  0.00    -0.536 A  
HETATM   10  C   UNL     1     -10.372  15.258  66.000  1.00  0.00    -0.327 A  
HETATM   11  C   UNL     1     -12.252  14.796  64.555  1.00  0.00    -0.443 A  
HETATM   12  C   UNL     1     -11.048  15.456  64.795  1.00  0.00    -0.416 A  
ENDBRANCH   6   7
ENDBRANCH   5   6
ENDBRANCH   4   5
ENDBRANCH   3   4
BRANCH   3  13
HETATM   13  C   UNL     1      -7.821  10.568  68.625  1.00  0.00    -0.116 C  
BRANCH  13  14
HETATM   14  C   UNL     1      -7.971   9.861  69.974  1.00  0.00    -0.194 C  
BRANCH  14  15
HETATM   15  C   UNL     1      -7.630   8.369  69.907  1.00  0.00    -0.076 C  
BRANCH  15  16
HETATM   16  C   UNL     1      -8.915   7.581  69.890  1.00  0.00    -0.141 A  
HETATM   17  C   UNL     1     -11.442   6.385  69.844  1.00  0.00    -0.483 A  
HETATM   18  C   UNL     1     -10.846   6.709  71.064  1.00  0.00    -0.289 A  
HETATM   19  C   UNL     1      -9.511   7.235  68.670  1.00  0.00    -0.137 A  
HETATM   20  C   UNL     1     -10.773   6.640  68.652  1.00  0.00    -0.303 A  
HETATM   21  C   UNL     1      -9.585   7.299  71.087  1.00  0.00    -0.160 A  
ENDBRANCH  15  16
ENDBRANCH  14  15
ENDBRANCH  13  14
ENDBRANCH   3  13
ENDBRANCH   2   3
TORSDOF 9
ENDMDL
MODEL      267
REMARK 921   NORMALIZED FREE ENERGY PREDICTED BY IDOCK:   -3.50 KCAL/MOL
REMARK 922        TOTAL FREE ENERGY PREDICTED BY IDOCK:   -6.86 KCAL/MOL
REMARK 923 INTER-LIGAND FREE ENERGY PREDICTED BY IDOCK:   -5.94 KCAL/MOL
REMARK 924 INTRA-LIGAND FREE ENERGY PREDICTED BY IDOCK:   -0.92 KCAL/MOL
REMARK 927      BINDING AFFINITY PREDICTED BY RF-SCORE:    0.00 PKD
ROOT
HETATM    1  C   UNL     1     -13.476  14.623  72.830  1.00  0.00    -0.570 C  
HETATM    2  C   UNL     1     -13.625  13.363  71.983  1.00  0.00    -0.487 C  
ENDROOT
BRANCH   2   3
HETATM    3  N   UNL     1     -12.775  13.295  70.772  1.00  0.00    -0.255 NA 
BRANCH   3   4
HETATM    4  C   UNL     1     -11.759  14.366  70.750  1.00  0.00    -0.236 C  
BRANCH   4   5
HETATM    5  C   UNL     1     -11.997  15.501  69.735  1.00  0.00    -0.384 C  
BRANCH   5   6
HETATM    6  C   UNL     1     -11.023  16.676  69.870  1.00  0.00    -0.194 C  
BRANCH   6   7
HETATM    7  C   UNL     1     -10.081  16.730  68.685  1.00  0.00    -0.279 A  
HETATM    8  C   UNL     1      -8.963  17.576  68.704  1.00  0.00    -0.260 A  
HETATM    9  C   UNL     1      -8.060  17.578  67.638  1.00  0.00    -0.211 A  
HETATM   10  C   UNL     1     -10.279  15.892  67.578  1.00  0.00    -0.269 A  
HETATM   11  C   UNL     1      -8.265  16.737  66.545  1.00  0.00    -0.325 A  
HETATM   12  C   UNL     1      -9.376  15.896  66.514  1.00  0.00    -0.306 A  
ENDBRANCH   6   7
ENDBRANCH   5   6
ENDBRANCH   4   5
ENDBRANCH   3   4
BRANCH   3  13
HETATM   13  C   UNL     1     -12.141  11.963  70.674  1.00  0.00    -0.294 C  
BRANCH  13  14
HETATM   14  C   UNL     1     -11.989  11.419  69.253  1.00  0.00    -0.400 C  
BRANCH  14  15
HETATM   15  C   UNL     1     -10.874  10.377  69.128  1.00  0.00    -0.274 C  
BRANCH  15  16
HETATM   16  C   UNL     1     -10.090  10.657  67.870  1.00  0.00    -0.194 A  
HETATM   17  C   UNL     1      -8.470  10.934  65.608  1.00  0.00    -0.139 A  
HETATM   18  C   UNL     1      -8.132  11.591  66.794  1.00  0.00    -0.158 A  
HETATM   19  C   UNL     1     -10.434  10.017  66.671  1.00  0.00    -0.244 A  
HETATM   20  C   UNL     1      -9.621  10.156  65.546  1.00  0.00    -0.310 A  
HETATM   21  C   UNL     1      -8.943  11.457  67.918  1.00  0.00    -0.153 A  
ENDBRANCH  15  16
ENDBRANCH  14  15
ENDBRANCH  13  14
ENDBRANCH   3  13
ENDBRANCH   2   3
TORSDOF 9
ENDMDL
MODEL      268
REMARK 921   NORMALIZED FREE ENERGY PREDICTED BY IDOCK:   -3.50 KCAL/MOL
REMARK 922        TOTAL FREE ENERGY PREDICTED BY IDOCK:   -6.86 KCAL/MOL
REMARK 923 INTER-LIGAND FREE ENERGY PREDICTED BY IDOCK:   -5.61 KCAL/MOL
REMARK 924 INTRA-LIGAND FREE ENERGY PREDICTED BY IDOCK:   -1.24 KCAL/MOL
REMARK 927      BINDING AFFINITY PREDICTED BY RF-SCORE:    0.00 PKD
ROOT
HETATM    1  C   UNL     1      -7.258  11.682  66.954  1.00  0.00    -0.125 C  
HETATM    2  C   UNL     1      -7.883  12.985  67.442  1.00  0.00    -0.164 C  
ENDROOT
BRANCH   2   3
HETATM    3  N   UNL     1      -9.337  13.135  67.199  1.00  0.00    -0.227 NA 
BRANCH   3   4
HETATM    4  C   UNL     1      -9.925  11.918  66.606  1.00  0.00    -0.199 C  
BRANCH   4   5
HETATM    5  C   UNL     1     -10.900  11.132  67.505  1.00  0.00    -0.303 C  
BRANCH   5   6
HETATM    6  C   UNL     1     -10.973   9.635  67.191  1.00  0.00    -0.066 C  
BRANCH   6   7
HETATM    7  C   UNL     1      -9.673   8.947  67.555  1.00  0.00    -0.216 A  
HETATM    8  C   UNL     1      -9.093   9.142  68.816  1.00  0.00    -0.136 A  
HETATM    9  C   UNL     1      -7.929   8.458  69.173  1.00  0.00    -0.110 A  
HETATM   10  C   UNL     1      -9.062   8.058  66.658  1.00  0.00    -0.199 A  
HETATM   11  C   UNL     1      -7.334   7.573  68.275  1.00  0.00    -0.096 A  
HETATM   12  C   UNL     1      -7.899   7.375  67.016  1.00  0.00    -0.116 A  
ENDBRANCH   6   7
ENDBRANCH   5   6
ENDBRANCH   4   5
ENDBRANCH   3   4
BRANCH   3  13
HETATM   13  C   UNL     1     -10.024  13.494  68.458  1.00  0.00    -0.202 C  
BRANCH  13  14
HETATM   14  C   UNL     1     -10.331  14.982  68.629  1.00  0.00    -0.236 C  
BRANCH  14  15
HETATM   15  C   UNL     1     -11.827  15.269  68.796  1.00  0.00    -0.332 C  
BRANCH  15  16
HETATM   16  C   UNL     1     -12.168  15.211  70.264  1.00  0.00    -0.395 A  
HETATM   17  C   UNL     1     -12.542  14.949  73.022  1.00  0.00    -0.529 A  
HETATM   18  C   UNL     1     -13.063  13.988  72.153  1.00  0.00    -0.501 A  
HETATM   19  C   UNL     1     -11.665  16.182  71.141  1.00  0.00    -0.454 A  
HETATM   20  C   UNL     1     -11.852  16.045  72.516  1.00  0.00    -0.630 A  
HETATM   21  C   UNL     1     -12.882  14.122  70.779  1.00  0.00    -0.378 A  
ENDBRANCH  15  16
ENDBRANCH  14  15
ENDBRANCH  13  14
ENDBRANCH   3  13
ENDBRANCH   2   3
TORSDOF 9
ENDMDL
MODEL      269
REMARK 921   NORMALIZED FREE ENERGY PREDICTED BY IDOCK:   -3.48 KCAL/MOL
REMARK 922        TOTAL FREE ENERGY PREDICTED BY IDOCK:   -6.83 KCAL/MOL
REMARK 923 INTER-LIGAND FREE ENERGY PREDICTED BY IDOCK:   -4.77 KCAL/MOL
REMARK 924 INTRA-LIGAND FREE ENERGY PREDICTED BY IDOCK:   -2.06 KCAL/MOL
REMARK 927      BINDING AFFINITY PREDICTED BY RF-SCORE:    0.00 PKD
ROOT
HETATM    1  C   UNL     1     -10.905   6.142  67.197  1.00  0.00    -0.442 C  
HETATM    2  C   UNL     1     -10.658   6.751  68.573  1.00  0.00    -0.225 C  
ENDROOT
BRANCH   2   3
HETATM    3  N   UNL     1     -11.001   5.894  69.730  1.00  0.00    -0.378 NA 
BRANCH   3   4
HETATM    4  C   UNL     1      -9.797   5.382  70.414  1.00  0.00    -0.205 C  
BRANCH   4   5
HETATM    5  C   UNL     1      -8.445   5.840  69.833  1.00  0.00    -0.123 C  
BRANCH   5   6
HETATM    6  C   UNL     1      -7.428   6.286  70.888  1.00  0.00    -0.088 C  
BRANCH   6   7
HETATM    7  C   UNL     1      -6.735   7.562  70.459  1.00  0.00    -0.047 A  
HETATM    8  C   UNL     1      -6.344   7.746  69.125  1.00  0.00    -0.036 A  
HETATM    9  C   UNL     1      -5.762   8.949  68.718  1.00  0.00    -0.041 A  
HETATM   10  C   UNL     1      -6.527   8.603  71.376  1.00  0.00    -0.066 A  
HETATM   11  C   UNL     1      -5.566   9.978  69.637  1.00  0.00    -0.037 A  
HETATM   12  C   UNL     1      -5.946   9.805  70.968  1.00  0.00    -0.079 A  
ENDBRANCH   6   7
ENDBRANCH   5   6
ENDBRANCH   4   5
ENDBRANCH   3   4
BRANCH   3  13
HETATM   13  C   UNL     1     -11.867   6.636  70.671  1.00  0.00    -0.383 C  
BRANCH  13  14
HETATM   14  C   UNL     1     -11.129   7.384  71.782  1.00  0.00    -0.269 C  
BRANCH  14  15
HETATM   15  C   UNL     1     -11.688   8.788  72.031  1.00  0.00    -0.442 C  
BRANCH  15  16
HETATM   16  C   UNL     1     -11.179   9.708  70.950  1.00  0.00    -0.422 A  
HETATM   17  C   UNL     1     -10.304  11.195  68.750  1.00  0.00    -0.222 A  
HETATM   18  C   UNL     1      -9.407  10.380  69.442  1.00  0.00    -0.186 A  
HETATM   19  C   UNL     1     -12.070  10.544  70.262  1.00  0.00    -0.402 A  
HETATM   20  C   UNL     1     -11.629  11.282  69.163  1.00  0.00    -0.387 A  
HETATM   21  C   UNL     1      -9.841   9.644  70.542  1.00  0.00    -0.294 A  
ENDBRANCH  15  16
ENDBRANCH  14  15
ENDBRANCH  13  14
ENDBRANCH   3  13
ENDBRANCH   2   3
TORSDOF 9
ENDMDL
MODEL      270
REMARK 921   NORMALIZED FREE ENERGY PREDICTED BY IDOCK:   -3.46 KCAL/MOL
REMARK 922        TOTAL FREE ENERGY PREDICTED BY IDOCK:   -6.80 KCAL/MOL
REMARK 923 INTER-LIGAND FREE ENERGY PREDICTED BY IDOCK:   -6.00 KCAL/MOL
REMARK 924 INTRA-LIGAND FREE ENERGY PREDICTED BY IDOCK:   -0.81 KCAL/MOL
REMARK 927      BINDING AFFINITY PREDICTED BY RF-SCORE:    0.00 PKD
ROOT
HETATM    1  C   UNL     1     -12.750  13.755  71.815  1.00  0.00    -0.373 C  
HETATM    2  C   UNL     1     -12.704  13.524  70.309  1.00  0.00    -0.052 C  
ENDROOT
BRANCH   2   3
HETATM    3  N   UNL     1     -12.273  14.681  69.491  1.00  0.00    -0.289 NA 
BRANCH   3   4
HETATM    4  C   UNL     1     -11.005  15.259  69.978  1.00  0.00    -0.288 C  
BRANCH   4   5
HETATM    5  C   UNL     1     -10.642  16.652  69.427  1.00  0.00    -0.333 C  
BRANCH   5   6
HETATM    6  C   UNL     1      -9.293  16.707  68.703  1.00  0.00    -0.247 C  
BRANCH   6   7
HETATM    7  C   UNL     1      -9.066  18.077  68.097  1.00  0.00    -0.279 A  
HETATM    8  C   UNL     1     -10.125  18.987  67.978  1.00  0.00    -0.458 A  
HETATM    9  C   UNL     1      -9.901  20.272  67.478  1.00  0.00    -0.576 A  
HETATM   10  C   UNL     1      -7.781  18.476  67.701  1.00  0.00    -0.240 A  
HETATM   11  C   UNL     1      -8.618  20.659  67.093  1.00  0.00    -0.299 A  
HETATM   12  C   UNL     1      -7.558  19.760  67.201  1.00  0.00    -0.289 A  
ENDBRANCH   6   7
ENDBRANCH   5   6
ENDBRANCH   4   5
ENDBRANCH   3   4
BRANCH   3  13
HETATM   13  C   UNL     1     -12.160  14.283  68.071  1.00  0.00    -0.254 C  
BRANCH  13  14
HETATM   14  C   UNL     1     -11.797  12.816  67.835  1.00  0.00    -0.392 C  
BRANCH  14  15
HETATM   15  C   UNL     1     -11.268  12.552  66.422  1.00  0.00    -0.353 C  
BRANCH  15  16
HETATM   16  C   UNL     1     -10.193  11.498  66.498  1.00  0.00    -0.253 A  
HETATM   17  C   UNL     1      -8.415   9.353  66.736  1.00  0.00    -0.129 A  
HETATM   18  C   UNL     1      -8.610  10.220  67.813  1.00  0.00    -0.118 A  
HETATM   19  C   UNL     1      -9.977  10.635  65.414  1.00  0.00    -0.343 A  
HETATM   20  C   UNL     1      -9.091   9.564  65.539  1.00  0.00    -0.262 A  
HETATM   21  C   UNL     1      -9.491  11.292  67.692  1.00  0.00    -0.173 A  
ENDBRANCH  15  16
ENDBRANCH  14  15
ENDBRANCH  13  14
ENDBRANCH   3  13
ENDBRANCH   2   3
TORSDOF 9
ENDMDL
MODEL      271
REMARK 921   NORMALIZED FREE ENERGY PREDICTED BY IDOCK:   -3.46 KCAL/MOL
REMARK 922        TOTAL FREE ENERGY PREDICTED BY IDOCK:   -6.80 KCAL/MOL
REMARK 923 INTER-LIGAND FREE ENERGY PREDICTED BY IDOCK:   -5.82 KCAL/MOL
REMARK 924 INTRA-LIGAND FREE ENERGY PREDICTED BY IDOCK:   -0.98 KCAL/MOL
REMARK 927      BINDING AFFINITY PREDICTED BY RF-SCORE:    0.00 PKD
ROOT
HETATM    1  C   UNL     1     -10.023   7.628  66.443  1.00  0.00    -0.142 C  
HETATM    2  C   UNL     1      -9.936   8.616  67.602  1.00  0.00    -0.194 C  
ENDROOT
BRANCH   2   3
HETATM    3  N   UNL     1     -10.131   8.045  68.954  1.00  0.00    -0.196 NA 
BRANCH   3   4
HETATM    4  C   UNL     1     -10.796   8.998  69.864  1.00  0.00    -0.218 C  
BRANCH   4   5
HETATM    5  C   UNL     1     -10.642  10.489  69.509  1.00  0.00    -0.278 C  
BRANCH   5   6
HETATM    6  C   UNL     1     -11.962  11.196  69.185  1.00  0.00    -0.413 C  
BRANCH   6   7
HETATM    7  C   UNL     1     -12.259  12.274  70.207  1.00  0.00    -0.342 A  
HETATM    8  C   UNL     1     -11.940  13.613  69.942  1.00  0.00    -0.415 A  
HETATM    9  C   UNL     1     -12.271  14.614  70.859  1.00  0.00    -0.391 A  
HETATM   10  C   UNL     1     -12.909  11.956  71.409  1.00  0.00    -0.411 A  
HETATM   11  C   UNL     1     -12.923  14.287  72.047  1.00  0.00    -0.437 A  
HETATM   12  C   UNL     1     -13.239  12.957  72.324  1.00  0.00    -0.519 A  
ENDBRANCH   6   7
ENDBRANCH   5   6
ENDBRANCH   4   5
ENDBRANCH   3   4
BRANCH   3  13
HETATM   13  C   UNL     1     -10.893   6.781  68.864  1.00  0.00    -0.243 C  
BRANCH  13  14
HETATM   14  C   UNL     1     -10.246   5.581  69.556  1.00  0.00    -0.331 C  
BRANCH  14  15
HETATM   15  C   UNL     1     -10.703   5.412  71.008  1.00  0.00    -0.239 C  
BRANCH  15  16
HETATM   16  C   UNL     1      -9.678   6.047  71.914  1.00  0.00    -0.173 A  
HETATM   17  C   UNL     1      -7.760   7.449  73.389  1.00  0.00    -0.118 A  
HETATM   18  C   UNL     1      -7.359   6.486  72.460  1.00  0.00    -0.089 A  
HETATM   19  C   UNL     1     -10.074   7.000  72.863  1.00  0.00    -0.225 A  
HETATM   20  C   UNL     1      -9.113   7.699  73.594  1.00  0.00    -0.327 A  
HETATM   21  C   UNL     1      -8.315   5.784  71.729  1.00  0.00    -0.120 A  
ENDBRANCH  15  16
ENDBRANCH  14  15
ENDBRANCH  13  14
ENDBRANCH   3  13
ENDBRANCH   2   3
TORSDOF 9
ENDMDL
MODEL      272
REMARK 921   NORMALIZED FREE ENERGY PREDICTED BY IDOCK:   -3.46 KCAL/MOL
REMARK 922        TOTAL FREE ENERGY PREDICTED BY IDOCK:   -6.80 KCAL/MOL
REMARK 923 INTER-LIGAND FREE ENERGY PREDICTED BY IDOCK:   -5.70 KCAL/MOL
REMARK 924 INTRA-LIGAND FREE ENERGY PREDICTED BY IDOCK:   -1.10 KCAL/MOL
REMARK 927      BINDING AFFINITY PREDICTED BY RF-SCORE:    0.00 PKD
ROOT
HETATM    1  C   UNL     1     -11.195  12.982  67.978  1.00  0.00    -0.310 C  
HETATM    2  C   UNL     1     -11.319  12.017  66.804  1.00  0.00    -0.339 C  
ENDROOT
BRANCH   2   3
HETATM    3  N   UNL     1     -12.288  12.401  65.752  1.00  0.00    -0.603 NA 
BRANCH   3   4
HETATM    4  C   UNL     1     -12.454  13.865  65.662  1.00  0.00    -0.505 C  
BRANCH   4   5
HETATM    5  C   UNL     1     -11.612  14.575  64.584  1.00  0.00    -0.413 C  
BRANCH   5   6
HETATM    6  C   UNL     1     -11.278  16.034  64.909  1.00  0.00    -0.319 C  
BRANCH   6   7
HETATM    7  C   UNL     1     -10.349  16.118  66.103  1.00  0.00    -0.350 A  
HETATM    8  C   UNL     1      -9.053  15.588  66.035  1.00  0.00    -0.316 A  
HETATM    9  C   UNL     1      -8.176  15.722  67.114  1.00  0.00    -0.237 A  
HETATM   10  C   UNL     1     -10.751  16.779  67.273  1.00  0.00    -0.213 A  
HETATM   11  C   UNL     1      -8.585  16.386  68.269  1.00  0.00    -0.200 A  
HETATM   12  C   UNL     1      -9.873  16.912  68.350  1.00  0.00    -0.266 A  
ENDBRANCH   6   7
ENDBRANCH   5   6
ENDBRANCH   4   5
ENDBRANCH   3   4
BRANCH   3  13
HETATM   13  C   UNL     1     -11.872  11.836  64.451  1.00  0.00    -0.188 C  
BRANCH  13  14
HETATM   14  C   UNL     1     -10.361  11.770  64.224  1.00  0.00    -0.359 C  
BRANCH  14  15
HETATM   15  C   UNL     1      -9.887  10.390  63.760  1.00  0.00    -0.308 C  
BRANCH  15  16
HETATM   16  C   UNL     1      -8.396  10.296  63.968  1.00  0.00    -0.165 A  
HETATM   17  C   UNL     1      -5.625  10.423  64.313  1.00  0.00    -0.140 A  
HETATM   18  C   UNL     1      -6.160  10.202  63.043  1.00  0.00    -0.137 A  
HETATM   19  C   UNL     1      -7.851  10.498  65.244  1.00  0.00    -0.100 A  
HETATM   20  C   UNL     1      -6.468  10.563  65.410  1.00  0.00    -0.085 A  
HETATM   21  C   UNL     1      -7.541  10.133  62.872  1.00  0.00    -0.142 A  
ENDBRANCH  15  16
ENDBRANCH  14  15
ENDBRANCH  13  14
ENDBRANCH   3  13
ENDBRANCH   2   3
TORSDOF 9
ENDMDL
MODEL      273
REMARK 921   NORMALIZED FREE ENERGY PREDICTED BY IDOCK:   -3.46 KCAL/MOL
REMARK 922        TOTAL FREE ENERGY PREDICTED BY IDOCK:   -6.79 KCAL/MOL
REMARK 923 INTER-LIGAND FREE ENERGY PREDICTED BY IDOCK:   -5.75 KCAL/MOL
REMARK 924 INTRA-LIGAND FREE ENERGY PREDICTED BY IDOCK:   -1.04 KCAL/MOL
REMARK 927      BINDING AFFINITY PREDICTED BY RF-SCORE:    0.00 PKD
ROOT
HETATM    1  C   UNL     1     -11.799   9.003  72.182  1.00  0.00    -0.384 C  
HETATM    2  C   UNL     1     -11.787   8.723  70.683  1.00  0.00    -0.112 C  
ENDROOT
BRANCH   2   3
HETATM    3  N   UNL     1     -10.483   8.896  70.003  1.00  0.00    -0.206 NA 
BRANCH   3   4
HETATM    4  C   UNL     1     -10.164   7.755  69.123  1.00  0.00    -0.208 C  
BRANCH   4   5
HETATM    5  C   UNL     1     -11.123   6.552  69.203  1.00  0.00    -0.387 C  
BRANCH   5   6
HETATM    6  C   UNL     1     -10.457   5.248  69.655  1.00  0.00    -0.320 C  
BRANCH   6   7
HETATM    7  C   UNL     1      -9.879   5.396  71.047  1.00  0.00    -0.246 A  
HETATM    8  C   UNL     1      -8.491   5.404  71.244  1.00  0.00    -0.126 A  
HETATM    9  C   UNL     1      -7.960   5.603  72.520  1.00  0.00    -0.103 A  
HETATM   10  C   UNL     1     -10.722   5.585  72.152  1.00  0.00    -0.288 A  
HETATM   11  C   UNL     1      -8.807   5.796  73.610  1.00  0.00    -0.121 A  
HETATM   12  C   UNL     1     -10.189   5.784  73.426  1.00  0.00    -0.224 A  
ENDBRANCH   6   7
ENDBRANCH   5   6
ENDBRANCH   4   5
ENDBRANCH   3   4
BRANCH   3  13
HETATM   13  C   UNL     1     -10.472  10.166  69.246  1.00  0.00    -0.225 C  
BRANCH  13  14
HETATM   14  C   UNL     1     -10.520  10.016  67.725  1.00  0.00    -0.282 C  
BRANCH  14  15
HETATM   15  C   UNL     1     -10.960  11.298  67.012  1.00  0.00    -0.352 C  
BRANCH  15  16
HETATM   16  C   UNL     1     -10.551  11.210  65.563  1.00  0.00    -0.289 A  
HETATM   17  C   UNL     1      -9.549  11.209  62.953  1.00  0.00    -0.373 A  
HETATM   18  C   UNL     1     -10.426  12.216  63.364  1.00  0.00    -0.450 A  
HETATM   19  C   UNL     1      -9.687  10.192  65.139  1.00  0.00    -0.370 A  
HETATM   20  C   UNL     1      -9.187  10.197  63.836  1.00  0.00    -0.322 A  
HETATM   21  C   UNL     1     -10.930  12.212  64.662  1.00  0.00    -0.359 A  
ENDBRANCH  15  16
ENDBRANCH  14  15
ENDBRANCH  13  14
ENDBRANCH   3  13
ENDBRANCH   2   3
TORSDOF 9
ENDMDL
MODEL      274
REMARK 921   NORMALIZED FREE ENERGY PREDICTED BY IDOCK:   -3.45 KCAL/MOL
REMARK 922        TOTAL FREE ENERGY PREDICTED BY IDOCK:   -6.78 KCAL/MOL
REMARK 923 INTER-LIGAND FREE ENERGY PREDICTED BY IDOCK:   -5.04 KCAL/MOL
REMARK 924 INTRA-LIGAND FREE ENERGY PREDICTED BY IDOCK:   -1.74 KCAL/MOL
REMARK 927      BINDING AFFINITY PREDICTED BY RF-SCORE:    0.00 PKD
ROOT
HETATM    1  C   UNL     1     -11.174   6.484  67.706  1.00  0.00    -0.261 C  
HETATM    2  C   UNL     1     -10.643   7.745  67.032  1.00  0.00    -0.326 C  
ENDROOT
BRANCH   2   3
HETATM    3  N   UNL     1      -9.179   7.953  67.113  1.00  0.00    -0.141 NA 
BRANCH   3   4
HETATM    4  C   UNL     1      -8.462   7.258  66.026  1.00  0.00    -0.145 C  
BRANCH   4   5
HETATM    5  C   UNL     1      -7.941   5.846  66.356  1.00  0.00    -0.102 C  
BRANCH   5   6
HETATM    6  C   UNL     1      -7.123   5.767  67.649  1.00  0.00    -0.074 C  
BRANCH   6   7
HETATM    7  C   UNL     1      -7.996   5.344  68.812  1.00  0.00    -0.087 A  
HETATM    8  C   UNL     1      -8.593   4.075  68.828  1.00  0.00    -0.114 A  
HETATM    9  C   UNL     1      -9.346   3.662  69.930  1.00  0.00    -0.246 A  
HETATM   10  C   UNL     1      -8.173   6.191  69.915  1.00  0.00    -0.120 A  
HETATM   11  C   UNL     1      -9.510   4.511  71.023  1.00  0.00    -0.229 A  
HETATM   12  C   UNL     1      -8.926   5.777  71.015  1.00  0.00    -0.150 A  
ENDBRANCH   6   7
ENDBRANCH   5   6
ENDBRANCH   4   5
ENDBRANCH   3   4
BRANCH   3  13
HETATM   13  C   UNL     1      -8.873   9.399  67.106  1.00  0.00    -0.127 C  
BRANCH  13  14
HETATM   14  C   UNL     1     -10.035  10.311  67.505  1.00  0.00    -0.226 C  
BRANCH  14  15
HETATM   15  C   UNL     1      -9.816  11.000  68.856  1.00  0.00    -0.189 C  
BRANCH  15  16
HETATM   16  C   UNL     1     -10.790  10.426  69.854  1.00  0.00    -0.353 A  
HETATM   17  C   UNL     1     -12.442   9.513  71.916  1.00  0.00    -0.465 A  
HETATM   18  C   UNL     1     -11.314   8.776  71.548  1.00  0.00    -0.375 A  
HETATM   19  C   UNL     1     -11.935  11.149  70.215  1.00  0.00    -0.460 A  
HETATM   20  C   UNL     1     -12.755  10.691  71.247  1.00  0.00    -0.537 A  
HETATM   21  C   UNL     1     -10.495   9.228  70.517  1.00  0.00    -0.312 A  
ENDBRANCH  15  16
ENDBRANCH  14  15
ENDBRANCH  13  14
ENDBRANCH   3  13
ENDBRANCH   2   3
TORSDOF 9
ENDMDL
MODEL      275
REMARK 921   NORMALIZED FREE ENERGY PREDICTED BY IDOCK:   -3.44 KCAL/MOL
REMARK 922        TOTAL FREE ENERGY PREDICTED BY IDOCK:   -6.77 KCAL/MOL
REMARK 923 INTER-LIGAND FREE ENERGY PREDICTED BY IDOCK:   -6.14 KCAL/MOL
REMARK 924 INTRA-LIGAND FREE ENERGY PREDICTED BY IDOCK:   -0.63 KCAL/MOL
REMARK 927      BINDING AFFINITY PREDICTED BY RF-SCORE:    0.00 PKD
ROOT
HETATM    1  C   UNL     1      -7.258  12.898  67.333  1.00  0.00    -0.130 C  
HETATM    2  C   UNL     1      -8.098  11.846  68.048  1.00  0.00    -0.151 C  
ENDROOT
BRANCH   2   3
HETATM    3  N   UNL     1      -9.082  11.124  67.209  1.00  0.00    -0.149 NA 
BRANCH   3   4
HETATM    4  C   UNL     1      -9.112   9.680  67.512  1.00  0.00    -0.130 C  
BRANCH   4   5
HETATM    5  C   UNL     1     -10.509   9.031  67.568  1.00  0.00    -0.338 C  
BRANCH   5   6
HETATM    6  C   UNL     1     -10.501   7.510  67.387  1.00  0.00    -0.367 C  
BRANCH   6   7
HETATM    7  C   UNL     1     -10.479   6.811  68.731  1.00  0.00    -0.231 A  
HETATM    8  C   UNL     1     -10.918   7.474  69.885  1.00  0.00    -0.223 A  
HETATM    9  C   UNL     1     -10.957   6.807  71.112  1.00  0.00    -0.298 A  
HETATM   10  C   UNL     1     -10.076   5.471  68.830  1.00  0.00    -0.266 A  
HETATM   11  C   UNL     1     -10.560   5.474  71.197  1.00  0.00    -0.303 A  
HETATM   12  C   UNL     1     -10.115   4.806  70.057  1.00  0.00    -0.308 A  
ENDBRANCH   6   7
ENDBRANCH   5   6
ENDBRANCH   4   5
ENDBRANCH   3   4
BRANCH   3  13
HETATM   13  C   UNL     1     -10.423  11.726  67.371  1.00  0.00    -0.211 C  
BRANCH  13  14
HETATM   14  C   UNL     1     -10.559  12.705  68.537  1.00  0.00    -0.262 C  
BRANCH  14  15
HETATM   15  C   UNL     1     -11.777  13.624  68.406  1.00  0.00    -0.393 C  
BRANCH  15  16
HETATM   16  C   UNL     1     -11.719  14.315  67.067  1.00  0.00    -0.427 A  
HETATM   17  C   UNL     1     -11.410  15.385  64.502  1.00  0.00    -0.321 A  
HETATM   18  C   UNL     1     -10.598  15.831  65.547  1.00  0.00    -0.424 A  
HETATM   19  C   UNL     1     -12.544  13.886  66.019  1.00  0.00    -0.467 A  
HETATM   20  C   UNL     1     -12.384  14.420  64.740  1.00  0.00    -0.427 A  
HETATM   21  C   UNL     1     -10.756  15.303  66.826  1.00  0.00    -0.313 A  
ENDBRANCH  15  16
ENDBRANCH  14  15
ENDBRANCH  13  14
ENDBRANCH   3  13
ENDBRANCH   2   3
TORSDOF 9
ENDMDL
MODEL      276
REMARK 921   NORMALIZED FREE ENERGY PREDICTED BY IDOCK:   -3.44 KCAL/MOL
REMARK 922        TOTAL FREE ENERGY PREDICTED BY IDOCK:   -6.77 KCAL/MOL
REMARK 923 INTER-LIGAND FREE ENERGY PREDICTED BY IDOCK:   -6.43 KCAL/MOL
REMARK 924 INTRA-LIGAND FREE ENERGY PREDICTED BY IDOCK:   -0.34 KCAL/MOL
REMARK 927      BINDING AFFINITY PREDICTED BY RF-SCORE:    0.00 PKD
ROOT
HETATM    1  C   UNL     1     -10.065  15.423  70.201  1.00  0.00    -0.156 C  
HETATM    2  C   UNL     1     -11.275  15.106  69.329  1.00  0.00    -0.278 C  
ENDROOT
BRANCH   2   3
HETATM    3  N   UNL     1     -11.040  15.129  67.867  1.00  0.00    -0.309 NA 
BRANCH   3   4
HETATM    4  C   UNL     1      -9.718  14.578  67.511  1.00  0.00    -0.211 C  
BRANCH   4   5
HETATM    5  C   UNL     1      -9.079  15.134  66.224  1.00  0.00    -0.313 C  
BRANCH   5   6
HETATM    6  C   UNL     1      -7.956  16.147  66.469  1.00  0.00    -0.294 C  
BRANCH   6   7
HETATM    7  C   UNL     1      -8.480  17.564  66.369  1.00  0.00    -0.287 A  
HETATM    8  C   UNL     1      -9.859  17.818  66.415  1.00  0.00    -0.328 A  
HETATM    9  C   UNL     1     -10.337  19.130  66.386  1.00  0.00    -0.536 A  
HETATM   10  C   UNL     1      -7.594  18.648  66.288  1.00  0.00    -0.291 A  
HETATM   11  C   UNL     1      -9.446  20.199  66.311  1.00  0.00    -0.450 A  
HETATM   12  C   UNL     1      -8.074  19.958  66.259  1.00  0.00    -0.352 A  
ENDBRANCH   6   7
ENDBRANCH   5   6
ENDBRANCH   4   5
ENDBRANCH   3   4
BRANCH   3  13
HETATM   13  C   UNL     1     -12.121  14.400  67.169  1.00  0.00    -0.333 C  
BRANCH  13  14
HETATM   14  C   UNL     1     -11.653  13.407  66.104  1.00  0.00    -0.378 C  
BRANCH  14  15
HETATM   15  C   UNL     1     -11.763  11.948  66.558  1.00  0.00    -0.247 C  
BRANCH  15  16
HETATM   16  C   UNL     1     -10.702  11.142  65.853  1.00  0.00    -0.261 A  
HETATM   17  C   UNL     1      -8.942   9.429  64.516  1.00  0.00    -0.227 A  
HETATM   18  C   UNL     1      -9.020   9.400  65.910  1.00  0.00    -0.217 A  
HETATM   19  C   UNL     1     -10.603  11.180  64.455  1.00  0.00    -0.397 A  
HETATM   20  C   UNL     1      -9.726  10.322  63.792  1.00  0.00    -0.298 A  
HETATM   21  C   UNL     1      -9.892  10.258  66.576  1.00  0.00    -0.265 A  
ENDBRANCH  15  16
ENDBRANCH  14  15
ENDBRANCH  13  14
ENDBRANCH   3  13
ENDBRANCH   2   3
TORSDOF 9
ENDMDL
MODEL      277
REMARK 921   NORMALIZED FREE ENERGY PREDICTED BY IDOCK:   -3.44 KCAL/MOL
REMARK 922        TOTAL FREE ENERGY PREDICTED BY IDOCK:   -6.76 KCAL/MOL
REMARK 923 INTER-LIGAND FREE ENERGY PREDICTED BY IDOCK:   -5.40 KCAL/MOL
REMARK 924 INTRA-LIGAND FREE ENERGY PREDICTED BY IDOCK:   -1.36 KCAL/MOL
REMARK 927      BINDING AFFINITY PREDICTED BY RF-SCORE:    0.00 PKD
ROOT
HETATM    1  C   UNL     1      -6.199  13.133  68.447  1.00  0.00    -0.083 C  
HETATM    2  C   UNL     1      -7.636  12.676  68.680  1.00  0.00    -0.083 C  
ENDROOT
BRANCH   2   3
HETATM    3  N   UNL     1      -7.947  11.288  68.268  1.00  0.00    -0.126 NA 
BRANCH   3   4
HETATM    4  C   UNL     1      -7.884  10.348  69.404  1.00  0.00    -0.161 C  
BRANCH   4   5
HETATM    5  C   UNL     1      -9.000   9.287  69.464  1.00  0.00    -0.154 C  
BRANCH   5   6
HETATM    6  C   UNL     1      -9.809   9.302  70.765  1.00  0.00    -0.350 C  
BRANCH   6   7
HETATM    7  C   UNL     1     -10.011   7.895  71.287  1.00  0.00    -0.206 A  
HETATM    8  C   UNL     1     -10.659   7.676  72.511  1.00  0.00    -0.336 A  
HETATM    9  C   UNL     1     -10.901   6.376  72.960  1.00  0.00    -0.287 A  
HETATM   10  C   UNL     1      -9.606   6.788  70.527  1.00  0.00    -0.174 A  
HETATM   11  C   UNL     1     -10.499   5.284  72.194  1.00  0.00    -0.278 A  
HETATM   12  C   UNL     1      -9.848   5.490  70.978  1.00  0.00    -0.238 A  
ENDBRANCH   6   7
ENDBRANCH   5   6
ENDBRANCH   4   5
ENDBRANCH   3   4
BRANCH   3  13
HETATM   13  C   UNL     1      -9.272  11.240  67.615  1.00  0.00    -0.156 C  
BRANCH  13  14
HETATM   14  C   UNL     1     -10.155  12.467  67.844  1.00  0.00    -0.214 C  
BRANCH  14  15
HETATM   15  C   UNL     1     -11.648  12.128  67.897  1.00  0.00    -0.413 C  
BRANCH  15  16
HETATM   16  C   UNL     1     -12.102  12.172  69.334  1.00  0.00    -0.247 A  
HETATM   17  C   UNL     1     -13.224  12.302  71.892  1.00  0.00    -0.481 A  
HETATM   18  C   UNL     1     -12.721  13.458  71.291  1.00  0.00    -0.424 A  
HETATM   19  C   UNL     1     -12.591  11.012  69.951  1.00  0.00    -0.202 A  
HETATM   20  C   UNL     1     -13.152  11.083  71.226  1.00  0.00    -0.381 A  
HETATM   21  C   UNL     1     -12.157  13.391  70.019  1.00  0.00    -0.404 A  
ENDBRANCH  15  16
ENDBRANCH  14  15
ENDBRANCH  13  14
ENDBRANCH   3  13
ENDBRANCH   2   3
TORSDOF 9
ENDMDL
MODEL      278
REMARK 921   NORMALIZED FREE ENERGY PREDICTED BY IDOCK:   -3.43 KCAL/MOL
REMARK 922        TOTAL FREE ENERGY PREDICTED BY IDOCK:   -6.75 KCAL/MOL
REMARK 923 INTER-LIGAND FREE ENERGY PREDICTED BY IDOCK:   -5.00 KCAL/MOL
REMARK 924 INTRA-LIGAND FREE ENERGY PREDICTED BY IDOCK:   -1.74 KCAL/MOL
REMARK 927      BINDING AFFINITY PREDICTED BY RF-SCORE:    0.00 PKD
ROOT
HETATM    1  C   UNL     1      -6.545  11.324  67.517  1.00  0.00    -0.073 C  
HETATM    2  C   UNL     1      -6.828  12.790  67.829  1.00  0.00    -0.135 C  
ENDROOT
BRANCH   2   3
HETATM    3  N   UNL     1      -8.128  13.312  67.349  1.00  0.00    -0.178 NA 
BRANCH   3   4
HETATM    4  C   UNL     1      -8.955  12.255  66.735  1.00  0.00    -0.209 C  
BRANCH   4   5
HETATM    5  C   UNL     1     -10.036  11.632  67.641  1.00  0.00    -0.201 C  
BRANCH   5   6
HETATM    6  C   UNL     1     -10.661  10.351  67.081  1.00  0.00    -0.319 C  
BRANCH   6   7
HETATM    7  C   UNL     1      -9.699   9.187  67.203  1.00  0.00    -0.236 A  
HETATM    8  C   UNL     1      -9.251   8.764  68.463  1.00  0.00    -0.141 A  
HETATM    9  C   UNL     1      -8.414   7.651  68.578  1.00  0.00    -0.129 A  
HETATM   10  C   UNL     1      -9.289   8.479  66.064  1.00  0.00    -0.266 A  
HETATM   11  C   UNL     1      -8.018   6.952  67.440  1.00  0.00    -0.112 A  
HETATM   12  C   UNL     1      -8.453   7.368  66.182  1.00  0.00    -0.147 A  
ENDBRANCH   6   7
ENDBRANCH   5   6
ENDBRANCH   4   5
ENDBRANCH   3   4
BRANCH   3  13
HETATM   13  C   UNL     1      -8.850  13.969  68.460  1.00  0.00    -0.160 C  
BRANCH  13  14
HETATM   14  C   UNL     1      -9.241  15.426  68.209  1.00  0.00    -0.188 C  
BRANCH  14  15
HETATM   15  C   UNL     1     -10.757  15.638  68.162  1.00  0.00    -0.287 C  
BRANCH  15  16
HETATM   16  C   UNL     1     -11.282  15.090  66.859  1.00  0.00    -0.323 A  
HETATM   17  C   UNL     1     -12.043  13.858  64.467  1.00  0.00    -0.473 A  
HETATM   18  C   UNL     1     -11.086  14.875  64.455  1.00  0.00    -0.123 A  
HETATM   19  C   UNL     1     -12.256  14.082  66.862  1.00  0.00    -0.415 A  
HETATM   20  C   UNL     1     -12.630  13.469  65.666  1.00  0.00    -0.512 A  
HETATM   21  C   UNL     1     -10.711  15.493  65.645  1.00  0.00    -0.378 A  
ENDBRANCH  15  16
ENDBRANCH  14  15
ENDBRANCH  13  14
ENDBRANCH   3  13
ENDBRANCH   2   3
TORSDOF 9
ENDMDL
MODEL      279
REMARK 921   NORMALIZED FREE ENERGY PREDICTED BY IDOCK:   -3.42 KCAL/MOL
REMARK 922        TOTAL FREE ENERGY PREDICTED BY IDOCK:   -6.74 KCAL/MOL
REMARK 923 INTER-LIGAND FREE ENERGY PREDICTED BY IDOCK:   -5.66 KCAL/MOL
REMARK 924 INTRA-LIGAND FREE ENERGY PREDICTED BY IDOCK:   -1.08 KCAL/MOL
REMARK 927      BINDING AFFINITY PREDICTED BY RF-SCORE:    0.00 PKD
ROOT
HETATM    1  C   UNL     1      -6.866   8.582  67.372  1.00  0.00    -0.067 C  
HETATM    2  C   UNL     1      -8.019   8.786  68.348  1.00  0.00    -0.109 C  
ENDROOT
BRANCH   2   3
HETATM    3  N   UNL     1      -9.267   9.335  67.768  1.00  0.00    -0.129 NA 
BRANCH   3   4
HETATM    4  C   UNL     1     -10.339   8.323  67.708  1.00  0.00    -0.234 C  
BRANCH   4   5
HETATM    5  C   UNL     1     -10.086   7.024  68.498  1.00  0.00    -0.171 C  
BRANCH   5   6
HETATM    6  C   UNL     1     -11.238   6.619  69.424  1.00  0.00    -0.356 C  
BRANCH   6   7
HETATM    7  C   UNL     1     -10.808   6.680  70.874  1.00  0.00    -0.297 A  
HETATM    8  C   UNL     1      -9.988   7.722  71.330  1.00  0.00    -0.207 A  
HETATM    9  C   UNL     1      -9.643   7.811  72.681  1.00  0.00    -0.261 A  
HETATM   10  C   UNL     1     -11.270   5.729  71.796  1.00  0.00    -0.275 A  
HETATM   11  C   UNL     1     -10.114   6.864  73.588  1.00  0.00    -0.349 A  
HETATM   12  C   UNL     1     -10.925   5.820  73.145  1.00  0.00    -0.309 A  
ENDBRANCH   6   7
ENDBRANCH   5   6
ENDBRANCH   4   5
ENDBRANCH   3   4
BRANCH   3  13
HETATM   13  C   UNL     1      -9.702  10.521  68.537  1.00  0.00    -0.165 C  
BRANCH  13  14
HETATM   14  C   UNL     1     -11.212  10.637  68.751  1.00  0.00    -0.337 C  
BRANCH  14  15
HETATM   15  C   UNL     1     -11.883  11.596  67.762  1.00  0.00    -0.247 C  
BRANCH  15  16
HETATM   16  C   UNL     1     -11.681  13.009  68.248  1.00  0.00    -0.390 A  
HETATM   17  C   UNL     1     -11.586  15.688  69.044  1.00  0.00    -0.396 A  
HETATM   18  C   UNL     1     -11.126  15.319  67.778  1.00  0.00    -0.318 A  
HETATM   19  C   UNL     1     -12.123  13.383  69.524  1.00  0.00    -0.334 A  
HETATM   20  C   UNL     1     -12.076  14.721  69.916  1.00  0.00    -0.381 A  
HETATM   21  C   UNL     1     -11.167  13.984  67.384  1.00  0.00    -0.328 A  
ENDBRANCH  15  16
ENDBRANCH  14  15
ENDBRANCH  13  14
ENDBRANCH   3  13
ENDBRANCH   2   3
TORSDOF 9
ENDMDL
MODEL      280
REMARK 921   NORMALIZED FREE ENERGY PREDICTED BY IDOCK:   -3.42 KCAL/MOL
REMARK 922        TOTAL FREE ENERGY PREDICTED BY IDOCK:   -6.74 KCAL/MOL
REMARK 923 INTER-LIGAND FREE ENERGY PREDICTED BY IDOCK:   -5.08 KCAL/MOL
REMARK 924 INTRA-LIGAND FREE ENERGY PREDICTED BY IDOCK:   -1.66 KCAL/MOL
REMARK 927      BINDING AFFINITY PREDICTED BY RF-SCORE:    0.00 PKD
ROOT
HETATM    1  C   UNL     1     -10.508   5.309  67.063  1.00  0.00    -0.290 C  
HETATM    2  C   UNL     1     -10.843   6.650  67.707  1.00  0.00    -0.294 C  
ENDROOT
BRANCH   2   3
HETATM    3  N   UNL     1      -9.696   7.400  68.270  1.00  0.00    -0.150 NA 
BRANCH   3   4
HETATM    4  C   UNL     1      -8.475   7.230  67.459  1.00  0.00    -0.119 C  
BRANCH   4   5
HETATM    5  C   UNL     1      -7.195   7.879  68.022  1.00  0.00    -0.090 C  
BRANCH   5   6
HETATM    6  C   UNL     1      -6.516   8.861  67.063  1.00  0.00    -0.061 C  
BRANCH   6   7
HETATM    7  C   UNL     1      -6.540  10.266  67.628  1.00  0.00    -0.066 A  
HETATM    8  C   UNL     1      -6.858  10.486  68.976  1.00  0.00    -0.068 A  
HETATM    9  C   UNL     1      -6.818  11.776  69.511  1.00  0.00    -0.026 A  
HETATM   10  C   UNL     1      -6.186  11.362  66.828  1.00  0.00    -0.141 A  
HETATM   11  C   UNL     1      -6.460  12.856  68.707  1.00  0.00    -0.085 A  
HETATM   12  C   UNL     1      -6.147  12.650  67.364  1.00  0.00    -0.142 A  
ENDBRANCH   6   7
ENDBRANCH   5   6
ENDBRANCH   4   5
ENDBRANCH   3   4
BRANCH   3  13
HETATM   13  C   UNL     1     -10.045   8.830  68.406  1.00  0.00    -0.190 C  
BRANCH  13  14
HETATM   14  C   UNL     1     -10.529   9.506  67.122  1.00  0.00    -0.322 C  
BRANCH  14  15
HETATM   15  C   UNL     1     -10.039  10.951  66.986  1.00  0.00    -0.244 C  
BRANCH  15  16
HETATM   16  C   UNL     1     -10.765  11.601  65.836  1.00  0.00    -0.328 A  
HETATM   17  C   UNL     1     -11.917  13.036  63.731  1.00  0.00    -0.585 A  
HETATM   18  C   UNL     1     -12.394  13.204  65.033  1.00  0.00    -0.511 A  
HETATM   19  C   UNL     1     -10.306  11.422  64.523  1.00  0.00    -0.369 A  
HETATM   20  C   UNL     1     -10.882  12.143  63.477  1.00  0.00    -0.518 A  
HETATM   21  C   UNL     1     -11.824  12.484  66.080  1.00  0.00    -0.478 A  
ENDBRANCH  15  16
ENDBRANCH  14  15
ENDBRANCH  13  14
ENDBRANCH   3  13
ENDBRANCH   2   3
TORSDOF 9
ENDMDL
MODEL      281
REMARK 921   NORMALIZED FREE ENERGY PREDICTED BY IDOCK:   -3.39 KCAL/MOL
REMARK 922        TOTAL FREE ENERGY PREDICTED BY IDOCK:   -6.70 KCAL/MOL
REMARK 923 INTER-LIGAND FREE ENERGY PREDICTED BY IDOCK:   -4.80 KCAL/MOL
REMARK 924 INTRA-LIGAND FREE ENERGY PREDICTED BY IDOCK:   -1.90 KCAL/MOL
REMARK 927      BINDING AFFINITY PREDICTED BY RF-SCORE:    0.00 PKD
ROOT
HETATM    1  C   UNL     1     -10.830  11.778  66.300  1.00  0.00    -0.325 C  
HETATM    2  C   UNL     1     -11.397  12.452  67.545  1.00  0.00    -0.315 C  
ENDROOT
BRANCH   2   3
HETATM    3  N   UNL     1     -11.220  11.715  68.817  1.00  0.00    -0.222 NA 
BRANCH   3   4
HETATM    4  C   UNL     1     -12.487  11.590  69.563  1.00  0.00     0.004 C  
BRANCH   4   5
HETATM    5  C   UNL     1     -12.372  11.053  71.003  1.00  0.00    -0.490 C  
BRANCH   5   6
HETATM    6  C   UNL     1     -13.152   9.757  71.252  1.00  0.00    -0.465 C  
BRANCH   6   7
HETATM    7  C   UNL     1     -12.233   8.670  71.768  1.00  0.00    -0.403 A  
HETATM    8  C   UNL     1     -12.693   7.352  71.899  1.00  0.00    -0.310 A  
HETATM    9  C   UNL     1     -11.826   6.338  72.315  1.00  0.00    -0.326 A  
HETATM   10  C   UNL     1     -10.892   8.952  72.066  1.00  0.00    -0.404 A  
HETATM   11  C   UNL     1     -10.494   6.630  72.603  1.00  0.00    -0.237 A  
HETATM   12  C   UNL     1     -10.027   7.938  72.482  1.00  0.00    -0.312 A  
ENDBRANCH   6   7
ENDBRANCH   5   6
ENDBRANCH   4   5
ENDBRANCH   3   4
BRANCH   3  13
HETATM   13  C   UNL     1     -10.629  10.386  68.553  1.00  0.00    -0.209 C  
BRANCH  13  14
HETATM   14  C   UNL     1      -9.230  10.171  69.131  1.00  0.00    -0.204 C  
BRANCH  14  15
HETATM   15  C   UNL     1      -8.352   9.273  68.253  1.00  0.00    -0.120 C  
BRANCH  15  16
HETATM   16  C   UNL     1      -7.884   8.101  69.077  1.00  0.00    -0.108 A  
HETATM   17  C   UNL     1      -6.857   5.840  70.363  1.00  0.00    -0.049 A  
HETATM   18  C   UNL     1      -8.071   5.762  69.677  1.00  0.00    -0.104 A  
HETATM   19  C   UNL     1      -6.676   8.177  69.784  1.00  0.00    -0.040 A  
HETATM   20  C   UNL     1      -6.166   7.045  70.422  1.00  0.00    -0.027 A  
HETATM   21  C   UNL     1      -8.586   6.889  69.042  1.00  0.00    -0.128 A  
ENDBRANCH  15  16
ENDBRANCH  14  15
ENDBRANCH  13  14
ENDBRANCH   3  13
ENDBRANCH   2   3
TORSDOF 9
ENDMDL
MODEL      282
REMARK 921   NORMALIZED FREE ENERGY PREDICTED BY IDOCK:   -3.39 KCAL/MOL
REMARK 922        TOTAL FREE ENERGY PREDICTED BY IDOCK:   -6.69 KCAL/MOL
REMARK 923 INTER-LIGAND FREE ENERGY PREDICTED BY IDOCK:   -5.71 KCAL/MOL
REMARK 924 INTRA-LIGAND FREE ENERGY PREDICTED BY IDOCK:   -0.98 KCAL/MOL
REMARK 927      BINDING AFFINITY PREDICTED BY RF-SCORE:    0.00 PKD
ROOT
HETATM    1  C   UNL     1     -10.855  13.702  64.894  1.00  0.00    -0.382 C  
HETATM    2  C   UNL     1     -11.193  12.883  66.135  1.00  0.00    -0.292 C  
ENDROOT
BRANCH   2   3
HETATM    3  N   UNL     1     -10.495  11.583  66.261  1.00  0.00    -0.243 NA 
BRANCH   3   4
HETATM    4  C   UNL     1      -9.033  11.750  66.370  1.00  0.00    -0.201 C  
BRANCH   4   5
HETATM    5  C   UNL     1      -8.391  11.248  67.678  1.00  0.00    -0.123 C  
BRANCH   5   6
HETATM    6  C   UNL     1      -6.871  11.427  67.739  1.00  0.00    -0.075 C  
BRANCH   6   7
HETATM    7  C   UNL     1      -6.511  12.708  68.463  1.00  0.00    -0.074 A  
HETATM    8  C   UNL     1      -6.584  13.943  67.804  1.00  0.00    -0.186 A  
HETATM    9  C   UNL     1      -6.313  15.128  68.490  1.00  0.00    -0.092 A  
HETATM   10  C   UNL     1      -6.155  12.684  69.820  1.00  0.00    -0.134 A  
HETATM   11  C   UNL     1      -5.966  15.092  69.840  1.00  0.00    -0.136 A  
HETATM   12  C   UNL     1      -5.885  13.869  70.505  1.00  0.00    -0.178 A  
ENDBRANCH   6   7
ENDBRANCH   5   6
ENDBRANCH   4   5
ENDBRANCH   3   4
BRANCH   3  13
HETATM   13  C   UNL     1     -11.028  10.833  67.419  1.00  0.00    -0.300 C  
BRANCH  13  14
HETATM   14  C   UNL     1     -11.980  11.621  68.321  1.00  0.00    -0.236 C  
BRANCH  14  15
HETATM   15  C   UNL     1     -11.422  11.839  69.731  1.00  0.00    -0.320 C  
BRANCH  15  16
HETATM   16  C   UNL     1     -11.702  10.608  70.556  1.00  0.00    -0.451 A  
HETATM   17  C   UNL     1     -12.139   8.489  72.328  1.00  0.00    -0.455 A  
HETATM   18  C   UNL     1     -10.892   8.644  71.719  1.00  0.00    -0.395 A  
HETATM   19  C   UNL     1     -12.958  10.435  71.155  1.00  0.00    -0.506 A  
HETATM   20  C   UNL     1     -13.170   9.378  72.041  1.00  0.00    -0.529 A  
HETATM   21  C   UNL     1     -10.676   9.696  70.832  1.00  0.00    -0.402 A  
ENDBRANCH  15  16
ENDBRANCH  14  15
ENDBRANCH  13  14
ENDBRANCH   3  13
ENDBRANCH   2   3
TORSDOF 9
ENDMDL
MODEL      283
REMARK 921   NORMALIZED FREE ENERGY PREDICTED BY IDOCK:   -3.39 KCAL/MOL
REMARK 922        TOTAL FREE ENERGY PREDICTED BY IDOCK:   -6.69 KCAL/MOL
REMARK 923 INTER-LIGAND FREE ENERGY PREDICTED BY IDOCK:   -4.93 KCAL/MOL
REMARK 924 INTRA-LIGAND FREE ENERGY PREDICTED BY IDOCK:   -1.76 KCAL/MOL
REMARK 927      BINDING AFFINITY PREDICTED BY RF-SCORE:    0.00 PKD
ROOT
HETATM    1  C   UNL     1      -9.857  13.562  66.306  1.00  0.00    -0.306 C  
HETATM    2  C   UNL     1      -9.728  12.857  67.652  1.00  0.00    -0.212 C  
ENDROOT
BRANCH   2   3
HETATM    3  N   UNL     1      -9.330  11.431  67.598  1.00  0.00    -0.157 NA 
BRANCH   3   4
HETATM    4  C   UNL     1      -8.124  11.164  68.406  1.00  0.00    -0.141 C  
BRANCH   4   5
HETATM    5  C   UNL     1      -7.729   9.683  68.559  1.00  0.00    -0.081 C  
BRANCH   5   6
HETATM    6  C   UNL     1      -7.314   9.288  69.980  1.00  0.00    -0.083 C  
BRANCH   6   7
HETATM    7  C   UNL     1      -7.988   7.998  70.397  1.00  0.00    -0.103 A  
HETATM    8  C   UNL     1      -8.796   7.293  69.494  1.00  0.00    -0.137 A  
HETATM    9  C   UNL     1      -9.366   6.071  69.860  1.00  0.00    -0.165 A  
HETATM   10  C   UNL     1      -7.766   7.458  71.672  1.00  0.00    -0.086 A  
HETATM   11  C   UNL     1      -9.133   5.542  71.128  1.00  0.00    -0.159 A  
HETATM   12  C   UNL     1      -8.336   6.237  72.036  1.00  0.00    -0.110 A  
ENDBRANCH   6   7
ENDBRANCH   5   6
ENDBRANCH   4   5
ENDBRANCH   3   4
BRANCH   3  13
HETATM   13  C   UNL     1     -10.456  10.576  68.031  1.00  0.00    -0.197 C  
BRANCH  13  14
HETATM   14  C   UNL     1     -11.683  11.329  68.546  1.00  0.00    -0.378 C  
BRANCH  14  15
HETATM   15  C   UNL     1     -11.659  11.545  70.062  1.00  0.00    -0.364 C  
BRANCH  15  16
HETATM   16  C   UNL     1     -12.055  10.257  70.740  1.00  0.00    -0.451 A  
HETATM   17  C   UNL     1     -12.814   8.031  72.251  1.00  0.00    -0.213 A  
HETATM   18  C   UNL     1     -11.462   8.350  72.110  1.00  0.00    -0.442 A  
HETATM   19  C   UNL     1     -13.409   9.919  70.869  1.00  0.00    -0.256 A  
HETATM   20  C   UNL     1     -13.783   8.809  71.627  1.00  0.00    -0.437 A  
HETATM   21  C   UNL     1     -11.084   9.456  71.352  1.00  0.00    -0.450 A  
ENDBRANCH  15  16
ENDBRANCH  14  15
ENDBRANCH  13  14
ENDBRANCH   3  13
ENDBRANCH   2   3
TORSDOF 9
ENDMDL
MODEL      284
REMARK 921   NORMALIZED FREE ENERGY PREDICTED BY IDOCK:   -3.37 KCAL/MOL
REMARK 922        TOTAL FREE ENERGY PREDICTED BY IDOCK:   -6.67 KCAL/MOL
REMARK 923 INTER-LIGAND FREE ENERGY PREDICTED BY IDOCK:   -5.34 KCAL/MOL
REMARK 924 INTRA-LIGAND FREE ENERGY PREDICTED BY IDOCK:   -1.33 KCAL/MOL
REMARK 927      BINDING AFFINITY PREDICTED BY RF-SCORE:    0.00 PKD
ROOT
HETATM    1  C   UNL     1     -11.689  10.095  71.043  1.00  0.00    -0.470 C  
HETATM    2  C   UNL     1     -10.327   9.409  71.067  1.00  0.00    -0.312 C  
ENDROOT
BRANCH   2   3
HETATM    3  N   UNL     1      -9.600   9.371  69.777  1.00  0.00    -0.187 NA 
BRANCH   3   4
HETATM    4  C   UNL     1      -8.992   8.051  69.525  1.00  0.00    -0.148 C  
BRANCH   4   5
HETATM    5  C   UNL     1      -9.014   7.566  68.062  1.00  0.00    -0.129 C  
BRANCH   5   6
HETATM    6  C   UNL     1      -7.628   7.458  67.417  1.00  0.00    -0.112 C  
BRANCH   6   7
HETATM    7  C   UNL     1      -7.730   7.550  65.909  1.00  0.00    -0.099 A  
HETATM    8  C   UNL     1      -7.612   8.787  65.261  1.00  0.00    -0.091 A  
HETATM    9  C   UNL     1      -7.643   8.861  63.866  1.00  0.00    -0.121 A  
HETATM   10  C   UNL     1      -7.887   6.391  65.134  1.00  0.00    -0.111 A  
HETATM   11  C   UNL     1      -7.793   7.702  63.107  1.00  0.00    -0.134 A  
HETATM   12  C   UNL     1      -7.918   6.467  63.741  1.00  0.00    -0.086 A  
ENDBRANCH   6   7
ENDBRANCH   5   6
ENDBRANCH   4   5
ENDBRANCH   3   4
BRANCH   3  13
HETATM   13  C   UNL     1     -10.507   9.754  68.674  1.00  0.00    -0.208 C  
BRANCH  13  14
HETATM   14  C   UNL     1     -10.008  10.897  67.789  1.00  0.00    -0.198 C  
BRANCH  14  15
HETATM   15  C   UNL     1     -11.086  11.946  67.503  1.00  0.00    -0.332 C  
BRANCH  15  16
HETATM   16  C   UNL     1     -11.292  12.032  66.011  1.00  0.00    -0.398 A  
HETATM   17  C   UNL     1     -11.446  12.393  63.243  1.00  0.00    -0.426 A  
HETATM   18  C   UNL     1     -12.216  13.188  64.094  1.00  0.00    -0.465 A  
HETATM   19  C   UNL     1     -10.537  11.224  65.150  1.00  0.00    -0.343 A  
HETATM   20  C   UNL     1     -10.615  11.410  63.770  1.00  0.00    -0.464 A  
HETATM   21  C   UNL     1     -12.144  13.004  65.473  1.00  0.00    -0.501 A  
ENDBRANCH  15  16
ENDBRANCH  14  15
ENDBRANCH  13  14
ENDBRANCH   3  13
ENDBRANCH   2   3
TORSDOF 9
ENDMDL
MODEL      285
REMARK 921   NORMALIZED FREE ENERGY PREDICTED BY IDOCK:   -3.35 KCAL/MOL
REMARK 922        TOTAL FREE ENERGY PREDICTED BY IDOCK:   -6.63 KCAL/MOL
REMARK 923 INTER-LIGAND FREE ENERGY PREDICTED BY IDOCK:   -5.34 KCAL/MOL
REMARK 924 INTRA-LIGAND FREE ENERGY PREDICTED BY IDOCK:   -1.29 KCAL/MOL
REMARK 927      BINDING AFFINITY PREDICTED BY RF-SCORE:    0.00 PKD
ROOT
HETATM    1  C   UNL     1     -10.956   5.983  68.596  1.00  0.00    -0.361 C  
HETATM    2  C   UNL     1     -10.306   6.938  67.601  1.00  0.00    -0.205 C  
ENDROOT
BRANCH   2   3
HETATM    3  N   UNL     1      -9.608   8.105  68.186  1.00  0.00    -0.147 NA 
BRANCH   3   4
HETATM    4  C   UNL     1      -9.099   9.021  67.147  1.00  0.00    -0.137 C  
BRANCH   4   5
HETATM    5  C   UNL     1     -10.015   9.232  65.926  1.00  0.00    -0.289 C  
BRANCH   5   6
HETATM    6  C   UNL     1      -9.789  10.559  65.194  1.00  0.00    -0.359 C  
BRANCH   6   7
HETATM    7  C   UNL     1     -10.285  11.722  66.027  1.00  0.00    -0.265 A  
HETATM    8  C   UNL     1     -11.488  11.624  66.742  1.00  0.00    -0.299 A  
HETATM    9  C   UNL     1     -11.912  12.675  67.560  1.00  0.00    -0.314 A  
HETATM   10  C   UNL     1      -9.521  12.893  66.144  1.00  0.00    -0.161 A  
HETATM   11  C   UNL     1     -11.141  13.830  67.671  1.00  0.00    -0.292 A  
HETATM   12  C   UNL     1      -9.946  13.941  66.961  1.00  0.00    -0.258 A  
ENDBRANCH   6   7
ENDBRANCH   5   6
ENDBRANCH   4   5
ENDBRANCH   3   4
BRANCH   3  13
HETATM   13  C   UNL     1     -10.505   8.814  69.122  1.00  0.00    -0.217 C  
BRANCH  13  14
HETATM   14  C   UNL     1      -9.818   9.826  70.041  1.00  0.00    -0.295 C  
BRANCH  14  15
HETATM   15  C   UNL     1      -8.766   9.187  70.952  1.00  0.00    -0.277 C  
BRANCH  15  16
HETATM   16  C   UNL     1      -9.419   8.079  71.740  1.00  0.00    -0.223 A  
HETATM   17  C   UNL     1     -10.818   5.992  72.967  1.00  0.00    -0.290 A  
HETATM   18  C   UNL     1     -11.214   7.315  73.176  1.00  0.00    -0.263 A  
HETATM   19  C   UNL     1      -9.015   6.750  71.551  1.00  0.00    -0.137 A  
HETATM   20  C   UNL     1      -9.719   5.712  72.163  1.00  0.00    -0.178 A  
HETATM   21  C   UNL     1     -10.513   8.355  72.570  1.00  0.00    -0.372 A  
ENDBRANCH  15  16
ENDBRANCH  14  15
ENDBRANCH  13  14
ENDBRANCH   3  13
ENDBRANCH   2   3
TORSDOF 9
ENDMDL
MODEL      286
REMARK 921   NORMALIZED FREE ENERGY PREDICTED BY IDOCK:   -3.32 KCAL/MOL
REMARK 922        TOTAL FREE ENERGY PREDICTED BY IDOCK:   -6.58 KCAL/MOL
REMARK 923 INTER-LIGAND FREE ENERGY PREDICTED BY IDOCK:   -5.69 KCAL/MOL
REMARK 924 INTRA-LIGAND FREE ENERGY PREDICTED BY IDOCK:   -0.89 KCAL/MOL
REMARK 927      BINDING AFFINITY PREDICTED BY RF-SCORE:    0.00 PKD
ROOT
HETATM    1  C   UNL     1      -8.187   9.334  69.708  1.00  0.00    -0.131 C  
HETATM    2  C   UNL     1      -9.254   9.110  70.775  1.00  0.00    -0.262 C  
ENDROOT
BRANCH   2   3
HETATM    3  N   UNL     1      -9.812   7.740  70.851  1.00  0.00    -0.176 NA 
BRANCH   3   4
HETATM    4  C   UNL     1     -11.241   7.747  71.222  1.00  0.00    -0.255 C  
BRANCH   4   5
HETATM    5  C   UNL     1     -11.745   9.013  71.942  1.00  0.00    -0.445 C  
BRANCH   5   6
HETATM    6  C   UNL     1     -13.026   9.605  71.345  1.00  0.00    -0.474 C  
BRANCH   6   7
HETATM    7  C   UNL     1     -12.876  11.096  71.125  1.00  0.00    -0.473 A  
HETATM    8  C   UNL     1     -13.478  12.009  72.002  1.00  0.00    -0.364 A  
HETATM    9  C   UNL     1     -13.286  13.382  71.834  1.00  0.00    -0.539 A  
HETATM   10  C   UNL     1     -12.085  11.585  70.075  1.00  0.00    -0.408 A  
HETATM   11  C   UNL     1     -12.493  13.856  70.791  1.00  0.00    -0.445 A  
HETATM   12  C   UNL     1     -11.894  12.957  69.909  1.00  0.00    -0.373 A  
ENDBRANCH   6   7
ENDBRANCH   5   6
ENDBRANCH   4   5
ENDBRANCH   3   4
BRANCH   3  13
HETATM   13  C   UNL     1      -9.603   7.036  69.567  1.00  0.00    -0.153 C  
BRANCH  13  14
HETATM   14  C   UNL     1     -10.500   5.818  69.341  1.00  0.00    -0.360 C  
BRANCH  14  15
HETATM   15  C   UNL     1      -9.759   4.644  68.694  1.00  0.00    -0.217 C  
BRANCH  15  16
HETATM   16  C   UNL     1      -9.019   3.889  69.769  1.00  0.00    -0.167 A  
HETATM   17  C   UNL     1      -7.687   2.241  71.593  1.00  0.00    -0.041 A  
HETATM   18  C   UNL     1      -9.061   2.455  71.720  1.00  0.00    -0.147 A  
HETATM   19  C   UNL     1      -7.636   3.686  69.659  1.00  0.00    -0.051 A  
HETATM   20  C   UNL     1      -6.977   2.860  70.570  1.00  0.00    -0.033 A  
HETATM   21  C   UNL     1      -9.723   3.280  70.815  1.00  0.00    -0.173 A  
ENDBRANCH  15  16
ENDBRANCH  14  15
ENDBRANCH  13  14
ENDBRANCH   3  13
ENDBRANCH   2   3
TORSDOF 9
ENDMDL
MODEL      287
REMARK 921   NORMALIZED FREE ENERGY PREDICTED BY IDOCK:   -3.31 KCAL/MOL
REMARK 922        TOTAL FREE ENERGY PREDICTED BY IDOCK:   -6.57 KCAL/MOL
REMARK 923 INTER-LIGAND FREE ENERGY PREDICTED BY IDOCK:   -5.47 KCAL/MOL
REMARK 924 INTRA-LIGAND FREE ENERGY PREDICTED BY IDOCK:   -1.10 KCAL/MOL
REMARK 927      BINDING AFFINITY PREDICTED BY RF-SCORE:    0.00 PKD
ROOT
HETATM    1  C   UNL     1      -8.864   9.464  64.813  1.00  0.00    -0.243 C  
HETATM    2  C   UNL     1      -8.938   8.104  65.499  1.00  0.00    -0.032 C  
ENDROOT
BRANCH   2   3
HETATM    3  N   UNL     1      -9.553   8.092  66.846  1.00  0.00    -0.190 NA 
BRANCH   3   4
HETATM    4  C   UNL     1      -9.641   6.727  67.400  1.00  0.00    -0.134 C  
BRANCH   4   5
HETATM    5  C   UNL     1     -10.907   6.413  68.221  1.00  0.00    -0.384 C  
BRANCH   5   6
HETATM    6  C   UNL     1     -10.667   5.475  69.409  1.00  0.00    -0.312 C  
BRANCH   6   7
HETATM    7  C   UNL     1     -10.690   6.245  70.712  1.00  0.00    -0.312 A  
HETATM    8  C   UNL     1     -11.465   7.407  70.839  1.00  0.00    -0.311 A  
HETATM    9  C   UNL     1     -11.535   8.080  72.061  1.00  0.00    -0.364 A  
HETATM   10  C   UNL     1      -9.984   5.776  71.829  1.00  0.00    -0.209 A  
HETATM   11  C   UNL     1     -10.833   7.601  73.166  1.00  0.00    -0.440 A  
HETATM   12  C   UNL     1     -10.055   6.450  73.050  1.00  0.00    -0.203 A  
ENDBRANCH   6   7
ENDBRANCH   5   6
ENDBRANCH   4   5
ENDBRANCH   3   4
BRANCH   3  13
HETATM   13  C   UNL     1      -8.798   8.983  67.754  1.00  0.00    -0.124 C  
BRANCH  13  14
HETATM   14  C   UNL     1      -9.644  10.010  68.508  1.00  0.00    -0.157 C  
BRANCH  14  15
HETATM   15  C   UNL     1      -9.039  11.417  68.481  1.00  0.00    -0.169 C  
BRANCH  15  16
HETATM   16  C   UNL     1     -10.099  12.390  68.032  1.00  0.00    -0.214 A  
HETATM   17  C   UNL     1     -11.875  14.414  67.280  1.00  0.00    -0.434 A  
HETATM   18  C   UNL     1     -11.918  13.894  68.575  1.00  0.00    -0.394 A  
HETATM   19  C   UNL     1     -10.075  12.902  66.728  1.00  0.00    -0.238 A  
HETATM   20  C   UNL     1     -10.961  13.914  66.358  1.00  0.00    -0.303 A  
HETATM   21  C   UNL     1     -11.037  12.882  68.948  1.00  0.00    -0.301 A  
ENDBRANCH  15  16
ENDBRANCH  14  15
ENDBRANCH  13  14
ENDBRANCH   3  13
ENDBRANCH   2   3
TORSDOF 9
ENDMDL
MODEL      288
REMARK 921   NORMALIZED FREE ENERGY PREDICTED BY IDOCK:   -3.30 KCAL/MOL
REMARK 922        TOTAL FREE ENERGY PREDICTED BY IDOCK:   -6.56 KCAL/MOL
REMARK 923 INTER-LIGAND FREE ENERGY PREDICTED BY IDOCK:   -6.13 KCAL/MOL
REMARK 924 INTRA-LIGAND FREE ENERGY PREDICTED BY IDOCK:   -0.43 KCAL/MOL
REMARK 927      BINDING AFFINITY PREDICTED BY RF-SCORE:    0.00 PKD
ROOT
HETATM    1  C   UNL     1     -11.793   9.933  71.245  1.00  0.00    -0.479 C  
HETATM    2  C   UNL     1     -10.832  10.223  70.097  1.00  0.00    -0.302 C  
ENDROOT
BRANCH   2   3
HETATM    3  N   UNL     1     -10.333   9.040  69.358  1.00  0.00    -0.208 NA 
BRANCH   3   4
HETATM    4  C   UNL     1     -11.035   7.804  69.757  1.00  0.00    -0.158 C  
BRANCH   4   5
HETATM    5  C   UNL     1     -10.473   6.492  69.175  1.00  0.00    -0.260 C  
BRANCH   5   6
HETATM    6  C   UNL     1     -11.018   6.138  67.788  1.00  0.00    -0.400 C  
BRANCH   6   7
HETATM    7  C   UNL     1     -10.246   4.981  67.188  1.00  0.00    -0.234 A  
HETATM    8  C   UNL     1      -9.506   4.117  68.009  1.00  0.00    -0.215 A  
HETATM    9  C   UNL     1      -8.847   3.014  67.461  1.00  0.00    -0.163 A  
HETATM   10  C   UNL     1     -10.308   4.721  65.811  1.00  0.00    -0.268 A  
HETATM   11  C   UNL     1      -8.920   2.763  66.092  1.00  0.00    -0.145 A  
HETATM   12  C   UNL     1      -9.649   3.619  65.266  1.00  0.00    -0.160 A  
ENDBRANCH   6   7
ENDBRANCH   5   6
ENDBRANCH   4   5
ENDBRANCH   3   4
BRANCH   3  13
HETATM   13  C   UNL     1     -10.451   9.268  67.902  1.00  0.00    -0.236 C  
BRANCH  13  14
HETATM   14  C   UNL     1     -10.867  10.683  67.497  1.00  0.00    -0.351 C  
BRANCH  14  15
HETATM   15  C   UNL     1      -9.849  11.363  66.576  1.00  0.00    -0.237 C  
BRANCH  15  16
HETATM   16  C   UNL     1     -10.551  12.450  65.801  1.00  0.00    -0.288 A  
HETATM   17  C   UNL     1     -12.098  14.398  64.525  1.00  0.00    -0.498 A  
HETATM   18  C   UNL     1     -12.021  13.109  63.993  1.00  0.00    -0.524 A  
HETATM   19  C   UNL     1     -10.617  13.751  66.319  1.00  0.00    -0.289 A  
HETATM   20  C   UNL     1     -11.393  14.719  65.680  1.00  0.00    -0.343 A  
HETATM   21  C   UNL     1     -11.245  12.141  64.625  1.00  0.00    -0.374 A  
ENDBRANCH  15  16
ENDBRANCH  14  15
ENDBRANCH  13  14
ENDBRANCH   3  13
ENDBRANCH   2   3
TORSDOF 9
ENDMDL
MODEL      289
REMARK 921   NORMALIZED FREE ENERGY PREDICTED BY IDOCK:   -3.28 KCAL/MOL
REMARK 922        TOTAL FREE ENERGY PREDICTED BY IDOCK:   -6.52 KCAL/MOL
REMARK 923 INTER-LIGAND FREE ENERGY PREDICTED BY IDOCK:   -5.73 KCAL/MOL
REMARK 924 INTRA-LIGAND FREE ENERGY PREDICTED BY IDOCK:   -0.80 KCAL/MOL
REMARK 927      BINDING AFFINITY PREDICTED BY RF-SCORE:    0.00 PKD
ROOT
HETATM    1  C   UNL     1     -11.271  10.269  67.865  1.00  0.00    -0.290 C  
HETATM    2  C   UNL     1      -9.991  10.748  68.541  1.00  0.00    -0.178 C  
ENDROOT
BRANCH   2   3
HETATM    3  N   UNL     1      -8.777  10.758  67.692  1.00  0.00    -0.126 NA 
BRANCH   3   4
HETATM    4  C   UNL     1      -8.724  11.947  66.820  1.00  0.00    -0.193 C  
BRANCH   4   5
HETATM    5  C   UNL     1      -8.455  13.291  67.526  1.00  0.00    -0.202 C  
BRANCH   5   6
HETATM    6  C   UNL     1      -9.722  14.028  67.973  1.00  0.00    -0.221 C  
BRANCH   6   7
HETATM    7  C   UNL     1     -10.630  14.297  66.792  1.00  0.00    -0.278 A  
HETATM    8  C   UNL     1     -10.231  15.173  65.772  1.00  0.00    -0.365 A  
HETATM    9  C   UNL     1     -11.043  15.371  64.652  1.00  0.00    -0.361 A  
HETATM   10  C   UNL     1     -11.858  13.630  66.671  1.00  0.00    -0.447 A  
HETATM   11  C   UNL     1     -12.258  14.698  64.541  1.00  0.00    -0.473 A  
HETATM   12  C   UNL     1     -12.668  13.829  65.552  1.00  0.00    -0.530 A  
ENDBRANCH   6   7
ENDBRANCH   5   6
ENDBRANCH   4   5
ENDBRANCH   3   4
BRANCH   3  13
HETATM   13  C   UNL     1      -7.568  10.668  68.538  1.00  0.00    -0.097 C  
BRANCH  13  14
HETATM   14  C   UNL     1      -7.804  10.144  69.955  1.00  0.00    -0.164 C  
BRANCH  14  15
HETATM   15  C   UNL     1      -7.989   8.624  70.006  1.00  0.00    -0.106 C  
BRANCH  15  16
HETATM   16  C   UNL     1      -8.970   8.294  71.103  1.00  0.00    -0.192 A  
HETATM   17  C   UNL     1     -10.679   7.400  73.127  1.00  0.00    -0.436 A  
HETATM   18  C   UNL     1     -11.091   7.350  71.794  1.00  0.00    -0.269 A  
HETATM   19  C   UNL     1      -8.571   8.360  72.445  1.00  0.00    -0.261 A  
HETATM   20  C   UNL     1      -9.426   7.910  73.451  1.00  0.00    -0.341 A  
HETATM   21  C   UNL     1     -10.242   7.801  70.786  1.00  0.00    -0.200 A  
ENDBRANCH  15  16
ENDBRANCH  14  15
ENDBRANCH  13  14
ENDBRANCH   3  13
ENDBRANCH   2   3
TORSDOF 9
ENDMDL
MODEL      290
REMARK 921   NORMALIZED FREE ENERGY PREDICTED BY IDOCK:   -3.26 KCAL/MOL
REMARK 922        TOTAL FREE ENERGY PREDICTED BY IDOCK:   -6.50 KCAL/MOL
REMARK 923 INTER-LIGAND FREE ENERGY PREDICTED BY IDOCK:   -5.95 KCAL/MOL
REMARK 924 INTRA-LIGAND FREE ENERGY PREDICTED BY IDOCK:   -0.54 KCAL/MOL
REMARK 927      BINDING AFFINITY PREDICTED BY RF-SCORE:    0.00 PKD
ROOT
HETATM    1  C   UNL     1      -7.945  11.964  67.413  1.00  0.00    -0.162 C  
HETATM    2  C   UNL     1      -9.173  11.065  67.498  1.00  0.00    -0.145 C  
ENDROOT
BRANCH   2   3
HETATM    3  N   UNL     1      -9.589  10.418  66.232  1.00  0.00    -0.175 NA 
BRANCH   3   4
HETATM    4  C   UNL     1     -10.143   9.069  66.458  1.00  0.00    -0.283 C  
BRANCH   4   5
HETATM    5  C   UNL     1     -10.118   8.564  67.914  1.00  0.00    -0.258 C  
BRANCH   5   6
HETATM    6  C   UNL     1     -11.067   9.314  68.854  1.00  0.00     0.042 C  
BRANCH   6   7
HETATM    7  C   UNL     1     -10.878   8.856  70.285  1.00  0.00    -0.265 A  
HETATM    8  C   UNL     1     -11.939   8.268  70.989  1.00  0.00    -0.260 A  
HETATM    9  C   UNL     1     -11.745   7.788  72.287  1.00  0.00    -0.390 A  
HETATM   10  C   UNL     1      -9.625   8.958  70.906  1.00  0.00    -0.298 A  
HETATM   11  C   UNL     1     -10.494   7.890  72.892  1.00  0.00    -0.422 A  
HETATM   12  C   UNL     1      -9.434   8.478  72.203  1.00  0.00    -0.375 A  
ENDBRANCH   6   7
ENDBRANCH   5   6
ENDBRANCH   4   5
ENDBRANCH   3   4
BRANCH   3  13
HETATM   13  C   UNL     1     -10.561  11.276  65.522  1.00  0.00    -0.246 C  
BRANCH  13  14
HETATM   14  C   UNL     1     -11.430  12.156  66.421  1.00  0.00    -0.430 C  
BRANCH  14  15
HETATM   15  C   UNL     1     -11.947  13.410  65.710  1.00  0.00    -0.447 C  
BRANCH  15  16
HETATM   16  C   UNL     1     -11.129  14.594  66.161  1.00  0.00    -0.334 A  
HETATM   17  C   UNL     1      -9.874  16.918  67.077  1.00  0.00    -0.270 A  
HETATM   18  C   UNL     1     -10.257  16.813  65.738  1.00  0.00    -0.311 A  
HETATM   19  C   UNL     1     -10.724  14.698  67.499  1.00  0.00    -0.268 A  
HETATM   20  C   UNL     1     -10.100  15.861  67.952  1.00  0.00    -0.235 A  
HETATM   21  C   UNL     1     -10.877  15.653  65.281  1.00  0.00    -0.420 A  
ENDBRANCH  15  16
ENDBRANCH  14  15
ENDBRANCH  13  14
ENDBRANCH   3  13
ENDBRANCH   2   3
TORSDOF 9
ENDMDL
MODEL      291
REMARK 921   NORMALIZED FREE ENERGY PREDICTED BY IDOCK:   -3.23 KCAL/MOL
REMARK 922        TOTAL FREE ENERGY PREDICTED BY IDOCK:   -6.45 KCAL/MOL
REMARK 923 INTER-LIGAND FREE ENERGY PREDICTED BY IDOCK:   -4.77 KCAL/MOL
REMARK 924 INTRA-LIGAND FREE ENERGY PREDICTED BY IDOCK:   -1.67 KCAL/MOL
REMARK 927      BINDING AFFINITY PREDICTED BY RF-SCORE:    0.00 PKD
ROOT
HETATM    1  C   UNL     1      -6.499  12.872  69.195  1.00  0.00    -0.108 C  
HETATM    2  C   UNL     1      -6.926  11.420  69.007  1.00  0.00    -0.106 C  
ENDROOT
BRANCH   2   3
HETATM    3  N   UNL     1      -7.033  10.955  67.605  1.00  0.00    -0.080 NA 
BRANCH   3   4
HETATM    4  C   UNL     1      -6.321   9.680  67.391  1.00  0.00    -0.068 C  
BRANCH   4   5
HETATM    5  C   UNL     1      -6.554   8.590  68.455  1.00  0.00    -0.059 C  
BRANCH   5   6
HETATM    6  C   UNL     1      -6.943   7.225  67.880  1.00  0.00    -0.076 C  
BRANCH   6   7
HETATM    7  C   UNL     1      -8.433   6.988  68.019  1.00  0.00    -0.125 A  
HETATM    8  C   UNL     1      -9.012   6.823  69.285  1.00  0.00    -0.137 A  
HETATM    9  C   UNL     1     -10.394   6.668  69.416  1.00  0.00    -0.228 A  
HETATM   10  C   UNL     1      -9.263   6.991  66.889  1.00  0.00    -0.174 A  
HETATM   11  C   UNL     1     -11.209   6.678  68.286  1.00  0.00    -0.208 A  
HETATM   12  C   UNL     1     -10.644   6.836  67.021  1.00  0.00    -0.405 A  
ENDBRANCH   6   7
ENDBRANCH   5   6
ENDBRANCH   4   5
ENDBRANCH   3   4
BRANCH   3  13
HETATM   13  C   UNL     1      -8.455  10.837  67.218  1.00  0.00    -0.124 C  
BRANCH  13  14
HETATM   14  C   UNL     1      -9.428  10.621  68.379  1.00  0.00    -0.165 C  
BRANCH  14  15
HETATM   15  C   UNL     1     -10.881  10.469  67.919  1.00  0.00    -0.333 C  
BRANCH  15  16
HETATM   16  C   UNL     1     -11.376  11.808  67.433  1.00  0.00    -0.376 A  
HETATM   17  C   UNL     1     -12.003  14.371  66.507  1.00  0.00    -0.406 A  
HETATM   18  C   UNL     1     -11.887  14.133  67.878  1.00  0.00    -0.405 A  
HETATM   19  C   UNL     1     -11.513  12.049  66.059  1.00  0.00    -0.399 A  
HETATM   20  C   UNL     1     -11.824  13.331  65.602  1.00  0.00    -0.419 A  
HETATM   21  C   UNL     1     -11.581  12.855  68.340  1.00  0.00    -0.369 A  
ENDBRANCH  15  16
ENDBRANCH  14  15
ENDBRANCH  13  14
ENDBRANCH   3  13
ENDBRANCH   2   3
TORSDOF 9
ENDMDL
MODEL      292
REMARK 921   NORMALIZED FREE ENERGY PREDICTED BY IDOCK:   -3.23 KCAL/MOL
REMARK 922        TOTAL FREE ENERGY PREDICTED BY IDOCK:   -6.44 KCAL/MOL
REMARK 923 INTER-LIGAND FREE ENERGY PREDICTED BY IDOCK:   -5.48 KCAL/MOL
REMARK 924 INTRA-LIGAND FREE ENERGY PREDICTED BY IDOCK:   -0.96 KCAL/MOL
REMARK 927      BINDING AFFINITY PREDICTED BY RF-SCORE:    0.00 PKD
ROOT
HETATM    1  C   UNL     1      -6.769   9.687  70.618  1.00  0.00    -0.116 C  
HETATM    2  C   UNL     1      -7.073  10.208  69.218  1.00  0.00    -0.076 C  
ENDROOT
BRANCH   2   3
HETATM    3  N   UNL     1      -8.389   9.824  68.657  1.00  0.00    -0.109 NA 
BRANCH   3   4
HETATM    4  C   UNL     1      -8.362   9.760  67.183  1.00  0.00    -0.121 C  
BRANCH   4   5
HETATM    5  C   UNL     1      -8.938  10.983  66.443  1.00  0.00    -0.190 C  
BRANCH   5   6
HETATM    6  C   UNL     1     -10.465  10.979  66.320  1.00  0.00    -0.310 C  
BRANCH   6   7
HETATM    7  C   UNL     1     -10.956  12.262  65.683  1.00  0.00    -0.338 A  
HETATM    8  C   UNL     1     -12.270  12.363  65.206  1.00  0.00    -0.418 A  
HETATM    9  C   UNL     1     -12.740  13.568  64.677  1.00  0.00    -0.225 A  
HETATM   10  C   UNL     1     -10.121  13.387  65.614  1.00  0.00    -0.285 A  
HETATM   11  C   UNL     1     -11.903  14.680  64.619  1.00  0.00    -0.459 A  
HETATM   12  C   UNL     1     -10.592  14.590  65.085  1.00  0.00    -0.429 A  
ENDBRANCH   6   7
ENDBRANCH   5   6
ENDBRANCH   4   5
ENDBRANCH   3   4
BRANCH   3  13
HETATM   13  C   UNL     1      -8.827   8.535  69.234  1.00  0.00    -0.142 C  
BRANCH  13  14
HETATM   14  C   UNL     1     -10.261   8.515  69.765  1.00  0.00    -0.206 C  
BRANCH  14  15
HETATM   15  C   UNL     1     -10.399   9.182  71.137  1.00  0.00    -0.387 C  
BRANCH  15  16
HETATM   16  C   UNL     1     -10.171   8.142  72.205  1.00  0.00    -0.330 A  
HETATM   17  C   UNL     1      -9.922   6.385  74.365  1.00  0.00    -0.362 A  
HETATM   18  C   UNL     1      -8.990   7.410  74.188  1.00  0.00    -0.270 A  
HETATM   19  C   UNL     1     -11.091   7.099  72.377  1.00  0.00    -0.302 A  
HETATM   20  C   UNL     1     -10.964   6.226  73.458  1.00  0.00    -0.105 A  
HETATM   21  C   UNL     1      -9.111   8.282  73.109  1.00  0.00    -0.305 A  
ENDBRANCH  15  16
ENDBRANCH  14  15
ENDBRANCH  13  14
ENDBRANCH   3  13
ENDBRANCH   2   3
TORSDOF 9
ENDMDL
MODEL      293
REMARK 921   NORMALIZED FREE ENERGY PREDICTED BY IDOCK:   -3.21 KCAL/MOL
REMARK 922        TOTAL FREE ENERGY PREDICTED BY IDOCK:   -6.42 KCAL/MOL
REMARK 923 INTER-LIGAND FREE ENERGY PREDICTED BY IDOCK:   -5.27 KCAL/MOL
REMARK 924 INTRA-LIGAND FREE ENERGY PREDICTED BY IDOCK:   -1.14 KCAL/MOL
REMARK 927      BINDING AFFINITY PREDICTED BY RF-SCORE:    0.00 PKD
ROOT
HETATM    1  C   UNL     1     -11.153   6.684  67.237  1.00  0.00    -0.418 C  
HETATM    2  C   UNL     1     -10.509   6.706  68.619  1.00  0.00    -0.211 C  
ENDROOT
BRANCH   2   3
HETATM    3  N   UNL     1     -10.931   5.631  69.545  1.00  0.00    -0.294 NA 
BRANCH   3   4
HETATM    4  C   UNL     1      -9.827   4.699  69.849  1.00  0.00    -0.226 C  
BRANCH   4   5
HETATM    5  C   UNL     1      -8.918   4.321  68.663  1.00  0.00    -0.156 C  
BRANCH   5   6
HETATM    6  C   UNL     1      -7.494   4.877  68.763  1.00  0.00    -0.065 C  
BRANCH   6   7
HETATM    7  C   UNL     1      -7.339   6.113  67.901  1.00  0.00    -0.084 A  
HETATM    8  C   UNL     1      -7.417   6.020  66.504  1.00  0.00    -0.090 A  
HETATM    9  C   UNL     1      -7.337   7.169  65.713  1.00  0.00    -0.075 A  
HETATM   10  C   UNL     1      -7.174   7.376  68.488  1.00  0.00    -0.087 A  
HETATM   11  C   UNL     1      -7.179   8.419  66.309  1.00  0.00    -0.078 A  
HETATM   12  C   UNL     1      -7.094   8.522  67.697  1.00  0.00    -0.080 A  
ENDBRANCH   6   7
ENDBRANCH   5   6
ENDBRANCH   4   5
ENDBRANCH   3   4
BRANCH   3  13
HETATM   13  C   UNL     1     -11.482   6.219  70.785  1.00  0.00    -0.316 C  
BRANCH  13  14
HETATM   14  C   UNL     1     -10.442   6.784  71.754  1.00  0.00    -0.228 C  
BRANCH  14  15
HETATM   15  C   UNL     1     -10.988   7.927  72.616  1.00  0.00    -0.440 C  
BRANCH  15  16
HETATM   16  C   UNL     1     -11.368   9.073  71.713  1.00  0.00    -0.447 A  
HETATM   17  C   UNL     1     -12.160  10.990  69.837  1.00  0.00    -0.435 A  
HETATM   18  C   UNL     1     -10.844  10.522  69.844  1.00  0.00    -0.334 A  
HETATM   19  C   UNL     1     -12.682   9.561  71.713  1.00  0.00    -0.492 A  
HETATM   20  C   UNL     1     -13.073  10.515  70.773  1.00  0.00    -0.335 A  
HETATM   21  C   UNL     1     -10.448   9.572  70.783  1.00  0.00    -0.384 A  
ENDBRANCH  15  16
ENDBRANCH  14  15
ENDBRANCH  13  14
ENDBRANCH   3  13
ENDBRANCH   2   3
TORSDOF 9
ENDMDL
MODEL      294
REMARK 921   NORMALIZED FREE ENERGY PREDICTED BY IDOCK:   -3.19 KCAL/MOL
REMARK 922        TOTAL FREE ENERGY PREDICTED BY IDOCK:   -6.39 KCAL/MOL
REMARK 923 INTER-LIGAND FREE ENERGY PREDICTED BY IDOCK:   -5.15 KCAL/MOL
REMARK 924 INTRA-LIGAND FREE ENERGY PREDICTED BY IDOCK:   -1.25 KCAL/MOL
REMARK 927      BINDING AFFINITY PREDICTED BY RF-SCORE:    0.00 PKD
ROOT
HETATM    1  C   UNL     1     -12.157  11.031  69.209  1.00  0.00    -0.363 C  
HETATM    2  C   UNL     1     -10.746  11.563  68.987  1.00  0.00    -0.193 C  
ENDROOT
BRANCH   2   3
HETATM    3  N   UNL     1     -10.114  11.200  67.697  1.00  0.00    -0.176 NA 
BRANCH   3   4
HETATM    4  C   UNL     1     -10.110  12.330  66.747  1.00  0.00    -0.209 C  
BRANCH   4   5
HETATM    5  C   UNL     1      -9.995  13.735  67.370  1.00  0.00    -0.237 C  
BRANCH   5   6
HETATM    6  C   UNL     1      -9.189  14.729  66.528  1.00  0.00    -0.304 C  
BRANCH   6   7
HETATM    7  C   UNL     1      -8.739  15.904  67.370  1.00  0.00    -0.197 A  
HETATM    8  C   UNL     1      -7.375  16.149  67.580  1.00  0.00    -0.164 A  
HETATM    9  C   UNL     1      -6.961  17.270  68.304  1.00  0.00    -0.186 A  
HETATM   10  C   UNL     1      -9.679  16.799  67.903  1.00  0.00    -0.245 A  
HETATM   11  C   UNL     1      -7.903  18.155  68.824  1.00  0.00    -0.268 A  
HETATM   12  C   UNL     1      -9.263  17.918  68.626  1.00  0.00    -0.269 A  
ENDBRANCH   6   7
ENDBRANCH   5   6
ENDBRANCH   4   5
ENDBRANCH   3   4
BRANCH   3  13
HETATM   13  C   UNL     1      -8.742  10.700  67.930  1.00  0.00    -0.127 C  
BRANCH  13  14
HETATM   14  C   UNL     1      -8.433  10.298  69.372  1.00  0.00    -0.170 C  
BRANCH  14  15
HETATM   15  C   UNL     1      -8.357   8.780  69.566  1.00  0.00    -0.119 C  
BRANCH  15  16
HETATM   16  C   UNL     1      -9.568   8.332  70.345  1.00  0.00    -0.174 A  
HETATM   17  C   UNL     1     -11.972   7.700  71.625  1.00  0.00    -0.329 A  
HETATM   18  C   UNL     1     -11.146   8.699  72.145  1.00  0.00    -0.434 A  
HETATM   19  C   UNL     1     -10.392   7.318  69.839  1.00  0.00    -0.226 A  
HETATM   20  C   UNL     1     -11.592   7.008  70.480  1.00  0.00    -0.364 A  
HETATM   21  C   UNL     1      -9.945   9.009  71.511  1.00  0.00    -0.391 A  
ENDBRANCH  15  16
ENDBRANCH  14  15
ENDBRANCH  13  14
ENDBRANCH   3  13
ENDBRANCH   2   3
TORSDOF 9
ENDMDL
MODEL      295
REMARK 921   NORMALIZED FREE ENERGY PREDICTED BY IDOCK:   -3.19 KCAL/MOL
REMARK 922        TOTAL FREE ENERGY PREDICTED BY IDOCK:   -6.39 KCAL/MOL
REMARK 923 INTER-LIGAND FREE ENERGY PREDICTED BY IDOCK:   -5.56 KCAL/MOL
REMARK 924 INTRA-LIGAND FREE ENERGY PREDICTED BY IDOCK:   -0.82 KCAL/MOL
REMARK 927      BINDING AFFINITY PREDICTED BY RF-SCORE:    0.00 PKD
ROOT
HETATM    1  C   UNL     1      -7.916  10.712  68.982  1.00  0.00    -0.140 C  
HETATM    2  C   UNL     1      -9.422  10.911  68.856  1.00  0.00    -0.172 C  
ENDROOT
BRANCH   2   3
HETATM    3  N   UNL     1     -10.227   9.676  68.706  1.00  0.00    -0.189 NA 
BRANCH   3   4
HETATM    4  C   UNL     1     -11.257   9.558  69.756  1.00  0.00    -0.144 C  
BRANCH   4   5
HETATM    5  C   UNL     1     -11.309  10.706  70.783  1.00  0.00    -0.195 C  
BRANCH   5   6
HETATM    6  C   UNL     1     -12.724  11.075  71.240  1.00  0.00    -0.537 C  
BRANCH   6   7
HETATM    7  C   UNL     1     -12.892  12.579  71.305  1.00  0.00    -0.337 A  
HETATM    8  C   UNL     1     -12.108  13.418  70.501  1.00  0.00    -0.399 A  
HETATM    9  C   UNL     1     -12.308  14.801  70.516  1.00  0.00    -0.398 A  
HETATM   10  C   UNL     1     -13.874  13.151  72.128  1.00  0.00    -0.506 A  
HETATM   11  C   UNL     1     -13.291  15.357  71.333  1.00  0.00    -0.601 A  
HETATM   12  C   UNL     1     -14.072  14.532  72.142  1.00  0.00    -0.616 A  
ENDBRANCH   6   7
ENDBRANCH   5   6
ENDBRANCH   4   5
ENDBRANCH   3   4
BRANCH   3  13
HETATM   13  C   UNL     1     -10.836   9.630  67.360  1.00  0.00    -0.172 C  
BRANCH  13  14
HETATM   14  C   UNL     1      -9.882   9.933  66.204  1.00  0.00    -0.324 C  
BRANCH  14  15
HETATM   15  C   UNL     1      -9.376   8.670  65.501  1.00  0.00    -0.105 C  
BRANCH  15  16
HETATM   16  C   UNL     1      -8.128   9.014  64.728  1.00  0.00    -0.144 A  
HETATM   17  C   UNL     1      -5.665   9.470  63.484  1.00  0.00    -0.090 A  
HETATM   18  C   UNL     1      -6.087  10.303  64.523  1.00  0.00    -0.126 A  
HETATM   19  C   UNL     1      -7.707   8.195  63.671  1.00  0.00    -0.143 A  
HETATM   20  C   UNL     1      -6.476   8.425  63.056  1.00  0.00    -0.086 A  
HETATM   21  C   UNL     1      -7.317  10.079  65.139  1.00  0.00    -0.139 A  
ENDBRANCH  15  16
ENDBRANCH  14  15
ENDBRANCH  13  14
ENDBRANCH   3  13
ENDBRANCH   2   3
TORSDOF 9
ENDMDL
MODEL      296
REMARK 921   NORMALIZED FREE ENERGY PREDICTED BY IDOCK:   -3.18 KCAL/MOL
REMARK 922        TOTAL FREE ENERGY PREDICTED BY IDOCK:   -6.37 KCAL/MOL
REMARK 923 INTER-LIGAND FREE ENERGY PREDICTED BY IDOCK:   -5.60 KCAL/MOL
REMARK 924 INTRA-LIGAND FREE ENERGY PREDICTED BY IDOCK:   -0.77 KCAL/MOL
REMARK 927      BINDING AFFINITY PREDICTED BY RF-SCORE:    0.00 PKD
ROOT
HETATM    1  C   UNL     1     -13.076  12.904  71.774  1.00  0.00    -0.458 C  
HETATM    2  C   UNL     1     -12.848  11.955  70.603  1.00  0.00     0.025 C  
ENDROOT
BRANCH   2   3
HETATM    3  N   UNL     1     -11.467  11.905  70.072  1.00  0.00    -0.197 NA 
BRANCH   3   4
HETATM    4  C   UNL     1     -11.178  10.619  69.407  1.00  0.00    -0.270 C  
BRANCH   4   5
HETATM    5  C   UNL     1     -10.446   9.567  70.262  1.00  0.00    -0.319 C  
BRANCH   5   6
HETATM    6  C   UNL     1     -10.638   8.125  69.782  1.00  0.00    -0.231 C  
BRANCH   6   7
HETATM    7  C   UNL     1      -9.783   7.846  68.564  1.00  0.00    -0.167 A  
HETATM    8  C   UNL     1     -10.016   6.711  67.775  1.00  0.00    -0.158 A  
HETATM    9  C   UNL     1      -9.267   6.489  66.616  1.00  0.00    -0.172 A  
HETATM   10  C   UNL     1      -8.783   8.749  68.174  1.00  0.00    -0.134 A  
HETATM   11  C   UNL     1      -8.281   7.397  66.236  1.00  0.00    -0.126 A  
HETATM   12  C   UNL     1      -8.036   8.526  67.016  1.00  0.00    -0.100 A  
ENDBRANCH   6   7
ENDBRANCH   5   6
ENDBRANCH   4   5
ENDBRANCH   3   4
BRANCH   3  13
HETATM   13  C   UNL     1     -11.237  13.038  69.151  1.00  0.00    -0.241 C  
BRANCH  13  14
HETATM   14  C   UNL     1     -12.200  13.117  67.965  1.00  0.00    -0.091 C  
BRANCH  14  15
HETATM   15  C   UNL     1     -11.706  14.051  66.856  1.00  0.00    -0.435 C  
BRANCH  15  16
HETATM   16  C   UNL     1     -11.424  13.229  65.623  1.00  0.00    -0.342 A  
HETATM   17  C   UNL     1     -11.039  11.476  63.479  1.00  0.00    -0.434 A  
HETATM   18  C   UNL     1     -10.067  11.582  64.476  1.00  0.00    -0.324 A  
HETATM   19  C   UNL     1     -12.386  13.132  64.608  1.00  0.00    -0.463 A  
HETATM   20  C   UNL     1     -12.190  12.253  63.542  1.00  0.00    -0.669 A  
HETATM   21  C   UNL     1     -10.256  12.460  65.541  1.00  0.00    -0.297 A  
ENDBRANCH  15  16
ENDBRANCH  14  15
ENDBRANCH  13  14
ENDBRANCH   3  13
ENDBRANCH   2   3
TORSDOF 9
ENDMDL
MODEL      297
REMARK 921   NORMALIZED FREE ENERGY PREDICTED BY IDOCK:   -3.17 KCAL/MOL
REMARK 922        TOTAL FREE ENERGY PREDICTED BY IDOCK:   -6.36 KCAL/MOL
REMARK 923 INTER-LIGAND FREE ENERGY PREDICTED BY IDOCK:   -4.97 KCAL/MOL
REMARK 924 INTRA-LIGAND FREE ENERGY PREDICTED BY IDOCK:   -1.39 KCAL/MOL
REMARK 927      BINDING AFFINITY PREDICTED BY RF-SCORE:    0.00 PKD
ROOT
HETATM    1  C   UNL     1     -10.796   4.266  73.686  1.00  0.00    -0.358 C  
HETATM    2  C   UNL     1     -10.215   4.207  72.278  1.00  0.00    -0.164 C  
ENDROOT
BRANCH   2   3
HETATM    3  N   UNL     1      -8.765   4.486  72.165  1.00  0.00    -0.113 NA 
BRANCH   3   4
HETATM    4  C   UNL     1      -8.126   3.668  71.116  1.00  0.00    -0.066 C  
BRANCH   4   5
HETATM    5  C   UNL     1      -7.589   4.438  69.893  1.00  0.00    -0.050 C  
BRANCH   5   6
HETATM    6  C   UNL     1      -8.349   4.158  68.593  1.00  0.00    -0.093 C  
BRANCH   6   7
HETATM    7  C   UNL     1      -9.019   5.416  68.082  1.00  0.00    -0.111 A  
HETATM    8  C   UNL     1     -10.355   5.389  67.657  1.00  0.00    -0.235 A  
HETATM    9  C   UNL     1     -10.991   6.564  67.246  1.00  0.00    -0.475 A  
HETATM   10  C   UNL     1      -8.332   6.639  68.081  1.00  0.00    -0.117 A  
HETATM   11  C   UNL     1     -10.299   7.774  67.255  1.00  0.00    -0.371 A  
HETATM   12  C   UNL     1      -8.968   7.811  67.669  1.00  0.00    -0.128 A  
ENDBRANCH   6   7
ENDBRANCH   5   6
ENDBRANCH   4   5
ENDBRANCH   3   4
BRANCH   3  13
HETATM   13  C   UNL     1      -8.545   5.927  71.918  1.00  0.00    -0.137 C  
BRANCH  13  14
HETATM   14  C   UNL     1      -7.920   6.698  73.082  1.00  0.00    -0.106 C  
BRANCH  14  15
HETATM   15  C   UNL     1      -8.930   7.574  73.829  1.00  0.00    -0.297 C  
BRANCH  15  16
HETATM   16  C   UNL     1      -9.875   8.185  72.824  1.00  0.00    -0.353 A  
HETATM   17  C   UNL     1     -11.603   9.057  70.806  1.00  0.00    -0.313 A  
HETATM   18  C   UNL     1     -10.232   9.306  70.707  1.00  0.00    -0.353 A  
HETATM   19  C   UNL     1     -11.254   7.956  72.927  1.00  0.00    -0.429 A  
HETATM   20  C   UNL     1     -12.111   8.391  71.916  1.00  0.00    -0.398 A  
HETATM   21  C   UNL     1      -9.372   8.877  71.715  1.00  0.00    -0.304 A  
ENDBRANCH  15  16
ENDBRANCH  14  15
ENDBRANCH  13  14
ENDBRANCH   3  13
ENDBRANCH   2   3
TORSDOF 9
ENDMDL
MODEL      298
REMARK 921   NORMALIZED FREE ENERGY PREDICTED BY IDOCK:   -3.16 KCAL/MOL
REMARK 922        TOTAL FREE ENERGY PREDICTED BY IDOCK:   -6.35 KCAL/MOL
REMARK 923 INTER-LIGAND FREE ENERGY PREDICTED BY IDOCK:   -4.27 KCAL/MOL
REMARK 924 INTRA-LIGAND FREE ENERGY PREDICTED BY IDOCK:   -2.08 KCAL/MOL
REMARK 927      BINDING AFFINITY PREDICTED BY RF-SCORE:    0.00 PKD
ROOT
HETATM    1  C   UNL     1     -10.969   6.182  66.940  1.00  0.00    -0.384 C  
HETATM    2  C   UNL     1     -10.567   6.848  68.252  1.00  0.00    -0.215 C  
ENDROOT
BRANCH   2   3
HETATM    3  N   UNL     1      -9.667   8.019  68.133  1.00  0.00    -0.156 NA 
BRANCH   3   4
HETATM    4  C   UNL     1      -9.721   8.621  66.786  1.00  0.00    -0.233 C  
BRANCH   4   5
HETATM    5  C   UNL     1     -10.768   9.734  66.586  1.00  0.00    -0.106 C  
BRANCH   5   6
HETATM    6  C   UNL     1     -10.233  10.977  65.868  1.00  0.00    -0.309 C  
BRANCH   6   7
HETATM    7  C   UNL     1     -10.526  12.227  66.670  1.00  0.00    -0.247 A  
HETATM    8  C   UNL     1      -9.805  13.407  66.439  1.00  0.00    -0.299 A  
HETATM    9  C   UNL     1     -10.119  14.576  67.135  1.00  0.00    -0.252 A  
HETATM   10  C   UNL     1     -11.563  12.241  67.614  1.00  0.00    -0.421 A  
HETATM   11  C   UNL     1     -11.156  14.579  68.066  1.00  0.00    -0.289 A  
HETATM   12  C   UNL     1     -11.877  13.411  68.309  1.00  0.00    -0.393 A  
ENDBRANCH   6   7
ENDBRANCH   5   6
ENDBRANCH   4   5
ENDBRANCH   3   4
BRANCH   3  13
HETATM   13  C   UNL     1      -9.997   9.018  69.172  1.00  0.00    -0.185 C  
BRANCH  13  14
HETATM   14  C   UNL     1      -8.793   9.647  69.874  1.00  0.00    -0.240 C  
BRANCH  14  15
HETATM   15  C   UNL     1      -8.316  10.937  69.201  1.00  0.00    -0.077 C  
BRANCH  15  16
HETATM   16  C   UNL     1      -7.153  10.610  68.299  1.00  0.00    -0.081 A  
HETATM   17  C   UNL     1      -5.185   9.820  66.476  1.00  0.00    -0.044 A  
HETATM   18  C   UNL     1      -5.356   9.113  67.668  1.00  0.00    -0.034 A  
HETATM   19  C   UNL     1      -6.963  11.327  67.110  1.00  0.00    -0.114 A  
HETATM   20  C   UNL     1      -5.981  10.927  66.202  1.00  0.00    -0.141 A  
HETATM   21  C   UNL     1      -6.332   9.510  68.579  1.00  0.00    -0.048 A  
ENDBRANCH  15  16
ENDBRANCH  14  15
ENDBRANCH  13  14
ENDBRANCH   3  13
ENDBRANCH   2   3
TORSDOF 9
ENDMDL
MODEL      299
REMARK 921   NORMALIZED FREE ENERGY PREDICTED BY IDOCK:   -3.16 KCAL/MOL
REMARK 922        TOTAL FREE ENERGY PREDICTED BY IDOCK:   -6.34 KCAL/MOL
REMARK 923 INTER-LIGAND FREE ENERGY PREDICTED BY IDOCK:   -5.52 KCAL/MOL
REMARK 924 INTRA-LIGAND FREE ENERGY PREDICTED BY IDOCK:   -0.82 KCAL/MOL
REMARK 927      BINDING AFFINITY PREDICTED BY RF-SCORE:    0.00 PKD
ROOT
HETATM    1  C   UNL     1     -10.759   4.317  73.721  1.00  0.00    -0.339 C  
HETATM    2  C   UNL     1     -10.310   3.820  72.351  1.00  0.00    -0.114 C  
ENDROOT
BRANCH   2   3
HETATM    3  N   UNL     1      -9.247   4.614  71.693  1.00  0.00    -0.134 NA 
BRANCH   3   4
HETATM    4  C   UNL     1      -8.564   3.848  70.632  1.00  0.00    -0.071 C  
BRANCH   4   5
HETATM    5  C   UNL     1      -9.382   3.594  69.350  1.00  0.00    -0.246 C  
BRANCH   5   6
HETATM    6  C   UNL     1      -8.707   2.645  68.355  1.00  0.00    -0.131 C  
BRANCH   6   7
HETATM    7  C   UNL     1      -9.134   2.963  66.937  1.00  0.00    -0.181 A  
HETATM    8  C   UNL     1      -9.896   4.108  66.663  1.00  0.00    -0.210 A  
HETATM    9  C   UNL     1     -10.235   4.433  65.348  1.00  0.00    -0.247 A  
HETATM   10  C   UNL     1      -8.724   2.150  65.870  1.00  0.00    -0.120 A  
HETATM   11  C   UNL     1      -9.817   3.621  64.295  1.00  0.00    -0.184 A  
HETATM   12  C   UNL     1      -9.064   2.477  64.556  1.00  0.00    -0.128 A  
ENDBRANCH   6   7
ENDBRANCH   5   6
ENDBRANCH   4   5
ENDBRANCH   3   4
BRANCH   3  13
HETATM   13  C   UNL     1      -9.813   5.870  71.157  1.00  0.00    -0.181 C  
BRANCH  13  14
HETATM   14  C   UNL     1      -9.274   7.150  71.796  1.00  0.00    -0.147 C  
BRANCH  14  15
HETATM   15  C   UNL     1     -10.250   7.775  72.797  1.00  0.00    -0.360 C  
BRANCH  15  16
HETATM   16  C   UNL     1     -11.200   8.675  72.047  1.00  0.00    -0.434 A  
HETATM   17  C   UNL     1     -12.894  10.557  70.861  1.00  0.00    -0.485 A  
HETATM   18  C   UNL     1     -13.389   9.691  71.838  1.00  0.00    -0.526 A  
HETATM   19  C   UNL     1     -10.715   9.534  71.051  1.00  0.00    -0.411 A  
HETATM   20  C   UNL     1     -11.564  10.473  70.464  1.00  0.00    -0.441 A  
HETATM   21  C   UNL     1     -12.546   8.750  72.425  1.00  0.00    -0.430 A  
ENDBRANCH  15  16
ENDBRANCH  14  15
ENDBRANCH  13  14
ENDBRANCH   3  13
ENDBRANCH   2   3
TORSDOF 9
ENDMDL
MODEL      300
REMARK 921   NORMALIZED FREE ENERGY PREDICTED BY IDOCK:   -3.10 KCAL/MOL
REMARK 922        TOTAL FREE ENERGY PREDICTED BY IDOCK:   -6.25 KCAL/MOL
REMARK 923 INTER-LIGAND FREE ENERGY PREDICTED BY IDOCK:   -4.93 KCAL/MOL
REMARK 924 INTRA-LIGAND FREE ENERGY PREDICTED BY IDOCK:   -1.33 KCAL/MOL
REMARK 927      BINDING AFFINITY PREDICTED BY RF-SCORE:    0.00 PKD
ROOT
HETATM    1  C   UNL     1      -6.743   9.253  67.674  1.00  0.00    -0.068 C  
HETATM    2  C   UNL     1      -8.095   9.181  68.375  1.00  0.00    -0.104 C  
ENDROOT
BRANCH   2   3
HETATM    3  N   UNL     1      -9.206   8.613  67.578  1.00  0.00    -0.133 NA 
BRANCH   3   4
HETATM    4  C   UNL     1      -9.568   7.254  68.026  1.00  0.00    -0.139 C  
BRANCH   4   5
HETATM    5  C   UNL     1      -8.969   6.806  69.374  1.00  0.00    -0.137 C  
BRANCH   5   6
HETATM    6  C   UNL     1      -9.960   6.842  70.542  1.00  0.00    -0.194 C  
BRANCH   6   7
HETATM    7  C   UNL     1      -9.240   7.112  71.847  1.00  0.00    -0.149 A  
HETATM    8  C   UNL     1      -7.936   6.638  72.052  1.00  0.00    -0.102 A  
HETATM    9  C   UNL     1      -7.251   6.942  73.231  1.00  0.00    -0.074 A  
HETATM   10  C   UNL     1      -9.844   7.889  72.846  1.00  0.00    -0.348 A  
HETATM   11  C   UNL     1      -7.860   7.720  74.214  1.00  0.00    -0.235 A  
HETATM   12  C   UNL     1      -9.158   8.191  74.024  1.00  0.00     0.108 A  
ENDBRANCH   6   7
ENDBRANCH   5   6
ENDBRANCH   4   5
ENDBRANCH   3   4
BRANCH   3  13
HETATM   13  C   UNL     1     -10.377   9.514  67.629  1.00  0.00    -0.244 C  
BRANCH  13  14
HETATM   14  C   UNL     1     -10.301  10.620  68.683  1.00  0.00    -0.202 C  
BRANCH  14  15
HETATM   15  C   UNL     1     -11.205  10.357  69.892  1.00  0.00    -0.371 C  
BRANCH  15  16
HETATM   16  C   UNL     1     -11.889  11.645  70.272  1.00  0.00    -0.414 A  
HETATM   17  C   UNL     1     -12.921  14.089  71.155  1.00  0.00    -0.402 A  
HETATM   18  C   UNL     1     -13.233  12.912  71.839  1.00  0.00    -0.521 A  
HETATM   19  C   UNL     1     -11.596  12.828  69.579  1.00  0.00    -0.342 A  
HETATM   20  C   UNL     1     -12.111  14.045  70.025  1.00  0.00    -0.412 A  
HETATM   21  C   UNL     1     -12.724  11.694  71.395  1.00  0.00    -0.445 A  
ENDBRANCH  15  16
ENDBRANCH  14  15
ENDBRANCH  13  14
ENDBRANCH   3  13
ENDBRANCH   2   3
TORSDOF 9
ENDMDL
MODEL      301
REMARK 921   NORMALIZED FREE ENERGY PREDICTED BY IDOCK:   -3.10 KCAL/MOL
REMARK 922        TOTAL FREE ENERGY PREDICTED BY IDOCK:   -6.24 KCAL/MOL
REMARK 923 INTER-LIGAND FREE ENERGY PREDICTED BY IDOCK:   -5.31 KCAL/MOL
REMARK 924 INTRA-LIGAND FREE ENERGY PREDICTED BY IDOCK:   -0.93 KCAL/MOL
REMARK 927      BINDING AFFINITY PREDICTED BY RF-SCORE:    0.00 PKD
ROOT
HETATM    1  C   UNL     1      -9.840   7.251  66.565  1.00  0.00    -0.202 C  
HETATM    2  C   UNL     1      -9.849   8.418  67.546  1.00  0.00    -0.181 C  
ENDROOT
BRANCH   2   3
HETATM    3  N   UNL     1     -10.200   8.082  68.946  1.00  0.00    -0.206 NA 
BRANCH   3   4
HETATM    4  C   UNL     1     -10.802   9.229  69.653  1.00  0.00    -0.212 C  
BRANCH   4   5
HETATM    5  C   UNL     1     -10.409  10.625  69.133  1.00  0.00    -0.242 C  
BRANCH   5   6
HETATM    6  C   UNL     1     -11.594  11.480  68.672  1.00  0.00    -0.375 C  
BRANCH   6   7
HETATM    7  C   UNL     1     -11.209  12.332  67.481  1.00  0.00    -0.354 A  
HETATM    8  C   UNL     1     -11.468  11.890  66.176  1.00  0.00    -0.352 A  
HETATM    9  C   UNL     1     -11.170  12.705  65.081  1.00  0.00    -0.336 A  
HETATM   10  C   UNL     1     -10.643  13.602  67.667  1.00  0.00    -0.245 A  
HETATM   11  C   UNL     1     -10.613  13.967  65.279  1.00  0.00    -0.372 A  
HETATM   12  C   UNL     1     -10.346  14.415  66.572  1.00  0.00    -0.281 A  
ENDBRANCH   6   7
ENDBRANCH   5   6
ENDBRANCH   4   5
ENDBRANCH   3   4
BRANCH   3  13
HETATM   13  C   UNL     1     -11.101   6.911  68.974  1.00  0.00    -0.136 C  
BRANCH  13  14
HETATM   14  C   UNL     1     -10.611   5.734  69.818  1.00  0.00    -0.388 C  
BRANCH  14  15
HETATM   15  C   UNL     1     -10.998   5.856  71.295  1.00  0.00    -0.325 C  
BRANCH  15  16
HETATM   16  C   UNL     1      -9.838   6.455  72.050  1.00  0.00    -0.169 A  
HETATM   17  C   UNL     1      -7.638   7.735  73.206  1.00  0.00    -0.149 A  
HETATM   18  C   UNL     1      -7.458   6.550  72.488  1.00  0.00    -0.090 A  
HETATM   19  C   UNL     1     -10.014   7.633  72.788  1.00  0.00    -0.298 A  
HETATM   20  C   UNL     1      -8.912   8.270  73.361  1.00  0.00    -0.260 A  
HETATM   21  C   UNL     1      -8.556   5.909  71.918  1.00  0.00    -0.137 A  
ENDBRANCH  15  16
ENDBRANCH  14  15
ENDBRANCH  13  14
ENDBRANCH   3  13
ENDBRANCH   2   3
TORSDOF 9
ENDMDL
MODEL      302
REMARK 921   NORMALIZED FREE ENERGY PREDICTED BY IDOCK:   -3.05 KCAL/MOL
REMARK 922        TOTAL FREE ENERGY PREDICTED BY IDOCK:   -6.18 KCAL/MOL
REMARK 923 INTER-LIGAND FREE ENERGY PREDICTED BY IDOCK:   -4.85 KCAL/MOL
REMARK 924 INTRA-LIGAND FREE ENERGY PREDICTED BY IDOCK:   -1.33 KCAL/MOL
REMARK 927      BINDING AFFINITY PREDICTED BY RF-SCORE:    0.00 PKD
ROOT
HETATM    1  C   UNL     1      -8.898   9.202  70.877  1.00  0.00    -0.292 C  
HETATM    2  C   UNL     1     -10.322   9.709  70.676  1.00  0.00    -0.297 C  
ENDROOT
BRANCH   2   3
HETATM    3  N   UNL     1     -10.563  10.479  69.434  1.00  0.00    -0.226 NA 
BRANCH   3   4
HETATM    4  C   UNL     1     -10.760   9.597  68.267  1.00  0.00    -0.217 C  
BRANCH   4   5
HETATM    5  C   UNL     1      -9.947   9.954  67.007  1.00  0.00    -0.254 C  
BRANCH   5   6
HETATM    6  C   UNL     1      -8.575  10.570  67.300  1.00  0.00    -0.122 C  
BRANCH   6   7
HETATM    7  C   UNL     1      -7.498   9.505  67.302  1.00  0.00    -0.091 A  
HETATM    8  C   UNL     1      -7.829   8.158  67.098  1.00  0.00    -0.101 A  
HETATM    9  C   UNL     1      -6.828   7.185  67.037  1.00  0.00    -0.072 A  
HETATM   10  C   UNL     1      -6.149   9.857  67.451  1.00  0.00    -0.058 A  
HETATM   11  C   UNL     1      -5.490   7.548  67.180  1.00  0.00    -0.030 A  
HETATM   12  C   UNL     1      -5.150   8.883  67.390  1.00  0.00    -0.033 A  
ENDBRANCH   6   7
ENDBRANCH   5   6
ENDBRANCH   4   5
ENDBRANCH   3   4
BRANCH   3  13
HETATM   13  C   UNL     1     -11.721  11.381  69.615  1.00  0.00    -0.345 C  
BRANCH  13  14
HETATM   14  C   UNL     1     -11.493  12.827  69.172  1.00  0.00    -0.361 C  
BRANCH  14  15
HETATM   15  C   UNL     1     -11.814  13.056  67.692  1.00  0.00    -0.401 C  
BRANCH  15  16
HETATM   16  C   UNL     1     -11.156  14.338  67.248  1.00  0.00    -0.315 A  
HETATM   17  C   UNL     1      -9.687  16.617  66.568  1.00  0.00    -0.291 A  
HETATM   18  C   UNL     1     -10.444  16.600  67.741  1.00  0.00    -0.316 A  
HETATM   19  C   UNL     1     -10.409  14.369  66.062  1.00  0.00    -0.319 A  
HETATM   20  C   UNL     1      -9.676  15.508  65.729  1.00  0.00    -0.383 A  
HETATM   21  C   UNL     1     -11.181  15.466  68.076  1.00  0.00    -0.326 A  
ENDBRANCH  15  16
ENDBRANCH  14  15
ENDBRANCH  13  14
ENDBRANCH   3  13
ENDBRANCH   2   3
TORSDOF 9
ENDMDL
MODEL      303
REMARK 921   NORMALIZED FREE ENERGY PREDICTED BY IDOCK:   -3.05 KCAL/MOL
REMARK 922        TOTAL FREE ENERGY PREDICTED BY IDOCK:   -6.17 KCAL/MOL
REMARK 923 INTER-LIGAND FREE ENERGY PREDICTED BY IDOCK:   -5.57 KCAL/MOL
REMARK 924 INTRA-LIGAND FREE ENERGY PREDICTED BY IDOCK:   -0.60 KCAL/MOL
REMARK 927      BINDING AFFINITY PREDICTED BY RF-SCORE:    0.00 PKD
ROOT
HETATM    1  C   UNL     1     -10.189  15.496  69.768  1.00  0.00    -0.301 C  
HETATM    2  C   UNL     1     -11.434  14.866  69.152  1.00  0.00    -0.302 C  
ENDROOT
BRANCH   2   3
HETATM    3  N   UNL     1     -11.455  14.791  67.673  1.00  0.00    -0.336 NA 
BRANCH   3   4
HETATM    4  C   UNL     1     -10.102  14.616  67.110  1.00  0.00    -0.244 C  
BRANCH   4   5
HETATM    5  C   UNL     1      -9.763  15.489  65.886  1.00  0.00    -0.392 C  
BRANCH   5   6
HETATM    6  C   UNL     1      -9.012  16.781  66.226  1.00  0.00    -0.325 C  
BRANCH   6   7
HETATM    7  C   UNL     1      -7.916  16.513  67.237  1.00  0.00    -0.191 A  
HETATM    8  C   UNL     1      -7.054  15.419  67.080  1.00  0.00    -0.135 A  
HETATM    9  C   UNL     1      -6.006  15.211  67.979  1.00  0.00    -0.159 A  
HETATM   10  C   UNL     1      -7.711  17.390  68.312  1.00  0.00    -0.241 A  
HETATM   11  C   UNL     1      -5.808  16.091  69.040  1.00  0.00    -0.120 A  
HETATM   12  C   UNL     1      -6.662  17.180  69.210  1.00  0.00    -0.228 A  
ENDBRANCH   6   7
ENDBRANCH   5   6
ENDBRANCH   4   5
ENDBRANCH   3   4
BRANCH   3  13
HETATM   13  C   UNL     1     -12.353  13.701  67.235  1.00  0.00    -0.153 C  
BRANCH  13  14
HETATM   14  C   UNL     1     -11.913  12.965  65.969  1.00  0.00    -0.505 C  
BRANCH  14  15
HETATM   15  C   UNL     1     -11.410  11.545  66.248  1.00  0.00    -0.222 C  
BRANCH  15  16
HETATM   16  C   UNL     1     -10.366  11.192  65.219  1.00  0.00    -0.336 A  
HETATM   17  C   UNL     1      -8.582  10.277  63.270  1.00  0.00    -0.194 A  
HETATM   18  C   UNL     1      -8.343  10.004  64.618  1.00  0.00    -0.167 A  
HETATM   19  C   UNL     1     -10.589  11.480  63.865  1.00  0.00    -0.448 A  
HETATM   20  C   UNL     1      -9.697  11.019  62.896  1.00  0.00    -0.353 A  
HETATM   21  C   UNL     1      -9.228  10.465  65.589  1.00  0.00    -0.220 A  
ENDBRANCH  15  16
ENDBRANCH  14  15
ENDBRANCH  13  14
ENDBRANCH   3  13
ENDBRANCH   2   3
TORSDOF 9
ENDMDL
MODEL      304
REMARK 921   NORMALIZED FREE ENERGY PREDICTED BY IDOCK:   -3.04 KCAL/MOL
REMARK 922        TOTAL FREE ENERGY PREDICTED BY IDOCK:   -6.16 KCAL/MOL
REMARK 923 INTER-LIGAND FREE ENERGY PREDICTED BY IDOCK:   -5.44 KCAL/MOL
REMARK 924 INTRA-LIGAND FREE ENERGY PREDICTED BY IDOCK:   -0.72 KCAL/MOL
REMARK 927      BINDING AFFINITY PREDICTED BY RF-SCORE:    0.00 PKD
ROOT
HETATM    1  C   UNL     1      -9.884   8.107  66.456  1.00  0.00    -0.309 C  
HETATM    2  C   UNL     1      -9.692   9.410  67.225  1.00  0.00    -0.165 C  
ENDROOT
BRANCH   2   3
HETATM    3  N   UNL     1      -9.184   9.274  68.609  1.00  0.00    -0.135 NA 
BRANCH   3   4
HETATM    4  C   UNL     1      -9.903  10.155  69.550  1.00  0.00    -0.232 C  
BRANCH   4   5
HETATM    5  C   UNL     1     -10.265  11.556  69.019  1.00  0.00    -0.109 C  
BRANCH   5   6
HETATM    6  C   UNL     1     -11.769  11.847  68.993  1.00  0.00    -0.391 C  
BRANCH   6   7
HETATM    7  C   UNL     1     -12.116  12.968  69.949  1.00  0.00    -0.347 A  
HETATM    8  C   UNL     1     -12.035  14.306  69.537  1.00  0.00    -0.384 A  
HETATM    9  C   UNL     1     -12.416  15.336  70.401  1.00  0.00    -0.426 A  
HETATM   10  C   UNL     1     -12.579  12.684  71.242  1.00  0.00    -0.339 A  
HETATM   11  C   UNL     1     -12.880  15.041  71.681  1.00  0.00    -0.420 A  
HETATM   12  C   UNL     1     -12.959  13.714  72.104  1.00  0.00    -0.421 A  
ENDBRANCH   6   7
ENDBRANCH   5   6
ENDBRANCH   4   5
ENDBRANCH   3   4
BRANCH   3  13
HETATM   13  C   UNL     1      -9.265   7.862  69.041  1.00  0.00    -0.147 C  
BRANCH  13  14
HETATM   14  C   UNL     1      -9.156   7.638  70.550  1.00  0.00    -0.151 C  
BRANCH  14  15
HETATM   15  C   UNL     1      -8.425   6.341  70.910  1.00  0.00    -0.131 C  
BRANCH  15  16
HETATM   16  C   UNL     1      -9.274   5.562  71.882  1.00  0.00    -0.156 A  
HETATM   17  C   UNL     1     -11.077   4.153  73.490  1.00  0.00    -0.359 A  
HETATM   18  C   UNL     1     -10.923   5.531  73.656  1.00  0.00    -0.229 A  
HETATM   19  C   UNL     1      -9.419   4.175  71.734  1.00  0.00    -0.210 A  
HETATM   20  C   UNL     1     -10.322   3.478  72.537  1.00  0.00    -0.196 A  
HETATM   21  C   UNL     1     -10.020   6.232  72.859  1.00  0.00    -0.181 A  
ENDBRANCH  15  16
ENDBRANCH  14  15
ENDBRANCH  13  14
ENDBRANCH   3  13
ENDBRANCH   2   3
TORSDOF 9
ENDMDL
MODEL      305
REMARK 921   NORMALIZED FREE ENERGY PREDICTED BY IDOCK:   -3.04 KCAL/MOL
REMARK 922        TOTAL FREE ENERGY PREDICTED BY IDOCK:   -6.15 KCAL/MOL
REMARK 923 INTER-LIGAND FREE ENERGY PREDICTED BY IDOCK:   -5.52 KCAL/MOL
REMARK 924 INTRA-LIGAND FREE ENERGY PREDICTED BY IDOCK:   -0.63 KCAL/MOL
REMARK 927      BINDING AFFINITY PREDICTED BY RF-SCORE:    0.00 PKD
ROOT
HETATM    1  C   UNL     1      -8.547   9.450  66.038  1.00  0.00    -0.154 C  
HETATM    2  C   UNL     1      -9.070  10.824  66.442  1.00  0.00    -0.171 C  
ENDROOT
BRANCH   2   3
HETATM    3  N   UNL     1      -9.173  11.074  67.898  1.00  0.00    -0.151 NA 
BRANCH   3   4
HETATM    4  C   UNL     1      -8.241  10.229  68.669  1.00  0.00    -0.116 C  
BRANCH   4   5
HETATM    5  C   UNL     1      -8.726   9.790  70.065  1.00  0.00    -0.237 C  
BRANCH   5   6
HETATM    6  C   UNL     1      -9.777   8.676  70.041  1.00  0.00    -0.176 C  
BRANCH   6   7
HETATM    7  C   UNL     1     -11.058   9.132  70.708  1.00  0.00    -0.336 A  
HETATM    8  C   UNL     1     -11.587   8.421  71.794  1.00  0.00    -0.372 A  
HETATM    9  C   UNL     1     -12.734   8.878  72.447  1.00  0.00    -0.436 A  
HETATM   10  C   UNL     1     -11.702  10.305  70.287  1.00  0.00    -0.388 A  
HETATM   11  C   UNL     1     -13.361  10.048  72.024  1.00  0.00    -0.513 A  
HETATM   12  C   UNL     1     -12.847  10.761  70.941  1.00  0.00    -0.443 A  
ENDBRANCH   6   7
ENDBRANCH   5   6
ENDBRANCH   4   5
ENDBRANCH   3   4
BRANCH   3  13
HETATM   13  C   UNL     1      -8.945  12.507  68.182  1.00  0.00    -0.199 C  
BRANCH  13  14
HETATM   14  C   UNL     1      -7.487  12.897  68.429  1.00  0.00    -0.124 C  
BRANCH  14  15
HETATM   15  C   UNL     1      -7.136  14.280  67.871  1.00  0.00    -0.169 C  
BRANCH  15  16
HETATM   16  C   UNL     1      -8.357  15.160  67.960  1.00  0.00    -0.147 A  
HETATM   17  C   UNL     1     -10.440  17.023  68.043  1.00  0.00    -0.353 A  
HETATM   18  C   UNL     1      -9.690  16.763  69.192  1.00  0.00    -0.204 A  
HETATM   19  C   UNL     1      -9.127  15.411  66.816  1.00  0.00    -0.286 A  
HETATM   20  C   UNL     1     -10.164  16.343  66.862  1.00  0.00    -0.290 A  
HETATM   21  C   UNL     1      -8.656  15.831  69.152  1.00  0.00    -0.256 A  
ENDBRANCH  15  16
ENDBRANCH  14  15
ENDBRANCH  13  14
ENDBRANCH   3  13
ENDBRANCH   2   3
TORSDOF 9
ENDMDL
MODEL      306
REMARK 921   NORMALIZED FREE ENERGY PREDICTED BY IDOCK:   -3.01 KCAL/MOL
REMARK 922        TOTAL FREE ENERGY PREDICTED BY IDOCK:   -6.11 KCAL/MOL
REMARK 923 INTER-LIGAND FREE ENERGY PREDICTED BY IDOCK:   -5.96 KCAL/MOL
REMARK 924 INTRA-LIGAND FREE ENERGY PREDICTED BY IDOCK:   -0.16 KCAL/MOL
REMARK 927      BINDING AFFINITY PREDICTED BY RF-SCORE:    0.00 PKD
ROOT
HETATM    1  C   UNL     1      -7.234  12.502  67.977  1.00  0.00    -0.105 C  
HETATM    2  C   UNL     1      -8.698  12.869  68.198  1.00  0.00    -0.190 C  
ENDROOT
BRANCH   2   3
HETATM    3  N   UNL     1      -9.691  11.998  67.528  1.00  0.00    -0.185 NA 
BRANCH   3   4
HETATM    4  C   UNL     1     -10.490  11.225  68.499  1.00  0.00    -0.197 C  
BRANCH   4   5
HETATM    5  C   UNL     1     -11.062  12.021  69.688  1.00  0.00    -0.074 C  
BRANCH   5   6
HETATM    6  C   UNL     1     -11.969  13.187  69.283  1.00  0.00    -0.344 C  
BRANCH   6   7
HETATM    7  C   UNL     1     -12.503  13.902  70.507  1.00  0.00    -0.422 A  
HETATM    8  C   UNL     1     -13.128  13.182  71.535  1.00  0.00    -0.404 A  
HETATM    9  C   UNL     1     -13.563  13.834  72.691  1.00  0.00    -0.617 A  
HETATM   10  C   UNL     1     -12.328  15.285  70.657  1.00  0.00    -0.427 A  
HETATM   11  C   UNL     1     -13.378  15.208  72.832  1.00  0.00    -0.603 A  
HETATM   12  C   UNL     1     -12.763  15.935  71.813  1.00  0.00    -0.466 A  
ENDBRANCH   6   7
ENDBRANCH   5   6
ENDBRANCH   4   5
ENDBRANCH   3   4
BRANCH   3  13
HETATM   13  C   UNL     1     -10.564  12.807  66.651  1.00  0.00    -0.256 C  
BRANCH  13  14
HETATM   14  C   UNL     1     -10.667  12.317  65.206  1.00  0.00    -0.329 C  
BRANCH  14  15
HETATM   15  C   UNL     1     -10.658  10.789  65.092  1.00  0.00    -0.239 C  
BRANCH  15  16
HETATM   16  C   UNL     1      -9.367  10.362  64.440  1.00  0.00    -0.321 A  
HETATM   17  C   UNL     1      -7.139   9.373  63.071  1.00  0.00    -0.096 A  
HETATM   18  C   UNL     1      -7.527   8.794  64.281  1.00  0.00    -0.108 A  
HETATM   19  C   UNL     1      -8.959  10.950  63.235  1.00  0.00    -0.204 A  
HETATM   20  C   UNL     1      -7.849  10.451  62.554  1.00  0.00    -0.173 A  
HETATM   21  C   UNL     1      -8.634   9.291  64.966  1.00  0.00    -0.200 A  
ENDBRANCH  15  16
ENDBRANCH  14  15
ENDBRANCH  13  14
ENDBRANCH   3  13
ENDBRANCH   2   3
TORSDOF 9
ENDMDL
MODEL      307
REMARK 921   NORMALIZED FREE ENERGY PREDICTED BY IDOCK:   -3.01 KCAL/MOL
REMARK 922        TOTAL FREE ENERGY PREDICTED BY IDOCK:   -6.11 KCAL/MOL
REMARK 923 INTER-LIGAND FREE ENERGY PREDICTED BY IDOCK:   -5.19 KCAL/MOL
REMARK 924 INTRA-LIGAND FREE ENERGY PREDICTED BY IDOCK:   -0.92 KCAL/MOL
REMARK 927      BINDING AFFINITY PREDICTED BY RF-SCORE:    0.00 PKD
ROOT
HETATM    1  C   UNL     1      -8.893   9.333  70.525  1.00  0.00    -0.285 C  
HETATM    2  C   UNL     1     -10.330   9.786  70.289  1.00  0.00    -0.291 C  
ENDROOT
BRANCH   2   3
HETATM    3  N   UNL     1     -10.602  10.415  68.976  1.00  0.00    -0.207 NA 
BRANCH   3   4
HETATM    4  C   UNL     1     -11.133   9.444  67.999  1.00  0.00     0.059 C  
BRANCH   4   5
HETATM    5  C   UNL     1     -10.336   9.302  66.687  1.00  0.00    -0.292 C  
BRANCH   5   6
HETATM    6  C   UNL     1      -8.979   8.610  66.851  1.00  0.00    -0.161 C  
BRANCH   6   7
HETATM    7  C   UNL     1      -9.161   7.163  67.261  1.00  0.00    -0.130 A  
HETATM    8  C   UNL     1     -10.133   6.365  66.643  1.00  0.00    -0.206 A  
HETATM    9  C   UNL     1     -10.257   5.014  66.978  1.00  0.00    -0.253 A  
HETATM   10  C   UNL     1      -8.320   6.585  68.223  1.00  0.00    -0.117 A  
HETATM   11  C   UNL     1      -9.411   4.449  67.931  1.00  0.00    -0.209 A  
HETATM   12  C   UNL     1      -8.444   5.235  68.556  1.00  0.00    -0.092 A  
ENDBRANCH   6   7
ENDBRANCH   5   6
ENDBRANCH   4   5
ENDBRANCH   3   4
BRANCH   3  13
HETATM   13  C   UNL     1     -11.527  11.556  69.143  1.00  0.00    -0.297 C  
BRANCH  13  14
HETATM   14  C   UNL     1     -10.984  12.907  68.674  1.00  0.00    -0.295 C  
BRANCH  14  15
HETATM   15  C   UNL     1     -12.090  13.899  68.303  1.00  0.00    -0.322 C  
BRANCH  15  16
HETATM   16  C   UNL     1     -11.475  15.046  67.542  1.00  0.00    -0.339 A  
HETATM   17  C   UNL     1     -10.066  17.037  66.175  1.00  0.00    -0.332 A  
HETATM   18  C   UNL     1     -10.295  17.161  67.547  1.00  0.00    -0.341 A  
HETATM   19  C   UNL     1     -11.258  14.937  66.161  1.00  0.00    -0.325 A  
HETATM   20  C   UNL     1     -10.552  15.932  65.484  1.00  0.00    -0.419 A  
HETATM   21  C   UNL     1     -11.002  16.172  68.227  1.00  0.00    -0.340 A  
ENDBRANCH  15  16
ENDBRANCH  14  15
ENDBRANCH  13  14
ENDBRANCH   3  13
ENDBRANCH   2   3
TORSDOF 9
ENDMDL
MODEL      308
REMARK 921   NORMALIZED FREE ENERGY PREDICTED BY IDOCK:   -3.00 KCAL/MOL
REMARK 922        TOTAL FREE ENERGY PREDICTED BY IDOCK:   -6.09 KCAL/MOL
REMARK 923 INTER-LIGAND FREE ENERGY PREDICTED BY IDOCK:   -5.11 KCAL/MOL
REMARK 924 INTRA-LIGAND FREE ENERGY PREDICTED BY IDOCK:   -0.98 KCAL/MOL
REMARK 927      BINDING AFFINITY PREDICTED BY RF-SCORE:    0.00 PKD
ROOT
HETATM    1  C   UNL     1     -12.399  11.142  69.089  1.00  0.00    -0.107 C  
HETATM    2  C   UNL     1     -11.206  10.300  69.529  1.00  0.00    -0.261 C  
ENDROOT
BRANCH   2   3
HETATM    3  N   UNL     1     -10.243   9.938  68.464  1.00  0.00    -0.170 NA 
BRANCH   3   4
HETATM    4  C   UNL     1      -9.040  10.793  68.495  1.00  0.00    -0.170 C  
BRANCH   4   5
HETATM    5  C   UNL     1      -9.194  12.199  67.883  1.00  0.00    -0.188 C  
BRANCH   5   6
HETATM    6  C   UNL     1      -8.924  12.260  66.376  1.00  0.00    -0.117 C  
BRANCH   6   7
HETATM    7  C   UNL     1     -10.221  12.200  65.596  1.00  0.00    -0.285 A  
HETATM    8  C   UNL     1     -11.333  12.949  66.005  1.00  0.00    -0.354 A  
HETATM    9  C   UNL     1     -12.507  12.942  65.249  1.00  0.00    -0.552 A  
HETATM   10  C   UNL     1     -10.310  11.441  64.420  1.00  0.00    -0.375 A  
HETATM   11  C   UNL     1     -12.582  12.188  64.079  1.00  0.00    -0.507 A  
HETATM   12  C   UNL     1     -11.484  11.435  63.666  1.00  0.00    -0.232 A  
ENDBRANCH   6   7
ENDBRANCH   5   6
ENDBRANCH   4   5
ENDBRANCH   3   4
BRANCH   3  13
HETATM   13  C   UNL     1      -9.879   8.510  68.575  1.00  0.00    -0.173 C  
BRANCH  13  14
HETATM   14  C   UNL     1      -8.399   8.236  68.845  1.00  0.00    -0.127 C  
BRANCH  14  15
HETATM   15  C   UNL     1      -8.168   6.973  69.681  1.00  0.00    -0.131 C  
BRANCH  15  16
HETATM   16  C   UNL     1      -8.885   7.129  70.999  1.00  0.00    -0.145 A  
HETATM   17  C   UNL     1      -9.964   7.307  73.572  1.00  0.00    -0.366 A  
HETATM   18  C   UNL     1     -10.153   6.149  72.815  1.00  0.00    -0.195 A  
HETATM   19  C   UNL     1      -8.717   8.296  71.756  1.00  0.00    -0.218 A  
HETATM   20  C   UNL     1      -9.255   8.379  73.041  1.00  0.00    -0.256 A  
HETATM   21  C   UNL     1      -9.620   6.063  71.531  1.00  0.00    -0.175 A  
ENDBRANCH  15  16
ENDBRANCH  14  15
ENDBRANCH  13  14
ENDBRANCH   3  13
ENDBRANCH   2   3
TORSDOF 9
ENDMDL
MODEL      309
REMARK 921   NORMALIZED FREE ENERGY PREDICTED BY IDOCK:   -2.99 KCAL/MOL
REMARK 922        TOTAL FREE ENERGY PREDICTED BY IDOCK:   -6.08 KCAL/MOL
REMARK 923 INTER-LIGAND FREE ENERGY PREDICTED BY IDOCK:   -4.97 KCAL/MOL
REMARK 924 INTRA-LIGAND FREE ENERGY PREDICTED BY IDOCK:   -1.11 KCAL/MOL
REMARK 927      BINDING AFFINITY PREDICTED BY RF-SCORE:    0.00 PKD
ROOT
HETATM    1  C   UNL     1     -11.695  10.921  69.248  1.00  0.00    -0.395 C  
HETATM    2  C   UNL     1     -10.701   9.872  69.735  1.00  0.00    -0.267 C  
ENDROOT
BRANCH   2   3
HETATM    3  N   UNL     1      -9.680   9.444  68.751  1.00  0.00    -0.154 NA 
BRANCH   3   4
HETATM    4  C   UNL     1     -10.289   9.011  67.478  1.00  0.00    -0.264 C  
BRANCH   4   5
HETATM    5  C   UNL     1     -10.827   7.567  67.444  1.00  0.00    -0.272 C  
BRANCH   5   6
HETATM    6  C   UNL     1      -9.825   6.513  67.924  1.00  0.00    -0.134 C  
BRANCH   6   7
HETATM    7  C   UNL     1      -9.913   6.334  69.425  1.00  0.00    -0.192 A  
HETATM    8  C   UNL     1     -11.156   6.353  70.073  1.00  0.00    -0.442 A  
HETATM    9  C   UNL     1     -11.241   6.124  71.448  1.00  0.00    -0.346 A  
HETATM   10  C   UNL     1      -8.758   6.088  70.182  1.00  0.00    -0.139 A  
HETATM   11  C   UNL     1     -10.087   5.875  72.189  1.00  0.00    -0.210 A  
HETATM   12  C   UNL     1      -8.844   5.860  71.557  1.00  0.00    -0.136 A  
ENDBRANCH   6   7
ENDBRANCH   5   6
ENDBRANCH   4   5
ENDBRANCH   3   4
BRANCH   3  13
HETATM   13  C   UNL     1      -8.706  10.533  68.527  1.00  0.00    -0.140 C  
BRANCH  13  14
HETATM   14  C   UNL     1      -8.704  11.123  67.116  1.00  0.00    -0.141 C  
BRANCH  14  15
HETATM   15  C   UNL     1      -8.368  12.617  67.093  1.00  0.00    -0.172 C  
BRANCH  15  16
HETATM   16  C   UNL     1      -9.621  13.398  67.403  1.00  0.00    -0.223 A  
HETATM   17  C   UNL     1     -11.791  15.092  67.892  1.00  0.00    -0.243 A  
HETATM   18  C   UNL     1     -10.880  14.812  68.913  1.00  0.00    -0.259 A  
HETATM   19  C   UNL     1     -10.550  13.667  66.389  1.00  0.00    -0.284 A  
HETATM   20  C   UNL     1     -11.629  14.515  66.637  1.00  0.00    -0.385 A  
HETATM   21  C   UNL     1      -9.802  13.964  68.671  1.00  0.00    -0.175 A  
ENDBRANCH  15  16
ENDBRANCH  14  15
ENDBRANCH  13  14
ENDBRANCH   3  13
ENDBRANCH   2   3
TORSDOF 9
ENDMDL
MODEL      310
REMARK 921   NORMALIZED FREE ENERGY PREDICTED BY IDOCK:   -2.94 KCAL/MOL
REMARK 922        TOTAL FREE ENERGY PREDICTED BY IDOCK:   -6.00 KCAL/MOL
REMARK 923 INTER-LIGAND FREE ENERGY PREDICTED BY IDOCK:   -5.27 KCAL/MOL
REMARK 924 INTRA-LIGAND FREE ENERGY PREDICTED BY IDOCK:   -0.73 KCAL/MOL
REMARK 927      BINDING AFFINITY PREDICTED BY RF-SCORE:    0.00 PKD
ROOT
HETATM    1  C   UNL     1     -13.197   9.794  71.592  1.00  0.00    -0.514 C  
HETATM    2  C   UNL     1     -11.675   9.823  71.501  1.00  0.00    -0.375 C  
ENDROOT
BRANCH   2   3
HETATM    3  N   UNL     1     -11.078   9.028  70.404  1.00  0.00    -0.243 NA 
BRANCH   3   4
HETATM    4  C   UNL     1     -10.436   9.884  69.387  1.00  0.00    -0.231 C  
BRANCH   4   5
HETATM    5  C   UNL     1     -11.129   9.935  68.012  1.00  0.00    -0.220 C  
BRANCH   5   6
HETATM    6  C   UNL     1     -10.351  10.713  66.946  1.00  0.00    -0.288 C  
BRANCH   6   7
HETATM    7  C   UNL     1     -11.171  11.875  66.425  1.00  0.00    -0.387 A  
HETATM    8  C   UNL     1     -11.667  12.847  67.304  1.00  0.00    -0.431 A  
HETATM    9  C   UNL     1     -12.369  13.951  66.814  1.00  0.00    -0.370 A  
HETATM   10  C   UNL     1     -11.395  12.027  65.048  1.00  0.00    -0.365 A  
HETATM   11  C   UNL     1     -12.581  14.094  65.444  1.00  0.00    -0.485 A  
HETATM   12  C   UNL     1     -12.097  13.131  64.561  1.00  0.00    -0.462 A  
ENDBRANCH   6   7
ENDBRANCH   5   6
ENDBRANCH   4   5
ENDBRANCH   3   4
BRANCH   3  13
HETATM   13  C   UNL     1     -10.116   8.050  70.954  1.00  0.00    -0.191 C  
BRANCH  13  14
HETATM   14  C   UNL     1      -9.456   7.135  69.921  1.00  0.00    -0.153 C  
BRANCH  14  15
HETATM   15  C   UNL     1      -9.016   5.790  70.508  1.00  0.00    -0.152 C  
BRANCH  15  16
HETATM   16  C   UNL     1      -7.781   6.009  71.344  1.00  0.00    -0.104 A  
HETATM   17  C   UNL     1      -5.601   6.690  72.957  1.00  0.00    -0.038 A  
HETATM   18  C   UNL     1      -5.563   6.951  71.586  1.00  0.00    -0.036 A  
HETATM   19  C   UNL     1      -7.804   5.732  72.718  1.00  0.00    -0.101 A  
HETATM   20  C   UNL     1      -6.715   6.076  73.519  1.00  0.00    -0.075 A  
HETATM   21  C   UNL     1      -6.646   6.606  70.782  1.00  0.00    -0.053 A  
ENDBRANCH  15  16
ENDBRANCH  14  15
ENDBRANCH  13  14
ENDBRANCH   3  13
ENDBRANCH   2   3
TORSDOF 9
ENDMDL
MODEL      311
REMARK 921   NORMALIZED FREE ENERGY PREDICTED BY IDOCK:   -2.93 KCAL/MOL
REMARK 922        TOTAL FREE ENERGY PREDICTED BY IDOCK:   -5.99 KCAL/MOL
REMARK 923 INTER-LIGAND FREE ENERGY PREDICTED BY IDOCK:   -3.98 KCAL/MOL
REMARK 924 INTRA-LIGAND FREE ENERGY PREDICTED BY IDOCK:   -2.01 KCAL/MOL
REMARK 927      BINDING AFFINITY PREDICTED BY RF-SCORE:    0.00 PKD
ROOT
HETATM    1  C   UNL     1     -10.136   4.682  66.277  1.00  0.00    -0.292 C  
HETATM    2  C   UNL     1      -9.070   5.624  65.728  1.00  0.00    -0.128 C  
ENDROOT
BRANCH   2   3
HETATM    3  N   UNL     1      -8.341   6.431  66.733  1.00  0.00    -0.110 NA 
BRANCH   3   4
HETATM    4  C   UNL     1      -8.719   7.857  66.675  1.00  0.00    -0.142 C  
BRANCH   4   5
HETATM    5  C   UNL     1     -10.215   8.168  66.876  1.00  0.00    -0.387 C  
BRANCH   5   6
HETATM    6  C   UNL     1     -10.526   9.656  67.061  1.00  0.00    -0.302 C  
BRANCH   6   7
HETATM    7  C   UNL     1     -10.978   9.938  68.478  1.00  0.00    -0.226 A  
HETATM    8  C   UNL     1     -11.401  11.222  68.849  1.00  0.00    -0.340 A  
HETATM    9  C   UNL     1     -11.877  11.465  70.139  1.00  0.00    -0.440 A  
HETATM   10  C   UNL     1     -11.035   8.905  69.426  1.00  0.00    -0.064 A  
HETATM   11  C   UNL     1     -11.935  10.430  71.071  1.00  0.00    -0.481 A  
HETATM   12  C   UNL     1     -11.511   9.150  70.715  1.00  0.00    -0.337 A  
ENDBRANCH   6   7
ENDBRANCH   5   6
ENDBRANCH   4   5
ENDBRANCH   3   4
BRANCH   3  13
HETATM   13  C   UNL     1      -8.569   5.879  68.086  1.00  0.00    -0.113 C  
BRANCH  13  14
HETATM   14  C   UNL     1      -7.307   5.664  68.921  1.00  0.00    -0.082 C  
BRANCH  14  15
HETATM   15  C   UNL     1      -7.306   6.473  70.222  1.00  0.00    -0.089 C  
BRANCH  15  16
HETATM   16  C   UNL     1      -7.003   7.913  69.896  1.00  0.00    -0.050 A  
HETATM   17  C   UNL     1      -6.623  10.552  69.052  1.00  0.00    -0.060 A  
HETATM   18  C   UNL     1      -5.766   9.545  68.603  1.00  0.00    -0.040 A  
HETATM   19  C   UNL     1      -7.847   8.931  70.359  1.00  0.00    -0.104 A  
HETATM   20  C   UNL     1      -7.656  10.246  69.933  1.00  0.00    -0.153 A  
HETATM   21  C   UNL     1      -5.951   8.232  69.028  1.00  0.00    -0.042 A  
ENDBRANCH  15  16
ENDBRANCH  14  15
ENDBRANCH  13  14
ENDBRANCH   3  13
ENDBRANCH   2   3
TORSDOF 9
ENDMDL
MODEL      312
REMARK 921   NORMALIZED FREE ENERGY PREDICTED BY IDOCK:   -2.91 KCAL/MOL
REMARK 922        TOTAL FREE ENERGY PREDICTED BY IDOCK:   -5.96 KCAL/MOL
REMARK 923 INTER-LIGAND FREE ENERGY PREDICTED BY IDOCK:   -5.03 KCAL/MOL
REMARK 924 INTRA-LIGAND FREE ENERGY PREDICTED BY IDOCK:   -0.92 KCAL/MOL
REMARK 927      BINDING AFFINITY PREDICTED BY RF-SCORE:    0.00 PKD
ROOT
HETATM    1  C   UNL     1     -12.941  10.691  71.201  1.00  0.00    -0.483 C  
HETATM    2  C   UNL     1     -11.715  10.703  70.294  1.00  0.00    -0.344 C  
ENDROOT
BRANCH   2   3
HETATM    3  N   UNL     1     -11.846  11.486  69.043  1.00  0.00    -0.329 NA 
BRANCH   3   4
HETATM    4  C   UNL     1     -10.992  12.690  69.055  1.00  0.00    -0.191 C  
BRANCH   4   5
HETATM    5  C   UNL     1     -11.725  14.038  68.905  1.00  0.00    -0.375 C  
BRANCH   5   6
HETATM    6  C   UNL     1     -11.493  14.731  67.559  1.00  0.00    -0.369 C  
BRANCH   6   7
HETATM    7  C   UNL     1     -10.413  15.786  67.678  1.00  0.00    -0.282 A  
HETATM    8  C   UNL     1      -9.059  15.428  67.623  1.00  0.00    -0.183 A  
HETATM    9  C   UNL     1      -8.066  16.409  67.669  1.00  0.00    -0.170 A  
HETATM   10  C   UNL     1     -10.752  17.143  67.785  1.00  0.00    -0.329 A  
HETATM   11  C   UNL     1      -8.415  17.754  67.770  1.00  0.00    -0.236 A  
HETATM   12  C   UNL     1      -9.758  18.122  67.831  1.00  0.00    -0.302 A  
ENDBRANCH   6   7
ENDBRANCH   5   6
ENDBRANCH   4   5
ENDBRANCH   3   4
BRANCH   3  13
HETATM   13  C   UNL     1     -11.537  10.631  67.877  1.00  0.00    -0.047 C  
BRANCH  13  14
HETATM   14  C   UNL     1     -10.524  11.217  66.892  1.00  0.00    -0.289 C  
BRANCH  14  15
HETATM   15  C   UNL     1     -10.369  10.374  65.623  1.00  0.00    -0.260 C  
BRANCH  15  16
HETATM   16  C   UNL     1      -8.900  10.240  65.309  1.00  0.00    -0.200 A  
HETATM   17  C   UNL     1      -6.172   9.764  64.925  1.00  0.00    -0.096 A  
HETATM   18  C   UNL     1      -6.591  10.679  65.893  1.00  0.00    -0.118 A  
HETATM   19  C   UNL     1      -8.472   9.338  64.325  1.00  0.00    -0.202 A  
HETATM   20  C   UNL     1      -7.109   9.102  64.139  1.00  0.00    -0.095 A  
HETATM   21  C   UNL     1      -7.950  10.920  66.080  1.00  0.00    -0.132 A  
ENDBRANCH  15  16
ENDBRANCH  14  15
ENDBRANCH  13  14
ENDBRANCH   3  13
ENDBRANCH   2   3
TORSDOF 9
ENDMDL
MODEL      313
REMARK 921   NORMALIZED FREE ENERGY PREDICTED BY IDOCK:   -2.89 KCAL/MOL
REMARK 922        TOTAL FREE ENERGY PREDICTED BY IDOCK:   -5.93 KCAL/MOL
REMARK 923 INTER-LIGAND FREE ENERGY PREDICTED BY IDOCK:   -4.83 KCAL/MOL
REMARK 924 INTRA-LIGAND FREE ENERGY PREDICTED BY IDOCK:   -1.10 KCAL/MOL
REMARK 927      BINDING AFFINITY PREDICTED BY RF-SCORE:    0.00 PKD
ROOT
HETATM    1  C   UNL     1     -12.953  11.959  70.574  1.00  0.00     0.176 C  
HETATM    2  C   UNL     1     -12.184  10.839  71.267  1.00  0.00    -0.321 C  
ENDROOT
BRANCH   2   3
HETATM    3  N   UNL     1     -11.632   9.789  70.381  1.00  0.00    -0.264 NA 
BRANCH   3   4
HETATM    4  C   UNL     1     -10.156   9.808  70.357  1.00  0.00    -0.252 C  
BRANCH   4   5
HETATM    5  C   UNL     1      -9.510  10.658  69.245  1.00  0.00    -0.152 C  
BRANCH   5   6
HETATM    6  C   UNL     1     -10.108  10.428  67.853  1.00  0.00    -0.200 C  
BRANCH   6   7
HETATM    7  C   UNL     1     -10.741  11.699  67.325  1.00  0.00    -0.281 A  
HETATM    8  C   UNL     1     -10.707  12.879  68.082  1.00  0.00    -0.258 A  
HETATM    9  C   UNL     1     -11.235  14.065  67.566  1.00  0.00    -0.328 A  
HETATM   10  C   UNL     1     -11.317  11.730  66.047  1.00  0.00    -0.335 A  
HETATM   11  C   UNL     1     -11.799  14.084  66.292  1.00  0.00    -0.428 A  
HETATM   12  C   UNL     1     -11.844  12.916  65.533  1.00  0.00    -0.455 A  
ENDBRANCH   6   7
ENDBRANCH   5   6
ENDBRANCH   4   5
ENDBRANCH   3   4
BRANCH   3  13
HETATM   13  C   UNL     1     -12.137   8.462  70.793  1.00  0.00    -0.055 C  
BRANCH  13  14
HETATM   14  C   UNL     1     -11.149   7.308  70.617  1.00  0.00    -0.287 C  
BRANCH  14  15
HETATM   15  C   UNL     1     -11.623   6.010  71.279  1.00  0.00    -0.186 C  
BRANCH  15  16
HETATM   16  C   UNL     1     -10.619   5.611  72.331  1.00  0.00    -0.270 A  
HETATM   17  C   UNL     1      -8.579   5.086  74.169  1.00  0.00    -0.111 A  
HETATM   18  C   UNL     1      -8.620   4.395  72.956  1.00  0.00    -0.101 A  
HETATM   19  C   UNL     1     -10.583   6.286  73.559  1.00  0.00    -0.288 A  
HETATM   20  C   UNL     1      -9.561   6.023  74.471  1.00  0.00    -0.232 A  
HETATM   21  C   UNL     1      -9.640   4.652  72.043  1.00  0.00    -0.205 A  
ENDBRANCH  15  16
ENDBRANCH  14  15
ENDBRANCH  13  14
ENDBRANCH   3  13
ENDBRANCH   2   3
TORSDOF 9
ENDMDL
MODEL      314
REMARK 921   NORMALIZED FREE ENERGY PREDICTED BY IDOCK:   -2.86 KCAL/MOL
REMARK 922        TOTAL FREE ENERGY PREDICTED BY IDOCK:   -5.88 KCAL/MOL
REMARK 923 INTER-LIGAND FREE ENERGY PREDICTED BY IDOCK:   -5.71 KCAL/MOL
REMARK 924 INTRA-LIGAND FREE ENERGY PREDICTED BY IDOCK:   -0.17 KCAL/MOL
REMARK 927      BINDING AFFINITY PREDICTED BY RF-SCORE:    0.00 PKD
ROOT
HETATM    1  C   UNL     1     -12.038  14.146  64.378  1.00  0.00    -0.486 C  
HETATM    2  C   UNL     1     -11.542  12.748  64.730  1.00  0.00    -0.325 C  
ENDROOT
BRANCH   2   3
HETATM    3  N   UNL     1     -10.727  12.643  65.962  1.00  0.00    -0.264 NA 
BRANCH   3   4
HETATM    4  C   UNL     1     -10.758  13.890  66.751  1.00  0.00    -0.281 C  
BRANCH   4   5
HETATM    5  C   UNL     1     -10.676  13.722  68.281  1.00  0.00    -0.264 C  
BRANCH   5   6
HETATM    6  C   UNL     1     -10.496  15.037  69.047  1.00  0.00    -0.245 C  
BRANCH   6   7
HETATM    7  C   UNL     1     -10.117  16.159  68.103  1.00  0.00    -0.237 A  
HETATM    8  C   UNL     1     -10.925  17.300  67.993  1.00  0.00    -0.194 A  
HETATM    9  C   UNL     1     -10.541  18.362  67.170  1.00  0.00    -0.416 A  
HETATM   10  C   UNL     1      -8.923  16.101  67.370  1.00  0.00    -0.201 A  
HETATM   11  C   UNL     1      -9.350  18.295  66.451  1.00  0.00    -0.280 A  
HETATM   12  C   UNL     1      -8.541  17.163  66.548  1.00  0.00    -0.306 A  
ENDBRANCH   6   7
ENDBRANCH   5   6
ENDBRANCH   4   5
ENDBRANCH   3   4
BRANCH   3  13
HETATM   13  C   UNL     1     -11.182  11.494  66.773  1.00  0.00    -0.285 C  
BRANCH  13  14
HETATM   14  C   UNL     1     -10.301  10.247  66.685  1.00  0.00    -0.283 C  
BRANCH  14  15
HETATM   15  C   UNL     1     -10.460   9.317  67.891  1.00  0.00    -0.290 C  
BRANCH  15  16
HETATM   16  C   UNL     1      -9.922   7.956  67.526  1.00  0.00    -0.250 A  
HETATM   17  C   UNL     1      -8.941   5.522  66.561  1.00  0.00    -0.123 A  
HETATM   18  C   UNL     1     -10.313   5.693  66.757  1.00  0.00    -0.316 A  
HETATM   19  C   UNL     1      -8.544   7.771  67.346  1.00  0.00    -0.125 A  
HETATM   20  C   UNL     1      -8.060   6.555  66.861  1.00  0.00    -0.113 A  
HETATM   21  C   UNL     1     -10.801   6.904  67.244  1.00  0.00    -0.426 A  
ENDBRANCH  15  16
ENDBRANCH  14  15
ENDBRANCH  13  14
ENDBRANCH   3  13
ENDBRANCH   2   3
TORSDOF 9
ENDMDL
MODEL      315
REMARK 921   NORMALIZED FREE ENERGY PREDICTED BY IDOCK:   -2.84 KCAL/MOL
REMARK 922        TOTAL FREE ENERGY PREDICTED BY IDOCK:   -5.85 KCAL/MOL
REMARK 923 INTER-LIGAND FREE ENERGY PREDICTED BY IDOCK:   -5.09 KCAL/MOL
REMARK 924 INTRA-LIGAND FREE ENERGY PREDICTED BY IDOCK:   -0.76 KCAL/MOL
REMARK 927      BINDING AFFINITY PREDICTED BY RF-SCORE:    0.00 PKD
ROOT
HETATM    1  C   UNL     1      -9.730   8.372  66.397  1.00  0.00    -0.312 C  
HETATM    2  C   UNL     1      -9.770   7.299  67.480  1.00  0.00    -0.145 C  
ENDROOT
BRANCH   2   3
HETATM    3  N   UNL     1     -10.634   7.591  68.647  1.00  0.00    -0.178 NA 
BRANCH   3   4
HETATM    4  C   UNL     1     -10.973   6.368  69.402  1.00  0.00    -0.359 C  
BRANCH   4   5
HETATM    5  C   UNL     1     -10.364   6.256  70.813  1.00  0.00    -0.256 C  
BRANCH   5   6
HETATM    6  C   UNL     1      -8.960   5.643  70.843  1.00  0.00    -0.151 C  
BRANCH   6   7
HETATM    7  C   UNL     1      -8.936   4.323  70.101  1.00  0.00    -0.144 A  
HETATM    8  C   UNL     1      -8.216   4.191  68.906  1.00  0.00    -0.078 A  
HETATM    9  C   UNL     1      -8.143   2.956  68.256  1.00  0.00    -0.070 A  
HETATM   10  C   UNL     1      -9.585   3.197  70.630  1.00  0.00    -0.212 A  
HETATM   11  C   UNL     1      -8.787   1.844  68.794  1.00  0.00    -0.135 A  
HETATM   12  C   UNL     1      -9.511   1.964  69.979  1.00  0.00    -0.133 A  
ENDBRANCH   6   7
ENDBRANCH   5   6
ENDBRANCH   4   5
ENDBRANCH   3   4
BRANCH   3  13
HETATM   13  C   UNL     1      -9.981   8.588  69.522  1.00  0.00    -0.193 C  
BRANCH  13  14
HETATM   14  C   UNL     1     -10.624   9.975  69.518  1.00  0.00    -0.267 C  
BRANCH  14  15
HETATM   15  C   UNL     1      -9.791  11.018  68.766  1.00  0.00    -0.206 C  
BRANCH  15  16
HETATM   16  C   UNL     1     -10.726  12.010  68.123  1.00  0.00    -0.246 A  
HETATM   17  C   UNL     1     -12.213  13.982  66.812  1.00  0.00    -0.439 A  
HETATM   18  C   UNL     1     -11.777  14.192  68.122  1.00  0.00    -0.390 A  
HETATM   19  C   UNL     1     -11.184  11.798  66.815  1.00  0.00    -0.388 A  
HETATM   20  C   UNL     1     -11.923  12.786  66.165  1.00  0.00    -0.476 A  
HETATM   21  C   UNL     1     -11.041  13.207  68.777  1.00  0.00    -0.309 A  
ENDBRANCH  15  16
ENDBRANCH  14  15
ENDBRANCH  13  14
ENDBRANCH   3  13
ENDBRANCH   2   3
TORSDOF 9
ENDMDL
MODEL      316
REMARK 921   NORMALIZED FREE ENERGY PREDICTED BY IDOCK:   -2.83 KCAL/MOL
REMARK 922        TOTAL FREE ENERGY PREDICTED BY IDOCK:   -5.84 KCAL/MOL
REMARK 923 INTER-LIGAND FREE ENERGY PREDICTED BY IDOCK:   -4.74 KCAL/MOL
REMARK 924 INTRA-LIGAND FREE ENERGY PREDICTED BY IDOCK:   -1.10 KCAL/MOL
REMARK 927      BINDING AFFINITY PREDICTED BY RF-SCORE:    0.00 PKD
ROOT
HETATM    1  C   UNL     1      -6.157  13.059  69.985  1.00  0.00    -0.112 C  
HETATM    2  C   UNL     1      -6.831  12.034  69.079  1.00  0.00    -0.105 C  
ENDROOT
BRANCH   2   3
HETATM    3  N   UNL     1      -7.250  12.527  67.747  1.00  0.00    -0.111 NA 
BRANCH   3   4
HETATM    4  C   UNL     1      -7.804  11.447  66.908  1.00  0.00    -0.158 C  
BRANCH   4   5
HETATM    5  C   UNL     1      -7.374  10.015  67.281  1.00  0.00    -0.090 C  
BRANCH   5   6
HETATM    6  C   UNL     1      -8.424   8.944  66.968  1.00  0.00    -0.112 C  
BRANCH   6   7
HETATM    7  C   UNL     1      -8.285   8.459  65.540  1.00  0.00    -0.140 A  
HETATM    8  C   UNL     1      -8.535   9.325  64.466  1.00  0.00    -0.195 A  
HETATM    9  C   UNL     1      -8.346   8.895  63.151  1.00  0.00    -0.185 A  
HETATM   10  C   UNL     1      -7.848   7.153  65.270  1.00  0.00    -0.121 A  
HETATM   11  C   UNL     1      -7.906   7.597  62.896  1.00  0.00    -0.129 A  
HETATM   12  C   UNL     1      -7.660   6.725  63.955  1.00  0.00    -0.108 A  
ENDBRANCH   6   7
ENDBRANCH   5   6
ENDBRANCH   4   5
ENDBRANCH   3   4
BRANCH   3  13
HETATM   13  C   UNL     1      -8.224  13.630  67.899  1.00  0.00    -0.171 C  
BRANCH  13  14
HETATM   14  C   UNL     1      -9.617  13.349  67.333  1.00  0.00    -0.223 C  
BRANCH  14  15
HETATM   15  C   UNL     1     -10.005  14.304  66.200  1.00  0.00    -0.330 C  
BRANCH  15  16
HETATM   16  C   UNL     1     -10.847  13.552  65.201  1.00  0.00    -0.336 A  
HETATM   17  C   UNL     1     -12.425  11.935  63.554  1.00  0.00    -0.609 A  
HETATM   18  C   UNL     1     -11.033  11.845  63.492  1.00  0.00    -0.505 A  
HETATM   19  C   UNL     1     -12.244  13.651  65.244  1.00  0.00    -0.466 A  
HETATM   20  C   UNL     1     -13.028  12.840  64.422  1.00  0.00    -0.178 A  
HETATM   21  C   UNL     1     -10.247  12.655  64.308  1.00  0.00    -0.358 A  
ENDBRANCH  15  16
ENDBRANCH  14  15
ENDBRANCH  13  14
ENDBRANCH   3  13
ENDBRANCH   2   3
TORSDOF 9
ENDMDL
MODEL      317
REMARK 921   NORMALIZED FREE ENERGY PREDICTED BY IDOCK:   -2.79 KCAL/MOL
REMARK 922        TOTAL FREE ENERGY PREDICTED BY IDOCK:   -5.78 KCAL/MOL
REMARK 923 INTER-LIGAND FREE ENERGY PREDICTED BY IDOCK:   -4.76 KCAL/MOL
REMARK 924 INTRA-LIGAND FREE ENERGY PREDICTED BY IDOCK:   -1.02 KCAL/MOL
REMARK 927      BINDING AFFINITY PREDICTED BY RF-SCORE:    0.00 PKD
ROOT
HETATM    1  C   UNL     1     -10.890   7.209  66.999  1.00  0.00    -0.382 C  
HETATM    2  C   UNL     1     -10.273   7.261  68.393  1.00  0.00    -0.180 C  
ENDROOT
BRANCH   2   3
HETATM    3  N   UNL     1      -9.836   5.962  68.954  1.00  0.00    -0.137 NA 
BRANCH   3   4
HETATM    4  C   UNL     1      -8.427   5.998  69.395  1.00  0.00    -0.115 C  
BRANCH   4   5
HETATM    5  C   UNL     1      -7.436   5.169  68.555  1.00  0.00    -0.074 C  
BRANCH   5   6
HETATM    6  C   UNL     1      -7.643   5.290  67.042  1.00  0.00    -0.092 C  
BRANCH   6   7
HETATM    7  C   UNL     1      -7.957   3.939  66.434  1.00  0.00    -0.097 A  
HETATM    8  C   UNL     1      -8.687   2.985  67.157  1.00  0.00    -0.140 A  
HETATM    9  C   UNL     1      -9.030   1.765  66.571  1.00  0.00    -0.103 A  
HETATM   10  C   UNL     1      -7.574   3.645  65.117  1.00  0.00    -0.077 A  
HETATM   11  C   UNL     1      -8.649   1.486  65.260  1.00  0.00    -0.104 A  
HETATM   12  C   UNL     1      -7.918   2.424  64.533  1.00  0.00    -0.077 A  
ENDBRANCH   6   7
ENDBRANCH   5   6
ENDBRANCH   4   5
ENDBRANCH   3   4
BRANCH   3  13
HETATM   13  C   UNL     1     -10.727   5.566  70.066  1.00  0.00    -0.286 C  
BRANCH  13  14
HETATM   14  C   UNL     1     -10.310   6.075  71.446  1.00  0.00    -0.269 C  
BRANCH  14  15
HETATM   15  C   UNL     1     -11.500   6.509  72.307  1.00  0.00    -0.326 C  
BRANCH  15  16
HETATM   16  C   UNL     1     -11.911   7.900  71.894  1.00  0.00    -0.347 A  
HETATM   17  C   UNL     1     -12.683  10.375  70.845  1.00  0.00    -0.477 A  
HETATM   18  C   UNL     1     -11.327  10.067  70.985  1.00  0.00    -0.434 A  
HETATM   19  C   UNL     1     -13.270   8.223  71.770  1.00  0.00    -0.368 A  
HETATM   20  C   UNL     1     -13.649   9.458  71.243  1.00  0.00    -0.296 A  
HETATM   21  C   UNL     1     -10.944   8.837  71.513  1.00  0.00    -0.377 A  
ENDBRANCH  15  16
ENDBRANCH  14  15
ENDBRANCH  13  14
ENDBRANCH   3  13
ENDBRANCH   2   3
TORSDOF 9
ENDMDL
MODEL      318
REMARK 921   NORMALIZED FREE ENERGY PREDICTED BY IDOCK:   -2.77 KCAL/MOL
REMARK 922        TOTAL FREE ENERGY PREDICTED BY IDOCK:   -5.75 KCAL/MOL
REMARK 923 INTER-LIGAND FREE ENERGY PREDICTED BY IDOCK:   -4.68 KCAL/MOL
REMARK 924 INTRA-LIGAND FREE ENERGY PREDICTED BY IDOCK:   -1.07 KCAL/MOL
REMARK 927      BINDING AFFINITY PREDICTED BY RF-SCORE:    0.00 PKD
ROOT
HETATM    1  C   UNL     1      -9.486   4.365  65.335  1.00  0.00    -0.175 C  
HETATM    2  C   UNL     1      -8.671   5.583  65.759  1.00  0.00    -0.151 C  
ENDROOT
BRANCH   2   3
HETATM    3  N   UNL     1      -9.338   6.510  66.701  1.00  0.00    -0.155 NA 
BRANCH   3   4
HETATM    4  C   UNL     1      -8.906   6.286  68.094  1.00  0.00    -0.113 C  
BRANCH   4   5
HETATM    5  C   UNL     1      -9.698   5.226  68.884  1.00  0.00    -0.207 C  
BRANCH   5   6
HETATM    6  C   UNL     1     -11.014   5.739  69.476  1.00  0.00    -0.374 C  
BRANCH   6   7
HETATM    7  C   UNL     1     -10.763   6.506  70.757  1.00  0.00    -0.290 A  
HETATM    8  C   UNL     1     -10.667   7.905  70.742  1.00  0.00    -0.230 A  
HETATM    9  C   UNL     1     -10.498   8.614  71.934  1.00  0.00    -0.410 A  
HETATM   10  C   UNL     1     -10.681   5.834  71.985  1.00  0.00    -0.285 A  
HETATM   11  C   UNL     1     -10.424   7.936  73.149  1.00  0.00    -0.348 A  
HETATM   12  C   UNL     1     -10.512   6.545  73.175  1.00  0.00    -0.272 A  
ENDBRANCH   6   7
ENDBRANCH   5   6
ENDBRANCH   4   5
ENDBRANCH   3   4
BRANCH   3  13
HETATM   13  C   UNL     1      -9.093   7.910  66.291  1.00  0.00    -0.179 C  
BRANCH  13  14
HETATM   14  C   UNL     1     -10.270   8.863  66.500  1.00  0.00    -0.319 C  
BRANCH  14  15
HETATM   15  C   UNL     1     -10.304   9.471  67.906  1.00  0.00    -0.276 C  
BRANCH  15  16
HETATM   16  C   UNL     1      -9.315  10.608  67.964  1.00  0.00    -0.151 A  
HETATM   17  C   UNL     1      -7.635  12.815  68.314  1.00  0.00    -0.134 A  
HETATM   18  C   UNL     1      -8.756  12.916  67.488  1.00  0.00    -0.190 A  
HETATM   19  C   UNL     1      -8.176  10.508  68.776  1.00  0.00    -0.134 A  
HETATM   20  C   UNL     1      -7.343  11.613  68.949  1.00  0.00    -0.107 A  
HETATM   21  C   UNL     1      -9.590  11.814  67.309  1.00  0.00    -0.182 A  
ENDBRANCH  15  16
ENDBRANCH  14  15
ENDBRANCH  13  14
ENDBRANCH   3  13
ENDBRANCH   2   3
TORSDOF 9
ENDMDL
MODEL      319
REMARK 921   NORMALIZED FREE ENERGY PREDICTED BY IDOCK:   -2.74 KCAL/MOL
REMARK 922        TOTAL FREE ENERGY PREDICTED BY IDOCK:   -5.70 KCAL/MOL
REMARK 923 INTER-LIGAND FREE ENERGY PREDICTED BY IDOCK:   -4.93 KCAL/MOL
REMARK 924 INTRA-LIGAND FREE ENERGY PREDICTED BY IDOCK:   -0.76 KCAL/MOL
REMARK 927      BINDING AFFINITY PREDICTED BY RF-SCORE:    0.00 PKD
ROOT
HETATM    1  C   UNL     1     -11.943  14.929  64.437  1.00  0.00    -0.408 C  
HETATM    2  C   UNL     1     -12.268  14.457  65.850  1.00  0.00    -0.341 C  
ENDROOT
BRANCH   2   3
HETATM    3  N   UNL     1     -11.182  14.604  66.846  1.00  0.00    -0.334 NA 
BRANCH   3   4
HETATM    4  C   UNL     1     -10.703  13.297  67.336  1.00  0.00    -0.258 C  
BRANCH   4   5
HETATM    5  C   UNL     1      -9.358  12.812  66.759  1.00  0.00    -0.241 C  
BRANCH   5   6
HETATM    6  C   UNL     1      -8.188  12.891  67.745  1.00  0.00    -0.174 C  
BRANCH   6   7
HETATM    7  C   UNL     1      -7.553  11.529  67.933  1.00  0.00    -0.113 A  
HETATM    8  C   UNL     1      -7.835  10.763  69.073  1.00  0.00    -0.138 A  
HETATM    9  C   UNL     1      -7.297   9.481  69.214  1.00  0.00    -0.072 A  
HETATM   10  C   UNL     1      -6.719  10.990  66.943  1.00  0.00    -0.120 A  
HETATM   11  C   UNL     1      -6.475   8.954  68.221  1.00  0.00    -0.059 A  
HETATM   12  C   UNL     1      -6.182   9.709  67.086  1.00  0.00    -0.064 A  
ENDBRANCH   6   7
ENDBRANCH   5   6
ENDBRANCH   4   5
ENDBRANCH   3   4
BRANCH   3  13
HETATM   13  C   UNL     1     -10.071  15.392  66.270  1.00  0.00    -0.292 C  
BRANCH  13  14
HETATM   14  C   UNL     1      -9.717  16.669  67.033  1.00  0.00    -0.253 C  
BRANCH  14  15
HETATM   15  C   UNL     1      -8.839  17.626  66.220  1.00  0.00    -0.209 C  
BRANCH  15  16
HETATM   16  C   UNL     1      -8.163  18.584  67.169  1.00  0.00    -0.256 A  
HETATM   17  C   UNL     1      -6.655  20.305  68.775  1.00  0.00    -0.312 A  
HETATM   18  C   UNL     1      -6.804  18.965  69.137  1.00  0.00    -0.327 A  
HETATM   19  C   UNL     1      -8.026  19.936  66.822  1.00  0.00    -0.340 A  
HETATM   20  C   UNL     1      -7.270  20.790  67.626  1.00  0.00    -0.332 A  
HETATM   21  C   UNL     1      -7.561  18.109  68.340  1.00  0.00    -0.290 A  
ENDBRANCH  15  16
ENDBRANCH  14  15
ENDBRANCH  13  14
ENDBRANCH   3  13
ENDBRANCH   2   3
TORSDOF 9
ENDMDL
MODEL      320
REMARK 921   NORMALIZED FREE ENERGY PREDICTED BY IDOCK:   -2.73 KCAL/MOL
REMARK 922        TOTAL FREE ENERGY PREDICTED BY IDOCK:   -5.68 KCAL/MOL
REMARK 923 INTER-LIGAND FREE ENERGY PREDICTED BY IDOCK:   -4.92 KCAL/MOL
REMARK 924 INTRA-LIGAND FREE ENERGY PREDICTED BY IDOCK:   -0.76 KCAL/MOL
REMARK 927      BINDING AFFINITY PREDICTED BY RF-SCORE:    0.00 PKD
ROOT
HETATM    1  C   UNL     1     -13.026  10.536  71.590  1.00  0.00    -0.581 C  
HETATM    2  C   UNL     1     -11.702  10.698  70.851  1.00  0.00    -0.289 C  
ENDROOT
BRANCH   2   3
HETATM    3  N   UNL     1     -11.648  10.119  69.488  1.00  0.00    -0.168 NA 
BRANCH   3   4
HETATM    4  C   UNL     1     -11.547  11.163  68.450  1.00  0.00    -0.306 C  
BRANCH   4   5
HETATM    5  C   UNL     1     -10.867  12.478  68.878  1.00  0.00    -0.238 C  
BRANCH   5   6
HETATM    6  C   UNL     1     -11.693  13.735  68.586  1.00  0.00    -0.391 C  
BRANCH   6   7
HETATM    7  C   UNL     1     -10.828  14.813  67.966  1.00  0.00    -0.261 A  
HETATM    8  C   UNL     1      -9.645  14.477  67.293  1.00  0.00    -0.226 A  
HETATM    9  C   UNL     1      -8.882  15.466  66.668  1.00  0.00    -0.330 A  
HETATM   10  C   UNL     1     -11.228  16.157  68.006  1.00  0.00    -0.291 A  
HETATM   11  C   UNL     1      -9.292  16.798  66.709  1.00  0.00    -0.263 A  
HETATM   12  C   UNL     1     -10.464  17.144  67.381  1.00  0.00    -0.334 A  
ENDBRANCH   6   7
ENDBRANCH   5   6
ENDBRANCH   4   5
ENDBRANCH   3   4
BRANCH   3  13
HETATM   13  C   UNL     1     -10.523   9.165  69.389  1.00  0.00    -0.219 C  
BRANCH  13  14
HETATM   14  C   UNL     1     -10.422   8.417  68.059  1.00  0.00    -0.242 C  
BRANCH  14  15
HETATM   15  C   UNL     1      -9.001   8.401  67.489  1.00  0.00    -0.142 C  
BRANCH  15  16
HETATM   16  C   UNL     1      -8.535   6.970  67.391  1.00  0.00    -0.122 A  
HETATM   17  C   UNL     1      -7.959   4.245  67.147  1.00  0.00    -0.097 A  
HETATM   18  C   UNL     1      -8.307   4.776  68.391  1.00  0.00    -0.090 A  
HETATM   19  C   UNL     1      -8.166   6.435  66.150  1.00  0.00    -0.122 A  
HETATM   20  C   UNL     1      -7.882   5.074  66.032  1.00  0.00    -0.099 A  
HETATM   21  C   UNL     1      -8.588   6.134  68.513  1.00  0.00    -0.113 A  
ENDBRANCH  15  16
ENDBRANCH  14  15
ENDBRANCH  13  14
ENDBRANCH   3  13
ENDBRANCH   2   3
TORSDOF 9
ENDMDL
MODEL      321
REMARK 921   NORMALIZED FREE ENERGY PREDICTED BY IDOCK:   -2.72 KCAL/MOL
REMARK 922        TOTAL FREE ENERGY PREDICTED BY IDOCK:   -5.67 KCAL/MOL
REMARK 923 INTER-LIGAND FREE ENERGY PREDICTED BY IDOCK:   -4.87 KCAL/MOL
REMARK 924 INTRA-LIGAND FREE ENERGY PREDICTED BY IDOCK:   -0.80 KCAL/MOL
REMARK 927      BINDING AFFINITY PREDICTED BY RF-SCORE:    0.00 PKD
ROOT
HETATM    1  C   UNL     1     -13.024  10.721  71.126  1.00  0.00    -0.467 C  
HETATM    2  C   UNL     1     -11.668  10.974  70.476  1.00  0.00    -0.318 C  
ENDROOT
BRANCH   2   3
HETATM    3  N   UNL     1     -11.470  10.371  69.138  1.00  0.00    -0.224 NA 
BRANCH   3   4
HETATM    4  C   UNL     1     -11.229  11.394  68.101  1.00  0.00    -0.278 C  
BRANCH   4   5
HETATM    5  C   UNL     1     -10.738  12.764  68.607  1.00  0.00    -0.273 C  
BRANCH   5   6
HETATM    6  C   UNL     1     -11.795  13.872  68.542  1.00  0.00    -0.401 C  
BRANCH   6   7
HETATM    7  C   UNL     1     -11.263  15.077  67.796  1.00  0.00    -0.327 A  
HETATM    8  C   UNL     1     -10.802  14.952  66.478  1.00  0.00    -0.322 A  
HETATM    9  C   UNL     1     -10.371  16.076  65.769  1.00  0.00    -0.398 A  
HETATM   10  C   UNL     1     -11.277  16.347  68.391  1.00  0.00    -0.324 A  
HETATM   11  C   UNL     1     -10.396  17.334  66.370  1.00  0.00    -0.316 A  
HETATM   12  C   UNL     1     -10.846  17.469  67.682  1.00  0.00    -0.229 A  
ENDBRANCH   6   7
ENDBRANCH   5   6
ENDBRANCH   4   5
ENDBRANCH   3   4
BRANCH   3  13
HETATM   13  C   UNL     1     -10.362   9.393  69.183  1.00  0.00    -0.211 C  
BRANCH  13  14
HETATM   14  C   UNL     1      -9.528   9.298  67.904  1.00  0.00    -0.154 C  
BRANCH  14  15
HETATM   15  C   UNL     1      -8.037   9.079  68.179  1.00  0.00    -0.105 C  
BRANCH  15  16
HETATM   16  C   UNL     1      -7.270   9.327  66.905  1.00  0.00    -0.086 A  
HETATM   17  C   UNL     1      -5.894  10.083  64.591  1.00  0.00    -0.113 A  
HETATM   18  C   UNL     1      -7.264   9.815  64.532  1.00  0.00    -0.128 A  
HETATM   19  C   UNL     1      -5.892   9.578  66.952  1.00  0.00    -0.055 A  
HETATM   20  C   UNL     1      -5.210   9.957  65.795  1.00  0.00    -0.041 A  
HETATM   21  C   UNL     1      -7.948   9.433  65.684  1.00  0.00    -0.103 A  
ENDBRANCH  15  16
ENDBRANCH  14  15
ENDBRANCH  13  14
ENDBRANCH   3  13
ENDBRANCH   2   3
TORSDOF 9
ENDMDL
MODEL      322
REMARK 921   NORMALIZED FREE ENERGY PREDICTED BY IDOCK:   -2.68 KCAL/MOL
REMARK 922        TOTAL FREE ENERGY PREDICTED BY IDOCK:   -5.61 KCAL/MOL
REMARK 923 INTER-LIGAND FREE ENERGY PREDICTED BY IDOCK:   -4.84 KCAL/MOL
REMARK 924 INTRA-LIGAND FREE ENERGY PREDICTED BY IDOCK:   -0.77 KCAL/MOL
REMARK 927      BINDING AFFINITY PREDICTED BY RF-SCORE:    0.00 PKD
ROOT
HETATM    1  C   UNL     1     -10.283   5.217  66.473  1.00  0.00    -0.293 C  
HETATM    2  C   UNL     1      -9.262   6.350  66.449  1.00  0.00    -0.155 C  
ENDROOT
BRANCH   2   3
HETATM    3  N   UNL     1      -9.113   7.112  67.710  1.00  0.00    -0.128 NA 
BRANCH   3   4
HETATM    4  C   UNL     1      -8.863   8.545  67.462  1.00  0.00    -0.135 C  
BRANCH   4   5
HETATM    5  C   UNL     1      -9.916   9.277  66.607  1.00  0.00    -0.333 C  
BRANCH   5   6
HETATM    6  C   UNL     1     -10.175  10.725  67.036  1.00  0.00    -0.261 C  
BRANCH   6   7
HETATM    7  C   UNL     1     -10.673  11.549  65.867  1.00  0.00    -0.325 A  
HETATM    8  C   UNL     1     -11.136  12.858  66.065  1.00  0.00    -0.308 A  
HETATM    9  C   UNL     1     -11.536  13.638  64.978  1.00  0.00    -0.338 A  
HETATM   10  C   UNL     1     -10.624  11.037  64.562  1.00  0.00    -0.383 A  
HETATM   11  C   UNL     1     -11.477  13.121  63.685  1.00  0.00    -0.376 A  
HETATM   12  C   UNL     1     -11.024  11.819  63.477  1.00  0.00    -0.499 A  
ENDBRANCH   6   7
ENDBRANCH   5   6
ENDBRANCH   4   5
ENDBRANCH   3   4
BRANCH   3  13
HETATM   13  C   UNL     1     -10.310   6.924  68.558  1.00  0.00    -0.186 C  
BRANCH  13  14
HETATM   14  C   UNL     1     -10.064   6.185  69.874  1.00  0.00    -0.227 C  
BRANCH  14  15
HETATM   15  C   UNL     1     -10.162   7.098  71.100  1.00  0.00    -0.200 C  
BRANCH  15  16
HETATM   16  C   UNL     1      -8.864   7.020  71.864  1.00  0.00    -0.128 A  
HETATM   17  C   UNL     1      -6.406   7.160  73.189  1.00  0.00    -0.060 A  
HETATM   18  C   UNL     1      -6.467   6.677  71.880  1.00  0.00    -0.050 A  
HETATM   19  C   UNL     1      -8.799   7.485  73.185  1.00  0.00    -0.210 A  
HETATM   20  C   UNL     1      -7.569   7.555  73.841  1.00  0.00    -0.152 A  
HETATM   21  C   UNL     1      -7.692   6.602  71.223  1.00  0.00    -0.094 A  
ENDBRANCH  15  16
ENDBRANCH  14  15
ENDBRANCH  13  14
ENDBRANCH   3  13
ENDBRANCH   2   3
TORSDOF 9
ENDMDL
MODEL      323
REMARK 921   NORMALIZED FREE ENERGY PREDICTED BY IDOCK:   -2.67 KCAL/MOL
REMARK 922        TOTAL FREE ENERGY PREDICTED BY IDOCK:   -5.59 KCAL/MOL
REMARK 923 INTER-LIGAND FREE ENERGY PREDICTED BY IDOCK:   -4.63 KCAL/MOL
REMARK 924 INTRA-LIGAND FREE ENERGY PREDICTED BY IDOCK:   -0.96 KCAL/MOL
REMARK 927      BINDING AFFINITY PREDICTED BY RF-SCORE:    0.00 PKD
ROOT
HETATM    1  C   UNL     1      -8.589  10.760  65.327  1.00  0.00    -0.153 C  
HETATM    2  C   UNL     1      -8.094  11.302  66.663  1.00  0.00    -0.160 C  
ENDROOT
BRANCH   2   3
HETATM    3  N   UNL     1      -9.046  12.160  67.405  1.00  0.00    -0.175 NA 
BRANCH   3   4
HETATM    4  C   UNL     1     -10.115  12.682  66.531  1.00  0.00    -0.248 C  
BRANCH   4   5
HETATM    5  C   UNL     1     -10.107  14.204  66.291  1.00  0.00    -0.308 C  
BRANCH   5   6
HETATM    6  C   UNL     1     -10.251  15.040  67.567  1.00  0.00    -0.234 C  
BRANCH   6   7
HETATM    7  C   UNL     1     -10.355  16.514  67.234  1.00  0.00    -0.296 A  
HETATM    8  C   UNL     1     -10.428  17.471  68.255  1.00  0.00    -0.383 A  
HETATM    9  C   UNL     1     -10.460  18.834  67.947  1.00  0.00    -0.448 A  
HETATM   10  C   UNL     1     -10.321  16.947  65.900  1.00  0.00    -0.327 A  
HETATM   11  C   UNL     1     -10.420  19.252  66.618  1.00  0.00    -0.541 A  
HETATM   12  C   UNL     1     -10.353  18.308  65.594  1.00  0.00    -0.046 A  
ENDBRANCH   6   7
ENDBRANCH   5   6
ENDBRANCH   4   5
ENDBRANCH   3   4
BRANCH   3  13
HETATM   13  C   UNL     1      -9.616  11.412  68.546  1.00  0.00    -0.189 C  
BRANCH  13  14
HETATM   14  C   UNL     1     -10.658  10.356  68.176  1.00  0.00    -0.246 C  
BRANCH  14  15
HETATM   15  C   UNL     1     -10.685   9.176  69.152  1.00  0.00    -0.190 C  
BRANCH  15  16
HETATM   16  C   UNL     1      -9.376   8.435  69.050  1.00  0.00    -0.147 A  
HETATM   17  C   UNL     1      -7.102   6.811  68.942  1.00  0.00    -0.089 A  
HETATM   18  C   UNL     1      -7.432   7.471  70.127  1.00  0.00    -0.086 A  
HETATM   19  C   UNL     1      -9.028   7.785  67.858  1.00  0.00    -0.125 A  
HETATM   20  C   UNL     1      -7.893   6.974  67.810  1.00  0.00    -0.113 A  
HETATM   21  C   UNL     1      -8.562   8.284  70.179  1.00  0.00    -0.128 A  
ENDBRANCH  15  16
ENDBRANCH  14  15
ENDBRANCH  13  14
ENDBRANCH   3  13
ENDBRANCH   2   3
TORSDOF 9
ENDMDL
MODEL      324
REMARK 921   NORMALIZED FREE ENERGY PREDICTED BY IDOCK:   -2.65 KCAL/MOL
REMARK 922        TOTAL FREE ENERGY PREDICTED BY IDOCK:   -5.56 KCAL/MOL
REMARK 923 INTER-LIGAND FREE ENERGY PREDICTED BY IDOCK:   -4.94 KCAL/MOL
REMARK 924 INTRA-LIGAND FREE ENERGY PREDICTED BY IDOCK:   -0.61 KCAL/MOL
REMARK 927      BINDING AFFINITY PREDICTED BY RF-SCORE:    0.00 PKD
ROOT
HETATM    1  C   UNL     1      -7.837  10.519  68.805  1.00  0.00    -0.116 C  
HETATM    2  C   UNL     1      -9.239  10.255  69.344  1.00  0.00    -0.189 C  
ENDROOT
BRANCH   2   3
HETATM    3  N   UNL     1      -9.675   8.840  69.345  1.00  0.00    -0.170 NA 
BRANCH   3   4
HETATM    4  C   UNL     1     -10.678   8.572  70.395  1.00  0.00    -0.228 C  
BRANCH   4   5
HETATM    5  C   UNL     1     -10.999   9.749  71.336  1.00  0.00    -0.258 C  
BRANCH   5   6
HETATM    6  C   UNL     1     -12.433  10.274  71.216  1.00  0.00    -0.514 C  
BRANCH   6   7
HETATM    7  C   UNL     1     -12.446  11.787  71.142  1.00  0.00    -0.390 A  
HETATM    8  C   UNL     1     -13.051  12.544  72.155  1.00  0.00    -0.428 A  
HETATM    9  C   UNL     1     -13.007  13.940  72.117  1.00  0.00    -0.441 A  
HETATM   10  C   UNL     1     -11.803  12.454  70.089  1.00  0.00    -0.341 A  
HETATM   11  C   UNL     1     -12.359  14.591  71.069  1.00  0.00    -0.417 A  
HETATM   12  C   UNL     1     -11.760  13.849  70.053  1.00  0.00    -0.338 A  
ENDBRANCH   6   7
ENDBRANCH   5   6
ENDBRANCH   4   5
ENDBRANCH   3   4
BRANCH   3  13
HETATM   13  C   UNL     1     -10.196   8.470  68.011  1.00  0.00    -0.213 C  
BRANCH  13  14
HETATM   14  C   UNL     1      -9.221   7.691  67.127  1.00  0.00    -0.158 C  
BRANCH  14  15
HETATM   15  C   UNL     1      -9.761   6.321  66.706  1.00  0.00    -0.193 C  
BRANCH  15  16
HETATM   16  C   UNL     1      -8.726   5.637  65.849  1.00  0.00    -0.147 A  
HETATM   17  C   UNL     1      -6.793   4.155  64.477  1.00  0.00    -0.045 A  
HETATM   18  C   UNL     1      -6.402   5.162  65.362  1.00  0.00    -0.035 A  
HETATM   19  C   UNL     1      -9.112   4.638  64.945  1.00  0.00    -0.154 A  
HETATM   20  C   UNL     1      -8.143   3.899  64.264  1.00  0.00    -0.090 A  
HETATM   21  C   UNL     1      -7.365   5.904  66.041  1.00  0.00    -0.077 A  
ENDBRANCH  15  16
ENDBRANCH  14  15
ENDBRANCH  13  14
ENDBRANCH   3  13
ENDBRANCH   2   3
TORSDOF 9
ENDMDL
MODEL      325
REMARK 921   NORMALIZED FREE ENERGY PREDICTED BY IDOCK:   -2.55 KCAL/MOL
REMARK 922        TOTAL FREE ENERGY PREDICTED BY IDOCK:   -5.41 KCAL/MOL
REMARK 923 INTER-LIGAND FREE ENERGY PREDICTED BY IDOCK:   -4.12 KCAL/MOL
REMARK 924 INTRA-LIGAND FREE ENERGY PREDICTED BY IDOCK:   -1.30 KCAL/MOL
REMARK 927      BINDING AFFINITY PREDICTED BY RF-SCORE:    0.00 PKD
ROOT
HETATM    1  C   UNL     1     -10.148   4.670  66.303  1.00  0.00    -0.292 C  
HETATM    2  C   UNL     1      -9.052   5.694  66.030  1.00  0.00    -0.156 C  
ENDROOT
BRANCH   2   3
HETATM    3  N   UNL     1      -8.581   6.465  67.204  1.00  0.00    -0.111 NA 
BRANCH   3   4
HETATM    4  C   UNL     1      -8.715   7.920  66.998  1.00  0.00    -0.129 C  
BRANCH   4   5
HETATM    5  C   UNL     1     -10.150   8.444  66.799  1.00  0.00    -0.373 C  
BRANCH   5   6
HETATM    6  C   UNL     1     -10.284   9.966  66.922  1.00  0.00    -0.302 C  
BRANCH   6   7
HETATM    7  C   UNL     1     -10.150  10.627  65.566  1.00  0.00    -0.343 A  
HETATM    8  C   UNL     1     -10.407  11.997  65.413  1.00  0.00    -0.301 A  
HETATM    9  C   UNL     1     -10.221  12.617  64.175  1.00  0.00    -0.366 A  
HETATM   10  C   UNL     1      -9.709   9.892  64.455  1.00  0.00    -0.223 A  
HETATM   11  C   UNL     1      -9.778  11.877  63.081  1.00  0.00    -0.216 A  
HETATM   12  C   UNL     1      -9.524  10.513  63.220  1.00  0.00    -0.360 A  
ENDBRANCH   6   7
ENDBRANCH   5   6
ENDBRANCH   4   5
ENDBRANCH   3   4
BRANCH   3  13
HETATM   13  C   UNL     1      -9.308   6.034  68.417  1.00  0.00    -0.119 C  
BRANCH  13  14
HETATM   14  C   UNL     1      -8.429   5.745  69.634  1.00  0.00    -0.112 C  
BRANCH  14  15
HETATM   15  C   UNL     1      -8.673   6.718  70.792  1.00  0.00    -0.146 C  
BRANCH  15  16
HETATM   16  C   UNL     1      -7.919   7.995  70.517  1.00  0.00    -0.096 A  
HETATM   17  C   UNL     1      -6.558  10.301  69.713  1.00  0.00    -0.090 A  
HETATM   18  C   UNL     1      -5.853   9.116  69.935  1.00  0.00    -0.035 A  
HETATM   19  C   UNL     1      -8.618   9.193  70.312  1.00  0.00    -0.218 A  
HETATM   20  C   UNL     1      -7.934  10.340  69.908  1.00  0.00    -0.092 A  
HETATM   21  C   UNL     1      -6.531   7.969  70.341  1.00  0.00    -0.037 A  
ENDBRANCH  15  16
ENDBRANCH  14  15
ENDBRANCH  13  14
ENDBRANCH   3  13
ENDBRANCH   2   3
TORSDOF 9
ENDMDL
MODEL      326
REMARK 921   NORMALIZED FREE ENERGY PREDICTED BY IDOCK:   -2.52 KCAL/MOL
REMARK 922        TOTAL FREE ENERGY PREDICTED BY IDOCK:   -5.37 KCAL/MOL
REMARK 923 INTER-LIGAND FREE ENERGY PREDICTED BY IDOCK:   -5.34 KCAL/MOL
REMARK 924 INTRA-LIGAND FREE ENERGY PREDICTED BY IDOCK:   -0.03 KCAL/MOL
REMARK 927      BINDING AFFINITY PREDICTED BY RF-SCORE:    0.00 PKD
ROOT
HETATM    1  C   UNL     1     -11.170   7.027  68.982  1.00  0.00    -0.054 C  
HETATM    2  C   UNL     1      -9.969   7.452  69.819  1.00  0.00    -0.188 C  
ENDROOT
BRANCH   2   3
HETATM    3  N   UNL     1     -10.140   8.690  70.614  1.00  0.00    -0.191 NA 
BRANCH   3   4
HETATM    4  C   UNL     1     -11.523   9.203  70.545  1.00  0.00    -0.229 C  
BRANCH   4   5
HETATM    5  C   UNL     1     -11.725  10.486  69.715  1.00  0.00    -0.354 C  
BRANCH   5   6
HETATM    6  C   UNL     1     -10.436  11.054  69.113  1.00  0.00    -0.238 C  
BRANCH   6   7
HETATM    7  C   UNL     1     -10.696  11.640  67.742  1.00  0.00    -0.244 A  
HETATM    8  C   UNL     1     -11.894  12.317  67.473  1.00  0.00    -0.331 A  
HETATM    9  C   UNL     1     -12.106  12.912  66.227  1.00  0.00    -0.433 A  
HETATM   10  C   UNL     1      -9.720  11.565  66.738  1.00  0.00    -0.220 A  
HETATM   11  C   UNL     1     -11.126  12.836  65.239  1.00  0.00    -0.320 A  
HETATM   12  C   UNL     1      -9.933  12.160  65.493  1.00  0.00    -0.269 A  
ENDBRANCH   6   7
ENDBRANCH   5   6
ENDBRANCH   4   5
ENDBRANCH   3   4
BRANCH   3  13
HETATM   13  C   UNL     1      -9.735   8.452  72.016  1.00  0.00    -0.283 C  
BRANCH  13  14
HETATM   14  C   UNL     1     -10.851   7.959  72.939  1.00  0.00    -0.451 C  
BRANCH  14  15
HETATM   15  C   UNL     1     -11.447   6.620  72.495  1.00  0.00    -0.269 C  
BRANCH  15  16
HETATM   16  C   UNL     1     -10.718   5.508  73.206  1.00  0.00    -0.314 A  
HETATM   17  C   UNL     1      -9.298   3.337  74.251  1.00  0.00    -0.112 A  
HETATM   18  C   UNL     1     -10.670   3.226  74.017  1.00  0.00    -0.283 A  
HETATM   19  C   UNL     1      -9.344   5.619  73.462  1.00  0.00    -0.138 A  
HETATM   20  C   UNL     1      -8.640   4.532  73.981  1.00  0.00    -0.105 A  
HETATM   21  C   UNL     1     -11.379   4.309  73.502  1.00  0.00    -0.316 A  
ENDBRANCH  15  16
ENDBRANCH  14  15
ENDBRANCH  13  14
ENDBRANCH   3  13
ENDBRANCH   2   3
TORSDOF 9
ENDMDL
MODEL      327
REMARK 921   NORMALIZED FREE ENERGY PREDICTED BY IDOCK:   -2.44 KCAL/MOL
REMARK 922        TOTAL FREE ENERGY PREDICTED BY IDOCK:   -5.25 KCAL/MOL
REMARK 923 INTER-LIGAND FREE ENERGY PREDICTED BY IDOCK:   -4.81 KCAL/MOL
REMARK 924 INTRA-LIGAND FREE ENERGY PREDICTED BY IDOCK:   -0.44 KCAL/MOL
REMARK 927      BINDING AFFINITY PREDICTED BY RF-SCORE:    0.00 PKD
ROOT
HETATM    1  C   UNL     1     -10.789   6.995  67.557  1.00  0.00    -0.338 C  
HETATM    2  C   UNL     1     -10.389   8.443  67.297  1.00  0.00    -0.299 C  
ENDROOT
BRANCH   2   3
HETATM    3  N   UNL     1      -8.939   8.692  67.132  1.00  0.00    -0.131 NA 
BRANCH   3   4
HETATM    4  C   UNL     1      -8.562  10.055  67.555  1.00  0.00    -0.122 C  
BRANCH   4   5
HETATM    5  C   UNL     1      -9.173  10.543  68.883  1.00  0.00    -0.188 C  
BRANCH   5   6
HETATM    6  C   UNL     1      -9.136   9.504  70.008  1.00  0.00    -0.255 C  
BRANCH   6   7
HETATM    7  C   UNL     1     -10.427   9.525  70.800  1.00  0.00    -0.384 A  
HETATM    8  C   UNL     1     -11.479  10.373  70.424  1.00  0.00    -0.420 A  
HETATM    9  C   UNL     1     -12.692  10.344  71.117  1.00  0.00    -0.514 A  
HETATM   10  C   UNL     1     -10.612   8.654  71.883  1.00  0.00    -0.411 A  
HETATM   11  C   UNL     1     -12.865   9.470  72.189  1.00  0.00    -0.471 A  
HETATM   12  C   UNL     1     -11.824   8.627  72.574  1.00  0.00    -0.342 A  
ENDBRANCH   6   7
ENDBRANCH   5   6
ENDBRANCH   4   5
ENDBRANCH   3   4
BRANCH   3  13
HETATM   13  C   UNL     1      -8.163   7.676  67.875  1.00  0.00    -0.123 C  
BRANCH  13  14
HETATM   14  C   UNL     1      -6.864   7.231  67.202  1.00  0.00    -0.077 C  
BRANCH  14  15
HETATM   15  C   UNL     1      -7.094   6.550  65.850  1.00  0.00    -0.062 C  
BRANCH  15  16
HETATM   16  C   UNL     1      -7.818   5.248  66.082  1.00  0.00    -0.103 A  
HETATM   17  C   UNL     1      -9.299   2.971  66.745  1.00  0.00    -0.120 A  
HETATM   18  C   UNL     1      -8.036   3.169  67.306  1.00  0.00    -0.082 A  
HETATM   19  C   UNL     1      -9.078   5.032  65.507  1.00  0.00    -0.159 A  
HETATM   20  C   UNL     1      -9.815   3.896  65.843  1.00  0.00    -0.137 A  
HETATM   21  C   UNL     1      -7.296   4.300  66.971  1.00  0.00    -0.073 A  
ENDBRANCH  15  16
ENDBRANCH  14  15
ENDBRANCH  13  14
ENDBRANCH   3  13
ENDBRANCH   2   3
TORSDOF 9
ENDMDL
MODEL      328
REMARK 921   NORMALIZED FREE ENERGY PREDICTED BY IDOCK:   -2.40 KCAL/MOL
REMARK 922        TOTAL FREE ENERGY PREDICTED BY IDOCK:   -5.18 KCAL/MOL
REMARK 923 INTER-LIGAND FREE ENERGY PREDICTED BY IDOCK:   -4.87 KCAL/MOL
REMARK 924 INTRA-LIGAND FREE ENERGY PREDICTED BY IDOCK:   -0.31 KCAL/MOL
REMARK 927      BINDING AFFINITY PREDICTED BY RF-SCORE:    0.00 PKD
ROOT
HETATM    1  C   UNL     1     -11.118  12.958  66.747  1.00  0.00    -0.315 C  
HETATM    2  C   UNL     1     -11.890  11.891  67.517  1.00  0.00    -0.179 C  
ENDROOT
BRANCH   2   3
HETATM    3  N   UNL     1     -11.257  11.412  68.767  1.00  0.00    -0.223 NA 
BRANCH   3   4
HETATM    4  C   UNL     1     -12.251  11.164  69.829  1.00  0.00    -0.300 C  
BRANCH   4   5
HETATM    5  C   UNL     1     -11.711  10.525  71.123  1.00  0.00    -0.323 C  
BRANCH   5   6
HETATM    6  C   UNL     1     -11.624   8.996  71.077  1.00  0.00    -0.360 C  
BRANCH   6   7
HETATM    7  C   UNL     1     -10.424   8.503  71.859  1.00  0.00    -0.387 A  
HETATM    8  C   UNL     1     -10.597   7.759  73.034  1.00  0.00    -0.441 A  
HETATM    9  C   UNL     1      -9.490   7.252  73.719  1.00  0.00    -0.313 A  
HETATM   10  C   UNL     1      -9.123   8.734  71.388  1.00  0.00    -0.313 A  
HETATM   11  C   UNL     1      -8.203   7.483  73.238  1.00  0.00    -0.163 A  
HETATM   12  C   UNL     1      -8.019   8.227  72.073  1.00  0.00    -0.176 A  
ENDBRANCH   6   7
ENDBRANCH   5   6
ENDBRANCH   4   5
ENDBRANCH   3   4
BRANCH   3  13
HETATM   13  C   UNL     1     -10.460  10.196  68.496  1.00  0.00    -0.195 C  
BRANCH  13  14
HETATM   14  C   UNL     1     -10.745   9.518  67.155  1.00  0.00    -0.252 C  
BRANCH  14  15
HETATM   15  C   UNL     1     -10.683   7.990  67.233  1.00  0.00    -0.280 C  
BRANCH  15  16
HETATM   16  C   UNL     1      -9.256   7.553  67.020  1.00  0.00    -0.167 A  
HETATM   17  C   UNL     1      -6.618   6.632  66.906  1.00  0.00    -0.048 A  
HETATM   18  C   UNL     1      -6.885   7.930  67.346  1.00  0.00    -0.070 A  
HETATM   19  C   UNL     1      -8.979   6.258  66.560  1.00  0.00    -0.150 A  
HETATM   20  C   UNL     1      -7.661   5.802  66.508  1.00  0.00    -0.100 A  
HETATM   21  C   UNL     1      -8.199   8.390  67.397  1.00  0.00    -0.120 A  
ENDBRANCH  15  16
ENDBRANCH  14  15
ENDBRANCH  13  14
ENDBRANCH   3  13
ENDBRANCH   2   3
TORSDOF 9
ENDMDL
MODEL      329
REMARK 921   NORMALIZED FREE ENERGY PREDICTED BY IDOCK:   -2.31 KCAL/MOL
REMARK 922        TOTAL FREE ENERGY PREDICTED BY IDOCK:   -5.04 KCAL/MOL
REMARK 923 INTER-LIGAND FREE ENERGY PREDICTED BY IDOCK:   -4.49 KCAL/MOL
REMARK 924 INTRA-LIGAND FREE ENERGY PREDICTED BY IDOCK:   -0.55 KCAL/MOL
REMARK 927      BINDING AFFINITY PREDICTED BY RF-SCORE:    0.00 PKD
ROOT
HETATM    1  C   UNL     1     -10.426   5.025  66.143  1.00  0.00    -0.334 C  
HETATM    2  C   UNL     1      -9.583   6.023  66.931  1.00  0.00    -0.140 C  
ENDROOT
BRANCH   2   3
HETATM    3  N   UNL     1     -10.330   7.107  67.608  1.00  0.00    -0.195 NA 
BRANCH   3   4
HETATM    4  C   UNL     1     -10.290   6.970  69.077  1.00  0.00    -0.200 C  
BRANCH   4   5
HETATM    5  C   UNL     1     -10.793   5.628  69.643  1.00  0.00    -0.365 C  
BRANCH   5   6
HETATM    6  C   UNL     1      -9.703   4.779  70.306  1.00  0.00    -0.296 C  
BRANCH   6   7
HETATM    7  C   UNL     1     -10.042   4.510  71.757  1.00  0.00    -0.254 A  
HETATM    8  C   UNL     1     -10.039   3.200  72.257  1.00  0.00    -0.216 A  
HETATM    9  C   UNL     1     -10.290   2.959  73.610  1.00  0.00    -0.220 A  
HETATM   10  C   UNL     1     -10.305   5.570  72.636  1.00  0.00    -0.238 A  
HETATM   11  C   UNL     1     -10.545   4.021  74.475  1.00  0.00    -0.220 A  
HETATM   12  C   UNL     1     -10.556   5.328  73.988  1.00  0.00    -0.321 A  
ENDBRANCH   6   7
ENDBRANCH   5   6
ENDBRANCH   4   5
ENDBRANCH   3   4
BRANCH   3  13
HETATM   13  C   UNL     1      -9.805   8.423  67.186  1.00  0.00    -0.215 C  
BRANCH  13  14
HETATM   14  C   UNL     1     -10.775   9.593  67.352  1.00  0.00    -0.308 C  
BRANCH  14  15
HETATM   15  C   UNL     1     -10.548  10.380  68.646  1.00  0.00    -0.234 C  
BRANCH  15  16
HETATM   16  C   UNL     1      -9.081  10.710  68.758  1.00  0.00    -0.170 A  
HETATM   17  C   UNL     1      -6.310  11.088  68.783  1.00  0.00    -0.049 A  
HETATM   18  C   UNL     1      -6.913  10.281  69.750  1.00  0.00    -0.129 A  
HETATM   19  C   UNL     1      -8.472  11.536  67.803  1.00  0.00    -0.137 A  
HETATM   20  C   UNL     1      -7.089  11.719  67.818  1.00  0.00    -0.096 A  
HETATM   21  C   UNL     1      -8.294  10.097  69.741  1.00  0.00    -0.154 A  
ENDBRANCH  15  16
ENDBRANCH  14  15
ENDBRANCH  13  14
ENDBRANCH   3  13
ENDBRANCH   2   3
TORSDOF 9
ENDMDL
MODEL      330
REMARK 921   NORMALIZED FREE ENERGY PREDICTED BY IDOCK:   -2.19 KCAL/MOL
REMARK 922        TOTAL FREE ENERGY PREDICTED BY IDOCK:   -4.85 KCAL/MOL
REMARK 923 INTER-LIGAND FREE ENERGY PREDICTED BY IDOCK:   -3.85 KCAL/MOL
REMARK 924 INTRA-LIGAND FREE ENERGY PREDICTED BY IDOCK:   -1.00 KCAL/MOL
REMARK 927      BINDING AFFINITY PREDICTED BY RF-SCORE:    0.00 PKD
ROOT
HETATM    1  C   UNL     1     -11.021   6.396  68.635  1.00  0.00    -0.404 C  
HETATM    2  C   UNL     1      -9.978   7.018  67.712  1.00  0.00    -0.152 C  
ENDROOT
BRANCH   2   3
HETATM    3  N   UNL     1      -8.578   6.961  68.190  1.00  0.00    -0.124 NA 
BRANCH   3   4
HETATM    4  C   UNL     1      -7.669   7.745  67.330  1.00  0.00    -0.113 C  
BRANCH   4   5
HETATM    5  C   UNL     1      -8.299   8.952  66.607  1.00  0.00    -0.111 C  
BRANCH   5   6
HETATM    6  C   UNL     1      -8.198  10.269  67.382  1.00  0.00    -0.114 C  
BRANCH   6   7
HETATM    7  C   UNL     1      -9.470  11.077  67.235  1.00  0.00    -0.179 A  
HETATM    8  C   UNL     1     -10.135  11.140  66.002  1.00  0.00    -0.292 A  
HETATM    9  C   UNL     1     -11.342  11.833  65.884  1.00  0.00    -0.324 A  
HETATM   10  C   UNL     1     -10.034  11.726  68.343  1.00  0.00    -0.202 A  
HETATM   11  C   UNL     1     -11.895  12.469  66.994  1.00  0.00    -0.394 A  
HETATM   12  C   UNL     1     -11.240  12.419  68.223  1.00  0.00    -0.309 A  
ENDBRANCH   6   7
ENDBRANCH   5   6
ENDBRANCH   4   5
ENDBRANCH   3   4
BRANCH   3  13
HETATM   13  C   UNL     1      -8.503   7.420  69.594  1.00  0.00    -0.133 C  
BRANCH  13  14
HETATM   14  C   UNL     1      -7.117   7.327  70.235  1.00  0.00    -0.065 C  
BRANCH  14  15
HETATM   15  C   UNL     1      -6.658   5.883  70.457  1.00  0.00    -0.047 C  
BRANCH  15  16
HETATM   16  C   UNL     1      -7.738   5.143  71.205  1.00  0.00    -0.101 A  
HETATM   17  C   UNL     1      -9.933   3.981  72.490  1.00  0.00    -0.222 A  
HETATM   18  C   UNL     1      -9.155   4.929  73.158  1.00  0.00    -0.119 A  
HETATM   19  C   UNL     1      -8.511   4.176  70.548  1.00  0.00    -0.095 A  
HETATM   20  C   UNL     1      -9.607   3.601  71.192  1.00  0.00    -0.247 A  
HETATM   21  C   UNL     1      -8.058   5.503  72.520  1.00  0.00    -0.103 A  
ENDBRANCH  15  16
ENDBRANCH  14  15
ENDBRANCH  13  14
ENDBRANCH   3  13
ENDBRANCH   2   3
TORSDOF 9
ENDMDL
MODEL      331
REMARK 921   NORMALIZED FREE ENERGY PREDICTED BY IDOCK:   -2.05 KCAL/MOL
REMARK 922        TOTAL FREE ENERGY PREDICTED BY IDOCK:   -4.65 KCAL/MOL
REMARK 923 INTER-LIGAND FREE ENERGY PREDICTED BY IDOCK:   -3.86 KCAL/MOL
REMARK 924 INTRA-LIGAND FREE ENERGY PREDICTED BY IDOCK:   -0.79 KCAL/MOL
REMARK 927      BINDING AFFINITY PREDICTED BY RF-SCORE:    0.00 PKD
ROOT
HETATM    1  C   UNL     1     -11.015   6.997  67.387  1.00  0.00    -0.336 C  
HETATM    2  C   UNL     1     -10.135   8.229  67.568  1.00  0.00    -0.225 C  
ENDROOT
BRANCH   2   3
HETATM    3  N   UNL     1      -9.922   8.671  68.966  1.00  0.00    -0.187 NA 
BRANCH   3   4
HETATM    4  C   UNL     1      -9.160   7.678  69.748  1.00  0.00    -0.147 C  
BRANCH   4   5
HETATM    5  C   UNL     1      -7.664   7.986  69.954  1.00  0.00    -0.099 C  
BRANCH   5   6
HETATM    6  C   UNL     1      -6.746   7.376  68.890  1.00  0.00    -0.049 C  
BRANCH   6   7
HETATM    7  C   UNL     1      -7.241   6.005  68.477  1.00  0.00    -0.084 A  
HETATM    8  C   UNL     1      -7.652   5.765  67.159  1.00  0.00    -0.099 A  
HETATM    9  C   UNL     1      -8.048   4.485  66.764  1.00  0.00    -0.102 A  
HETATM   10  C   UNL     1      -7.241   4.942  69.392  1.00  0.00    -0.056 A  
HETATM   11  C   UNL     1      -8.038   3.435  67.681  1.00  0.00    -0.080 A  
HETATM   12  C   UNL     1      -7.637   3.664  68.996  1.00  0.00    -0.053 A  
ENDBRANCH   6   7
ENDBRANCH   5   6
ENDBRANCH   4   5
ENDBRANCH   3   4
BRANCH   3  13
HETATM   13  C   UNL     1      -9.249   9.987  68.983  1.00  0.00    -0.178 C  
BRANCH  13  14
HETATM   14  C   UNL     1     -10.022  11.122  68.310  1.00  0.00    -0.196 C  
BRANCH  14  15
HETATM   15  C   UNL     1      -9.186  12.393  68.136  1.00  0.00    -0.205 C  
BRANCH  15  16
HETATM   16  C   UNL     1      -9.921  13.331  67.211  1.00  0.00    -0.231 A  
HETATM   17  C   UNL     1     -11.019  15.109  65.354  1.00  0.00    -0.381 A  
HETATM   18  C   UNL     1     -10.507  15.589  66.561  1.00  0.00    -0.301 A  
HETATM   19  C   UNL     1     -10.456  12.854  66.007  1.00  0.00    -0.290 A  
HETATM   20  C   UNL     1     -11.000  13.745  65.082  1.00  0.00    -0.337 A  
HETATM   21  C   UNL     1      -9.965  14.703  67.489  1.00  0.00    -0.223 A  
ENDBRANCH  15  16
ENDBRANCH  14  15
ENDBRANCH  13  14
ENDBRANCH   3  13
ENDBRANCH   2   3
TORSDOF 9
ENDMDL
MODEL      332
REMARK 921   NORMALIZED FREE ENERGY PREDICTED BY IDOCK:   -2.05 KCAL/MOL
REMARK 922        TOTAL FREE ENERGY PREDICTED BY IDOCK:   -4.64 KCAL/MOL
REMARK 923 INTER-LIGAND FREE ENERGY PREDICTED BY IDOCK:   -3.72 KCAL/MOL
REMARK 924 INTRA-LIGAND FREE ENERGY PREDICTED BY IDOCK:   -0.91 KCAL/MOL
REMARK 927      BINDING AFFINITY PREDICTED BY RF-SCORE:    0.00 PKD
ROOT
HETATM    1  C   UNL     1     -10.938   6.788  66.954  1.00  0.00    -0.370 C  
HETATM    2  C   UNL     1     -10.648   7.728  68.119  1.00  0.00    -0.124 C  
ENDROOT
BRANCH   2   3
HETATM    3  N   UNL     1      -9.217   8.004  68.386  1.00  0.00    -0.135 NA 
BRANCH   3   4
HETATM    4  C   UNL     1      -8.756   9.230  67.705  1.00  0.00    -0.116 C  
BRANCH   4   5
HETATM    5  C   UNL     1      -7.707   9.030  66.594  1.00  0.00    -0.096 C  
BRANCH   5   6
HETATM    6  C   UNL     1      -6.628   7.995  66.930  1.00  0.00    -0.057 C  
BRANCH   6   7
HETATM    7  C   UNL     1      -7.066   6.608  66.509  1.00  0.00    -0.068 A  
HETATM    8  C   UNL     1      -7.585   6.384  65.226  1.00  0.00    -0.091 A  
HETATM    9  C   UNL     1      -7.929   5.093  64.818  1.00  0.00    -0.104 A  
HETATM   10  C   UNL     1      -6.905   5.517  67.375  1.00  0.00    -0.060 A  
HETATM   11  C   UNL     1      -7.759   4.016  65.685  1.00  0.00    -0.089 A  
HETATM   12  C   UNL     1      -7.250   4.228  66.966  1.00  0.00    -0.068 A  
ENDBRANCH   6   7
ENDBRANCH   5   6
ENDBRANCH   4   5
ENDBRANCH   3   4
BRANCH   3  13
HETATM   13  C   UNL     1      -8.982   8.089  69.843  1.00  0.00    -0.145 C  
BRANCH  13  14
HETATM   14  C   UNL     1      -9.898   9.056  70.594  1.00  0.00    -0.284 C  
BRANCH  14  15
HETATM   15  C   UNL     1      -9.816   8.897  72.115  1.00  0.00    -0.252 C  
BRANCH  15  16
HETATM   16  C   UNL     1     -10.228   7.492  72.476  1.00  0.00    -0.283 A  
HETATM   17  C   UNL     1     -11.201   5.011  73.321  1.00  0.00    -0.411 A  
HETATM   18  C   UNL     1     -10.163   5.628  74.022  1.00  0.00    -0.273 A  
HETATM   19  C   UNL     1     -11.256   6.856  71.766  1.00  0.00    -0.284 A  
HETATM   20  C   UNL     1     -11.740   5.620  72.193  1.00  0.00    -0.149 A  
HETATM   21  C   UNL     1      -9.674   6.861  73.597  1.00  0.00    -0.266 A  
ENDBRANCH  15  16
ENDBRANCH  14  15
ENDBRANCH  13  14
ENDBRANCH   3  13
ENDBRANCH   2   3
TORSDOF 9
ENDMDL
MODEL      333
REMARK 921   NORMALIZED FREE ENERGY PREDICTED BY IDOCK:   -1.94 KCAL/MOL
REMARK 922        TOTAL FREE ENERGY PREDICTED BY IDOCK:   -4.47 KCAL/MOL
REMARK 923 INTER-LIGAND FREE ENERGY PREDICTED BY IDOCK:   -4.07 KCAL/MOL
REMARK 924 INTRA-LIGAND FREE ENERGY PREDICTED BY IDOCK:   -0.40 KCAL/MOL
REMARK 927      BINDING AFFINITY PREDICTED BY RF-SCORE:    0.00 PKD
ROOT
HETATM    1  C   UNL     1     -11.158   6.460  67.190  1.00  0.00    -0.422 C  
HETATM    2  C   UNL     1     -10.612   7.838  67.548  1.00  0.00    -0.248 C  
ENDROOT
BRANCH   2   3
HETATM    3  N   UNL     1     -11.096   8.414  68.823  1.00  0.00     0.208 NA 
BRANCH   3   4
HETATM    4  C   UNL     1     -10.316   7.930  69.979  1.00  0.00    -0.221 C  
BRANCH   4   5
HETATM    5  C   UNL     1     -11.048   6.961  70.928  1.00  0.00    -0.313 C  
BRANCH   5   6
HETATM    6  C   UNL     1     -10.250   5.700  71.273  1.00  0.00    -0.279 C  
BRANCH   6   7
HETATM    7  C   UNL     1      -9.048   5.560  70.364  1.00  0.00    -0.164 A  
HETATM    8  C   UNL     1      -7.821   6.144  70.712  1.00  0.00    -0.103 A  
HETATM    9  C   UNL     1      -6.696   5.961  69.904  1.00  0.00    -0.052 A  
HETATM   10  C   UNL     1      -9.127   4.797  69.190  1.00  0.00    -0.155 A  
HETATM   11  C   UNL     1      -6.786   5.195  68.743  1.00  0.00    -0.050 A  
HETATM   12  C   UNL     1      -8.002   4.615  68.384  1.00  0.00    -0.080 A  
ENDBRANCH   6   7
ENDBRANCH   5   6
ENDBRANCH   4   5
ENDBRANCH   3   4
BRANCH   3  13
HETATM   13  C   UNL     1     -11.073   9.891  68.752  1.00  0.00    -0.135 C  
BRANCH  13  14
HETATM   14  C   UNL     1     -11.858  10.498  67.588  1.00  0.00     0.745 C  
BRANCH  14  15
HETATM   15  C   UNL     1     -11.756  12.025  67.531  1.00  0.00    -0.351 C  
BRANCH  15  16
HETATM   16  C   UNL     1     -11.774  12.456  66.086  1.00  0.00    -0.460 A  
HETATM   17  C   UNL     1     -11.538  13.384  63.459  1.00  0.00    -0.198 A  
HETATM   18  C   UNL     1     -12.171  14.171  64.423  1.00  0.00    -0.466 A  
HETATM   19  C   UNL     1     -11.158  11.662  65.108  1.00  0.00    -0.300 A  
HETATM   20  C   UNL     1     -11.040  12.131  63.799  1.00  0.00    -0.505 A  
HETATM   21  C   UNL     1     -12.293  13.706  65.730  1.00  0.00    -0.524 A  
ENDBRANCH  15  16
ENDBRANCH  14  15
ENDBRANCH  13  14
ENDBRANCH   3  13
ENDBRANCH   2   3
TORSDOF 9
ENDMDL
MODEL      334
REMARK 921   NORMALIZED FREE ENERGY PREDICTED BY IDOCK:   -1.41 KCAL/MOL
REMARK 922        TOTAL FREE ENERGY PREDICTED BY IDOCK:   -3.67 KCAL/MOL
REMARK 923 INTER-LIGAND FREE ENERGY PREDICTED BY IDOCK:   -3.65 KCAL/MOL
REMARK 924 INTRA-LIGAND FREE ENERGY PREDICTED BY IDOCK:   -0.02 KCAL/MOL
REMARK 927      BINDING AFFINITY PREDICTED BY RF-SCORE:    0.00 PKD
ROOT
HETATM    1  C   UNL     1     -10.146  12.269  65.924  1.00  0.00    -0.272 C  
HETATM    2  C   UNL     1     -10.276  10.758  66.082  1.00  0.00    -0.250 C  
ENDROOT
BRANCH   2   3
HETATM    3  N   UNL     1      -9.545  10.162  67.223  1.00  0.00    -0.157 NA 
BRANCH   3   4
HETATM    4  C   UNL     1     -10.369   9.180  67.954  1.00  0.00    -0.232 C  
BRANCH   4   5
HETATM    5  C   UNL     1     -10.167   9.134  69.482  1.00  0.00    -0.208 C  
BRANCH   5   6
HETATM    6  C   UNL     1     -10.359   7.744  70.098  1.00  0.00    -0.218 C  
BRANCH   6   7
HETATM    7  C   UNL     1      -9.522   7.593  71.350  1.00  0.00    -0.166 A  
HETATM    8  C   UNL     1     -10.009   8.032  72.590  1.00  0.00    -0.358 A  
HETATM    9  C   UNL     1      -9.262   7.834  73.753  1.00  0.00    -0.316 A  
HETATM   10  C   UNL     1      -8.272   6.958  71.299  1.00  0.00    -0.114 A  
HETATM   11  C   UNL     1      -8.024   7.197  73.691  1.00  0.00    -0.130 A  
HETATM   12  C   UNL     1      -7.527   6.761  72.463  1.00  0.00    -0.091 A  
ENDBRANCH   6   7
ENDBRANCH   5   6
ENDBRANCH   4   5
ENDBRANCH   3   4
BRANCH   3  13
HETATM   13  C   UNL     1      -8.286   9.547  66.751  1.00  0.00    -0.113 C  
BRANCH  13  14
HETATM   14  C   UNL     1      -8.458   8.350  65.815  1.00  0.00    -0.169 C  
BRANCH  14  15
HETATM   15  C   UNL     1      -9.535   7.370  66.291  1.00  0.00    -0.144 C  
BRANCH  15  16
HETATM   16  C   UNL     1      -8.878   6.051  66.613  1.00  0.00    -0.125 A  
HETATM   17  C   UNL     1      -7.785   3.630  67.485  1.00  0.00    -0.078 A  
HETATM   18  C   UNL     1      -7.065   4.816  67.639  1.00  0.00    -0.062 A  
HETATM   19  C   UNL     1      -9.588   4.854  66.444  1.00  0.00    -0.177 A  
HETATM   20  C   UNL     1      -9.039   3.649  66.884  1.00  0.00    -0.182 A  
HETATM   21  C   UNL     1      -7.607   6.021  67.198  1.00  0.00    -0.092 A  
ENDBRANCH  15  16
ENDBRANCH  14  15
ENDBRANCH  13  14
ENDBRANCH   3  13
ENDBRANCH   2   3
TORSDOF 9
ENDMDL
MODEL      335
REMARK 921   NORMALIZED FREE ENERGY PREDICTED BY IDOCK:   -0.84 KCAL/MOL
REMARK 922        TOTAL FREE ENERGY PREDICTED BY IDOCK:   -2.80 KCAL/MOL
REMARK 923 INTER-LIGAND FREE ENERGY PREDICTED BY IDOCK:   -3.63 KCAL/MOL
REMARK 924 INTRA-LIGAND FREE ENERGY PREDICTED BY IDOCK:    0.83 KCAL/MOL
REMARK 927      BINDING AFFINITY PREDICTED BY RF-SCORE:    0.00 PKD
ROOT
HETATM    1  C   UNL     1      -6.595  12.489  68.148  1.00  0.00    -0.077 C  
HETATM    2  C   UNL     1      -8.114  12.606  68.084  1.00  0.00    -0.164 C  
ENDROOT
BRANCH   2   3
HETATM    3  N   UNL     1      -8.827  11.446  67.501  1.00  0.00    -0.144 NA 
BRANCH   3   4
HETATM    4  C   UNL     1      -9.856  10.914  68.416  1.00  0.00    -0.177 C  
BRANCH   4   5
HETATM    5  C   UNL     1     -10.449  11.920  69.422  1.00  0.00     0.157 C  
BRANCH   5   6
HETATM    6  C   UNL     1     -10.415  13.376  68.947  1.00  0.00    -0.135 C  
BRANCH   6   7
HETATM    7  C   UNL     1     -11.340  14.235  69.784  1.00  0.00    -0.279 A  
HETATM    8  C   UNL     1     -12.685  13.877  69.954  1.00  0.00    -0.027 A  
HETATM    9  C   UNL     1     -13.520  14.636  70.777  1.00  0.00    -0.195 A  
HETATM   10  C   UNL     1     -10.850  15.368  70.450  1.00  0.00    -0.333 A  
HETATM   11  C   UNL     1     -13.020  15.756  71.439  1.00  0.00    -0.478 A  
HETATM   12  C   UNL     1     -11.686  16.125  71.273  1.00  0.00    -0.480 A  
ENDBRANCH   6   7
ENDBRANCH   5   6
ENDBRANCH   4   5
ENDBRANCH   3   4
BRANCH   3  13
HETATM   13  C   UNL     1      -9.420  11.819  66.199  1.00  0.00    -0.226 C  
BRANCH  13  14
HETATM   14  C   UNL     1      -9.216  10.801  65.076  1.00  0.00    -0.241 C  
BRANCH  14  15
HETATM   15  C   UNL     1      -9.570   9.371  65.496  1.00  0.00    -0.328 C  
BRANCH  15  16
HETATM   16  C   UNL     1      -8.306   8.549  65.526  1.00  0.00    -0.163 A  
HETATM   17  C   UNL     1      -5.825   7.262  65.449  1.00  0.00    -0.037 A  
HETATM   18  C   UNL     1      -6.724   7.108  64.392  1.00  0.00    -0.046 A  
HETATM   19  C   UNL     1      -7.407   8.683  66.593  1.00  0.00    -0.081 A  
HETATM   20  C   UNL     1      -6.169   8.041  66.549  1.00  0.00    -0.050 A  
HETATM   21  C   UNL     1      -7.962   7.745  64.433  1.00  0.00    -0.126 A  
ENDBRANCH  15  16
ENDBRANCH  14  15
ENDBRANCH  13  14
ENDBRANCH   3  13
ENDBRANCH   2   3
TORSDOF 9
ENDMDL
