MODEL        1
REMARK 921   NORMALIZED FREE ENERGY PREDICTED BY IDOCK:   -8.23 KCAL/MOL
REMARK 922        TOTAL FREE ENERGY PREDICTED BY IDOCK:  -10.76 KCAL/MOL
REMARK 923 INTER-LIGAND FREE ENERGY PREDICTED BY IDOCK:  -10.15 KCAL/MOL
REMARK 924 INTRA-LIGAND FREE ENERGY PREDICTED BY IDOCK:   -0.60 KCAL/MOL
REMARK 927      BINDING AFFINITY PREDICTED BY RF-SCORE:    0.00 PKD
ROOT
HETATM    1  C   UNL     1     -11.530  10.403  68.965  1.00  0.00    -0.258 C  
HETATM    2  C   UNL     1     -11.111  10.558  67.482  1.00  0.00    -0.358 C  
HETATM    3  C   UNL     1     -10.959  12.071  67.198  1.00  0.00    -0.270 C  
HETATM    4  N   UNL     1      -9.843  12.631  67.973  1.00  0.00    -0.212 NA 
HETATM    5  C   UNL     1      -9.573   9.847  65.556  1.00  0.00    -0.341 C  
HETATM    6  C   UNL     1      -8.579  11.991  67.604  1.00  0.00    -0.163 C  
HETATM    7  C   UNL     1      -8.616  10.478  67.806  1.00  0.00    -0.118 C  
HETATM    8  C   UNL     1      -9.799   9.773  67.090  1.00  0.00    -0.238 C  
ENDROOT
BRANCH   4   9
HETATM    9  C   UNL     1      -9.791  14.094  67.855  1.00  0.00    -0.224 C  
HETATM   10  C   UNL     1     -10.394  14.846  69.058  1.00  0.00    -0.245 C  
HETATM   11  C   UNL     1     -10.228  16.345  68.849  1.00  0.00    -0.258 C  
HETATM   12  N   UNL     1     -10.941  16.910  67.808  1.00  0.00    -0.273 N  
HETATM   13  O   UNL     1      -9.496  17.007  69.573  1.00  0.00     0.028 OA 
HETATM   14  C   UNL     1     -11.858  14.459  69.344  1.00  0.00    -0.369 C  
HETATM   15  H   UNL     1     -11.577  16.349  67.241  1.00  0.00     0.000 HD 
BRANCH  14  16
HETATM   16  C   UNL     1     -12.355  15.030  70.655  1.00  0.00    -0.404 A  
HETATM   17  C   UNL     1     -14.178  15.482  72.196  1.00  0.00    -0.617 A  
HETATM   18  C   UNL     1     -13.725  15.026  70.956  1.00  0.00    -0.417 A  
HETATM   19  C   UNL     1     -11.454  15.520  71.609  1.00  0.00    -0.496 A  
HETATM   20  C   UNL     1     -13.268  15.943  73.147  1.00  0.00    -0.692 A  
HETATM   21  C   UNL     1     -11.908  15.967  72.849  1.00  0.00    -0.555 A  
ENDBRANCH  14  16
BRANCH  12  22
HETATM   22  C   UNL     1     -10.755  18.342  67.545  1.00  0.00    -0.355 C  
HETATM   23  O   UNL     1     -10.583  17.533  65.285  1.00  0.00    -0.664 OA 
HETATM   24  O   UNL     1     -10.141  19.722  65.643  1.00  0.00    -0.388 OA 
HETATM   25  C   UNL     1     -10.450  18.624  66.081  1.00  0.00    -0.430 C  
ENDBRANCH  12  22
ENDBRANCH   4   9
BRANCH   8  26
HETATM   26  C   UNL     1      -9.834   8.262  67.430  1.00  0.00    -0.246 A  
HETATM   27  C   UNL     1     -10.541   5.980  66.952  1.00  0.00    -0.315 A  
HETATM   28  C   UNL     1      -9.197   7.758  68.584  1.00  0.00    -0.138 A  
HETATM   29  O   UNL     1     -11.226   5.082  66.186  1.00  0.00    -0.610 OA 
HETATM   30  C   UNL     1      -9.942   5.512  68.110  1.00  0.00    -0.197 A  
HETATM   31  H   UNL     1     -11.278   4.166  66.433  1.00  0.00     0.000 HD 
HETATM   32  C   UNL     1      -9.251   6.403  68.921  1.00  0.00    -0.128 A  
HETATM   33  C   UNL     1     -10.464   7.326  66.590  1.00  0.00    -0.204 A  
ENDBRANCH   8  26
TORSDOF 4
ENDMDL
MODEL        2
REMARK 921   NORMALIZED FREE ENERGY PREDICTED BY IDOCK:   -7.78 KCAL/MOL
REMARK 922        TOTAL FREE ENERGY PREDICTED BY IDOCK:  -10.20 KCAL/MOL
REMARK 923 INTER-LIGAND FREE ENERGY PREDICTED BY IDOCK:  -10.04 KCAL/MOL
REMARK 924 INTRA-LIGAND FREE ENERGY PREDICTED BY IDOCK:   -0.17 KCAL/MOL
REMARK 927      BINDING AFFINITY PREDICTED BY RF-SCORE:    0.00 PKD
ROOT
HETATM    1  C   UNL     1      -8.126  10.101  67.497  1.00  0.00    -0.113 C  
HETATM    2  C   UNL     1      -9.001  10.498  68.712  1.00  0.00    -0.166 C  
HETATM    3  C   UNL     1      -9.068  12.043  68.752  1.00  0.00     0.083 C  
HETATM    4  N   UNL     1      -9.785  12.558  67.577  1.00  0.00    -0.193 NA 
HETATM    5  C   UNL     1     -11.170  10.179  70.044  1.00  0.00    -0.361 C  
HETATM    6  C   UNL     1     -11.164  12.064  67.549  1.00  0.00    -0.294 C  
HETATM    7  C   UNL     1     -11.232  10.539  67.546  1.00  0.00    -0.299 C  
HETATM    8  C   UNL     1     -10.449   9.868  68.706  1.00  0.00    -0.234 C  
ENDROOT
BRANCH   4   9
HETATM    9  C   UNL     1      -9.708  14.023  67.503  1.00  0.00    -0.232 C  
HETATM   10  C   UNL     1     -10.287  14.748  68.733  1.00  0.00    -0.248 C  
HETATM   11  C   UNL     1     -10.097  16.250  68.569  1.00  0.00    -0.239 C  
HETATM   12  N   UNL     1     -10.809  16.859  67.552  1.00  0.00    -0.264 N  
HETATM   13  O   UNL     1      -9.347  16.876  69.306  1.00  0.00    -0.177 OA 
HETATM   14  C   UNL     1     -11.755  14.378  69.021  1.00  0.00    -0.345 C  
HETATM   15  H   UNL     1     -11.459  16.327  66.974  1.00  0.00     0.000 HD 
BRANCH  14  16
HETATM   16  C   UNL     1     -12.231  14.917  70.353  1.00  0.00    -0.393 A  
HETATM   17  C   UNL     1     -14.042  15.434  71.888  1.00  0.00    -0.636 A  
HETATM   18  C   UNL     1     -13.603  15.009  70.632  1.00  0.00    -0.132 A  
HETATM   19  C   UNL     1     -11.313  15.280  71.347  1.00  0.00    -0.419 A  
HETATM   20  C   UNL     1     -13.117  15.768  72.877  1.00  0.00    -0.618 A  
HETATM   21  C   UNL     1     -11.754  15.697  72.602  1.00  0.00    -0.555 A  
ENDBRANCH  14  16
BRANCH  12  22
HETATM   22  C   UNL     1     -10.600  18.294  67.331  1.00  0.00    -0.401 C  
HETATM   23  O   UNL     1     -10.974  17.627  65.049  1.00  0.00    -0.780 OA 
HETATM   24  O   UNL     1     -10.335  19.765  65.416  1.00  0.00    -0.380 OA 
HETATM   25  C   UNL     1     -10.606  18.656  65.852  1.00  0.00    -0.321 C  
ENDBRANCH  12  22
ENDBRANCH   4   9
BRANCH   8  26
HETATM   26  C   UNL     1     -10.472   8.325  68.572  1.00  0.00    -0.199 A  
HETATM   27  C   UNL     1     -10.821   6.298  67.264  1.00  0.00    -0.375 A  
HETATM   28  C   UNL     1     -10.187   7.491  69.674  1.00  0.00    -0.205 A  
HETATM   29  O   UNL     1     -11.165   5.679  66.098  1.00  0.00    -0.763 OA 
HETATM   30  C   UNL     1     -10.576   5.499  68.369  1.00  0.00    -0.210 A  
HETATM   31  H   UNL     1     -11.221   4.733  66.043  1.00  0.00     0.000 HD 
HETATM   32  C   UNL     1     -10.241   6.098  69.576  1.00  0.00    -0.250 A  
HETATM   33  C   UNL     1     -10.738   7.690  67.345  1.00  0.00    -0.318 A  
ENDBRANCH   8  26
TORSDOF 4
ENDMDL
MODEL        3
REMARK 921   NORMALIZED FREE ENERGY PREDICTED BY IDOCK:   -7.56 KCAL/MOL
REMARK 922        TOTAL FREE ENERGY PREDICTED BY IDOCK:   -9.93 KCAL/MOL
REMARK 923 INTER-LIGAND FREE ENERGY PREDICTED BY IDOCK:   -8.97 KCAL/MOL
REMARK 924 INTRA-LIGAND FREE ENERGY PREDICTED BY IDOCK:   -0.96 KCAL/MOL
REMARK 927      BINDING AFFINITY PREDICTED BY RF-SCORE:    0.00 PKD
ROOT
HETATM    1  C   UNL     1     -11.722   8.548  71.566  1.00  0.00    -0.354 C  
HETATM    2  C   UNL     1     -11.002   7.985  70.316  1.00  0.00    -0.242 C  
HETATM    3  C   UNL     1     -11.072   9.066  69.212  1.00  0.00     0.060 C  
HETATM    4  N   UNL     1     -10.294  10.251  69.602  1.00  0.00    -0.241 NA 
HETATM    5  C   UNL     1      -8.948   6.820  69.312  1.00  0.00    -0.137 C  
HETATM    6  C   UNL     1      -8.882   9.910  69.787  1.00  0.00    -0.211 C  
HETATM    7  C   UNL     1      -8.683   8.817  70.834  1.00  0.00    -0.235 C  
HETATM    8  C   UNL     1      -9.511   7.531  70.572  1.00  0.00    -0.164 C  
ENDROOT
BRANCH   4   9
HETATM    9  C   UNL     1     -10.489  11.354  68.653  1.00  0.00    -0.201 C  
HETATM   10  C   UNL     1     -10.966  12.668  69.302  1.00  0.00    -0.123 C  
HETATM   11  C   UNL     1     -11.073  13.748  68.234  1.00  0.00    -0.255 C  
HETATM   12  N   UNL     1     -12.044  13.571  67.266  1.00  0.00    -0.355 N  
HETATM   13  O   UNL     1     -10.329  14.720  68.241  1.00  0.00    -0.230 OA 
HETATM   14  C   UNL     1     -12.275  12.511  70.100  1.00  0.00    -0.307 C  
HETATM   15  H   UNL     1     -12.681  12.775  67.300  1.00  0.00     0.000 HD 
BRANCH  14  16
HETATM   16  C   UNL     1     -12.602  13.745  70.913  1.00  0.00    -0.428 A  
HETATM   17  C   UNL     1     -14.203  15.078  72.164  1.00  0.00    -0.636 A  
HETATM   18  C   UNL     1     -13.914  13.980  71.350  1.00  0.00    -0.220 A  
HETATM   19  C   UNL     1     -11.594  14.642  71.288  1.00  0.00    -0.252 A  
HETATM   20  C   UNL     1     -13.185  15.949  72.551  1.00  0.00    -0.521 A  
HETATM   21  C   UNL     1     -11.883  15.733  72.107  1.00  0.00    -0.593 A  
ENDBRANCH  14  16
BRANCH  12  22
HETATM   22  C   UNL     1     -12.131  14.565  66.190  1.00  0.00    -0.286 C  
HETATM   23  O   UNL     1     -13.000  12.663  64.998  1.00  0.00    -0.812 OA 
HETATM   24  O   UNL     1     -12.629  14.552  63.812  1.00  0.00    -0.825 OA 
HETATM   25  C   UNL     1     -12.594  13.952  64.876  1.00  0.00    -0.347 C  
ENDBRANCH  12  22
ENDBRANCH   4   9
BRANCH   8  26
HETATM   26  C   UNL     1      -9.343   6.515  71.730  1.00  0.00    -0.149 A  
HETATM   27  C   UNL     1      -9.915   4.419  72.833  1.00  0.00    -0.153 A  
HETATM   28  C   UNL     1      -8.460   6.767  72.800  1.00  0.00    -0.124 A  
HETATM   29  O   UNL     1     -10.645   3.268  72.896  1.00  0.00    -0.160 OA 
HETATM   30  C   UNL     1      -9.071   4.705  73.893  1.00  0.00    -0.111 A  
HETATM   31  H   UNL     1     -10.566   2.678  73.636  1.00  0.00     0.000 HD 
HETATM   32  C   UNL     1      -8.326   5.876  73.869  1.00  0.00    -0.114 A  
HETATM   33  C   UNL     1     -10.030   5.288  71.745  1.00  0.00    -0.245 A  
ENDBRANCH   8  26
TORSDOF 4
ENDMDL
MODEL        4
REMARK 921   NORMALIZED FREE ENERGY PREDICTED BY IDOCK:   -7.48 KCAL/MOL
REMARK 922        TOTAL FREE ENERGY PREDICTED BY IDOCK:   -9.84 KCAL/MOL
REMARK 923 INTER-LIGAND FREE ENERGY PREDICTED BY IDOCK:   -9.46 KCAL/MOL
REMARK 924 INTRA-LIGAND FREE ENERGY PREDICTED BY IDOCK:   -0.38 KCAL/MOL
REMARK 927      BINDING AFFINITY PREDICTED BY RF-SCORE:    0.00 PKD
ROOT
HETATM    1  C   UNL     1     -12.210   6.768  70.226  1.00  0.00    -0.098 C  
HETATM    2  C   UNL     1     -10.728   6.693  69.783  1.00  0.00    -0.304 C  
HETATM    3  C   UNL     1     -10.468   7.878  68.824  1.00  0.00    -0.176 C  
HETATM    4  N   UNL     1     -10.591   9.156  69.539  1.00  0.00    -0.222 NA 
HETATM    5  C   UNL     1      -8.259   6.430  70.434  1.00  0.00    -0.121 C  
HETATM    6  C   UNL     1      -9.605   9.247  70.619  1.00  0.00    -0.273 C  
HETATM    7  C   UNL     1      -9.736   8.101  71.619  1.00  0.00    -0.238 C  
HETATM    8  C   UNL     1      -9.691   6.690  70.975  1.00  0.00    -0.185 C  
ENDROOT
BRANCH   4   9
HETATM    9  C   UNL     1     -10.523  10.295  68.615  1.00  0.00    -0.193 C  
HETATM   10  C   UNL     1     -10.924  11.644  69.244  1.00  0.00    -0.246 C  
HETATM   11  C   UNL     1     -10.756  12.751  68.214  1.00  0.00    -0.239 C  
HETATM   12  N   UNL     1     -11.602  12.715  67.120  1.00  0.00    -0.348 N  
HETATM   13  O   UNL     1      -9.910  13.624  68.355  1.00  0.00    -0.225 OA 
HETATM   14  C   UNL     1     -12.339  11.632  69.856  1.00  0.00    -0.226 C  
HETATM   15  H   UNL     1     -12.327  12.002  67.039  1.00  0.00     0.000 HD 
BRANCH  14  16
HETATM   16  C   UNL     1     -12.624  12.879  70.665  1.00  0.00    -0.256 A  
HETATM   17  C   UNL     1     -12.830  15.296  70.803  1.00  0.00    -0.494 A  
HETATM   18  C   UNL     1     -12.494  14.148  70.081  1.00  0.00    -0.391 A  
HETATM   19  C   UNL     1     -13.075  12.786  71.988  1.00  0.00    -0.474 A  
HETATM   20  C   UNL     1     -13.302  15.187  72.111  1.00  0.00    -0.501 A  
HETATM   21  C   UNL     1     -13.417  13.932  72.703  1.00  0.00    -0.652 A  
ENDBRANCH  14  16
BRANCH  12  22
HETATM   22  C   UNL     1     -11.423  13.735  66.079  1.00  0.00    -0.326 C  
HETATM   23  O   UNL     1     -13.189  12.467  65.045  1.00  0.00    -0.700 OA 
HETATM   24  O   UNL     1     -12.238  14.115  63.823  1.00  0.00    -0.600 OA 
HETATM   25  C   UNL     1     -12.299  13.475  64.862  1.00  0.00    -0.407 C  
ENDBRANCH  12  22
ENDBRANCH   4   9
BRANCH   8  26
HETATM   26  C   UNL     1      -9.940   5.587  72.034  1.00  0.00    -0.225 A  
HETATM   27  C   UNL     1     -10.079   3.243  72.686  1.00  0.00    -0.160 A  
HETATM   28  C   UNL     1     -10.297   5.914  73.359  1.00  0.00    -0.246 A  
HETATM   29  O   UNL     1     -10.015   1.916  72.377  1.00  0.00    -0.117 OA 
HETATM   30  C   UNL     1     -10.467   3.586  73.971  1.00  0.00    -0.258 A  
HETATM   31  H   UNL     1     -10.216   1.251  73.024  1.00  0.00     0.000 HD 
HETATM   32  C   UNL     1     -10.560   4.928  74.315  1.00  0.00    -0.321 A  
HETATM   33  C   UNL     1      -9.783   4.222  71.735  1.00  0.00    -0.237 A  
ENDBRANCH   8  26
TORSDOF 4
ENDMDL
MODEL        5
REMARK 921   NORMALIZED FREE ENERGY PREDICTED BY IDOCK:   -7.46 KCAL/MOL
REMARK 922        TOTAL FREE ENERGY PREDICTED BY IDOCK:   -9.81 KCAL/MOL
REMARK 923 INTER-LIGAND FREE ENERGY PREDICTED BY IDOCK:   -9.35 KCAL/MOL
REMARK 924 INTRA-LIGAND FREE ENERGY PREDICTED BY IDOCK:   -0.46 KCAL/MOL
REMARK 927      BINDING AFFINITY PREDICTED BY RF-SCORE:    0.00 PKD
ROOT
HETATM    1  C   UNL     1      -9.991  10.061  64.842  1.00  0.00    -0.286 C  
HETATM    2  C   UNL     1      -8.829  10.108  65.864  1.00  0.00    -0.167 C  
HETATM    3  C   UNL     1      -8.602  11.590  66.243  1.00  0.00    -0.133 C  
HETATM    4  N   UNL     1      -9.768  12.122  66.963  1.00  0.00    -0.199 NA 
HETATM    5  C   UNL     1      -7.767   9.197  68.015  1.00  0.00    -0.092 C  
HETATM    6  C   UNL     1      -9.993  11.385  68.208  1.00  0.00    -0.198 C  
HETATM    7  C   UNL     1     -10.195   9.891  67.967  1.00  0.00    -0.219 C  
HETATM    8  C   UNL     1      -9.056   9.222  67.151  1.00  0.00    -0.149 C  
ENDROOT
BRANCH   4   9
HETATM    9  C   UNL     1      -9.650  13.570  67.177  1.00  0.00    -0.241 C  
HETATM   10  C   UNL     1     -10.291  14.069  68.487  1.00  0.00    -0.247 C  
HETATM   11  C   UNL     1     -10.053  15.565  68.627  1.00  0.00    -0.210 C  
HETATM   12  N   UNL     1     -10.681  16.383  67.706  1.00  0.00    -0.331 N  
HETATM   13  O   UNL     1      -9.337  16.012  69.514  1.00  0.00    -0.241 OA 
HETATM   14  C   UNL     1     -11.784  13.705  68.610  1.00  0.00    -0.389 C  
HETATM   15  H   UNL     1     -11.305  15.996  66.997  1.00  0.00     0.000 HD 
BRANCH  14  16
HETATM   16  C   UNL     1     -12.333  13.997  69.989  1.00  0.00    -0.397 A  
HETATM   17  C   UNL     1     -13.318  15.551  71.577  1.00  0.00    -0.593 A  
HETATM   18  C   UNL     1     -12.741  15.295  70.331  1.00  0.00    -0.400 A  
HETATM   19  C   UNL     1     -12.494  12.969  70.927  1.00  0.00    -0.396 A  
HETATM   20  C   UNL     1     -13.496  14.513  72.491  1.00  0.00    -0.580 A  
HETATM   21  C   UNL     1     -13.078  13.225  72.167  1.00  0.00    -0.486 A  
ENDBRANCH  14  16
BRANCH  12  22
HETATM   22  C   UNL     1     -10.422  17.826  67.778  1.00  0.00    -0.397 C  
HETATM   23  O   UNL     1     -10.748  17.636  65.401  1.00  0.00    -0.618 OA 
HETATM   24  O   UNL     1     -10.055  19.635  66.199  1.00  0.00    -0.419 OA 
HETATM   25  C   UNL     1     -10.373  18.472  66.401  1.00  0.00    -0.423 C  
ENDBRANCH  12  22
ENDBRANCH   4   9
BRANCH   8  26
HETATM   26  C   UNL     1      -9.384   7.737  66.853  1.00  0.00    -0.212 A  
HETATM   27  C   UNL     1      -8.794   5.564  65.923  1.00  0.00    -0.150 A  
HETATM   28  C   UNL     1     -10.624   7.175  67.222  1.00  0.00    -0.398 A  
HETATM   29  O   UNL     1      -7.926   4.753  65.252  1.00  0.00    -0.093 OA 
HETATM   30  C   UNL     1     -10.032   5.043  66.259  1.00  0.00    -0.247 A  
HETATM   31  H   UNL     1      -8.159   3.858  65.035  1.00  0.00     0.000 HD 
HETATM   32  C   UNL     1     -10.946   5.847  66.927  1.00  0.00    -0.304 A  
HETATM   33  C   UNL     1      -8.451   6.879  66.242  1.00  0.00    -0.131 A  
ENDBRANCH   8  26
TORSDOF 4
ENDMDL
MODEL        6
REMARK 921   NORMALIZED FREE ENERGY PREDICTED BY IDOCK:   -7.38 KCAL/MOL
REMARK 922        TOTAL FREE ENERGY PREDICTED BY IDOCK:   -9.71 KCAL/MOL
REMARK 923 INTER-LIGAND FREE ENERGY PREDICTED BY IDOCK:   -8.86 KCAL/MOL
REMARK 924 INTRA-LIGAND FREE ENERGY PREDICTED BY IDOCK:   -0.85 KCAL/MOL
REMARK 927      BINDING AFFINITY PREDICTED BY RF-SCORE:    0.00 PKD
ROOT
HETATM    1  C   UNL     1     -10.623  14.911  65.113  1.00  0.00    -0.450 C  
HETATM    2  C   UNL     1     -10.704  14.611  66.630  1.00  0.00    -0.305 C  
HETATM    3  C   UNL     1     -10.584  13.079  66.808  1.00  0.00    -0.262 C  
HETATM    4  N   UNL     1      -9.252  12.615  66.395  1.00  0.00    -0.202 NA 
HETATM    5  C   UNL     1      -9.912  15.141  69.013  1.00  0.00    -0.239 C  
HETATM    6  C   UNL     1      -8.208  13.231  67.217  1.00  0.00    -0.158 C  
HETATM    7  C   UNL     1      -8.246  14.756  67.154  1.00  0.00    -0.239 C  
HETATM    8  C   UNL     1      -9.629  15.369  67.503  1.00  0.00    -0.206 C  
ENDROOT
BRANCH   4   9
HETATM    9  C   UNL     1      -9.174  11.149  66.388  1.00  0.00    -0.183 C  
HETATM   10  C   UNL     1     -10.062  10.465  67.447  1.00  0.00    -0.237 C  
HETATM   11  C   UNL     1      -9.945   8.954  67.303  1.00  0.00    -0.216 C  
HETATM   12  N   UNL     1      -8.715   8.395  67.599  1.00  0.00    -0.136 N  
HETATM   13  O   UNL     1     -10.898   8.277  66.941  1.00  0.00    -0.228 OA 
HETATM   14  C   UNL     1      -9.765  10.935  68.884  1.00  0.00    -0.198 C  
HETATM   15  H   UNL     1      -7.943   8.971  67.936  1.00  0.00     0.000 HD 
BRANCH  14  16
HETATM   16  C   UNL     1     -10.791  10.430  69.876  1.00  0.00    -0.353 A  
HETATM   17  C   UNL     1     -11.373   9.028  71.772  1.00  0.00    -0.447 A  
HETATM   18  C   UNL     1     -10.450   9.440  70.808  1.00  0.00    -0.372 A  
HETATM   19  C   UNL     1     -12.079  10.981  69.915  1.00  0.00    -0.435 A  
HETATM   20  C   UNL     1     -12.642   9.602  71.816  1.00  0.00    -0.497 A  
HETATM   21  C   UNL     1     -12.995  10.574  70.884  1.00  0.00    -0.455 A  
ENDBRANCH  14  16
BRANCH  12  22
HETATM   22  C   UNL     1      -8.554   6.949  67.411  1.00  0.00    -0.121 C  
HETATM   23  O   UNL     1      -8.202   7.047  69.790  1.00  0.00    -0.127 OA 
HETATM   24  O   UNL     1      -7.851   5.061  68.768  1.00  0.00    -0.077 OA 
HETATM   25  C   UNL     1      -8.157   6.242  68.699  1.00  0.00    -0.109 C  
ENDBRANCH  12  22
ENDBRANCH   4   9
BRANCH   8  26
HETATM   26  C   UNL     1      -9.620  16.906  67.311  1.00  0.00    -0.246 A  
HETATM   27  C   UNL     1      -8.672  18.933  66.346  1.00  0.00    -0.303 A  
HETATM   28  C   UNL     1     -10.559  17.730  67.965  1.00  0.00    -0.372 A  
HETATM   29  O   UNL     1      -7.731  19.560  65.582  1.00  0.00    -0.423 OA 
HETATM   30  C   UNL     1      -9.579  19.726  67.029  1.00  0.00    -0.490 A  
HETATM   31  H   UNL     1      -7.709  20.507  65.511  1.00  0.00     0.000 HD 
HETATM   32  C   UNL     1     -10.539  19.121  67.829  1.00  0.00    -0.498 A  
HETATM   33  C   UNL     1      -8.705  17.541  66.451  1.00  0.00    -0.273 A  
ENDBRANCH   8  26
TORSDOF 4
ENDMDL
MODEL        7
REMARK 921   NORMALIZED FREE ENERGY PREDICTED BY IDOCK:   -7.37 KCAL/MOL
REMARK 922        TOTAL FREE ENERGY PREDICTED BY IDOCK:   -9.70 KCAL/MOL
REMARK 923 INTER-LIGAND FREE ENERGY PREDICTED BY IDOCK:   -9.52 KCAL/MOL
REMARK 924 INTRA-LIGAND FREE ENERGY PREDICTED BY IDOCK:   -0.18 KCAL/MOL
REMARK 927      BINDING AFFINITY PREDICTED BY RF-SCORE:    0.00 PKD
ROOT
HETATM    1  C   UNL     1     -10.977  14.993  64.973  1.00  0.00    -0.436 C  
HETATM    2  C   UNL     1     -11.157  14.645  66.471  1.00  0.00    -0.329 C  
HETATM    3  C   UNL     1     -10.944  13.120  66.623  1.00  0.00    -0.283 C  
HETATM    4  N   UNL     1      -9.553  12.761  66.309  1.00  0.00    -0.258 NA 
HETATM    5  C   UNL     1     -10.596  15.160  68.921  1.00  0.00    -0.242 C  
HETATM    6  C   UNL     1      -8.624  13.423  67.227  1.00  0.00    -0.213 C  
HETATM    7  C   UNL     1      -8.765  14.943  67.196  1.00  0.00    -0.240 C  
HETATM    8  C   UNL     1     -10.211  15.449  67.446  1.00  0.00    -0.249 C  
ENDROOT
BRANCH   4   9
HETATM    9  C   UNL     1      -9.372  11.304  66.276  1.00  0.00    -0.207 C  
HETATM   10  C   UNL     1     -10.171  10.543  67.352  1.00  0.00    -0.253 C  
HETATM   11  C   UNL     1      -9.952   9.047  67.179  1.00  0.00    -0.224 C  
HETATM   12  N   UNL     1      -8.675   8.574  67.423  1.00  0.00    -0.133 N  
HETATM   13  O   UNL     1     -10.867   8.309  66.840  1.00  0.00    -0.228 OA 
HETATM   14  C   UNL     1      -9.857  11.013  68.786  1.00  0.00    -0.206 C  
HETATM   15  H   UNL     1      -7.935   9.199  67.743  1.00  0.00     0.000 HD 
BRANCH  14  16
HETATM   16  C   UNL     1     -10.809  10.422  69.804  1.00  0.00    -0.342 A  
HETATM   17  C   UNL     1     -11.210   9.003  71.735  1.00  0.00    -0.448 A  
HETATM   18  C   UNL     1     -10.350   9.492  70.748  1.00  0.00    -0.377 A  
HETATM   19  C   UNL     1     -12.147  10.835  69.855  1.00  0.00    -0.410 A  
HETATM   20  C   UNL     1     -12.533   9.442  71.790  1.00  0.00    -0.471 A  
HETATM   21  C   UNL     1     -13.001  10.352  70.846  1.00  0.00    -0.475 A  
ENDBRANCH  14  16
BRANCH  12  22
HETATM   22  C   UNL     1      -8.419   7.145  67.206  1.00  0.00    -0.122 C  
HETATM   23  O   UNL     1      -7.986   7.235  69.572  1.00  0.00    -0.122 OA 
HETATM   24  O   UNL     1      -7.533   5.294  68.505  1.00  0.00    -0.070 OA 
HETATM   25  C   UNL     1      -7.925   6.451  68.467  1.00  0.00    -0.106 C  
ENDBRANCH  12  22
ENDBRANCH   4   9
BRANCH   8  26
HETATM   26  C   UNL     1     -10.295  16.989  67.290  1.00  0.00    -0.311 A  
HETATM   27  C   UNL     1     -10.395  19.230  68.241  1.00  0.00    -0.380 A  
HETATM   28  C   UNL     1     -10.382  17.591  66.017  1.00  0.00    -0.309 A  
HETATM   29  O   UNL     1     -10.439  20.064  69.319  1.00  0.00    -0.615 OA 
HETATM   30  C   UNL     1     -10.519  19.798  66.983  1.00  0.00    -0.595 A  
HETATM   31  H   UNL     1     -10.538  21.002  69.210  1.00  0.00     0.000 HD 
HETATM   32  C   UNL     1     -10.495  18.976  65.865  1.00  0.00    -0.468 A  
HETATM   33  C   UNL     1     -10.248  17.851  68.401  1.00  0.00    -0.398 A  
ENDBRANCH   8  26
TORSDOF 4
ENDMDL
MODEL        8
REMARK 921   NORMALIZED FREE ENERGY PREDICTED BY IDOCK:   -7.22 KCAL/MOL
REMARK 922        TOTAL FREE ENERGY PREDICTED BY IDOCK:   -9.51 KCAL/MOL
REMARK 923 INTER-LIGAND FREE ENERGY PREDICTED BY IDOCK:   -8.25 KCAL/MOL
REMARK 924 INTRA-LIGAND FREE ENERGY PREDICTED BY IDOCK:   -1.26 KCAL/MOL
REMARK 927      BINDING AFFINITY PREDICTED BY RF-SCORE:    0.00 PKD
ROOT
HETATM    1  C   UNL     1      -8.485  12.853  67.432  1.00  0.00    -0.196 C  
HETATM    2  C   UNL     1      -9.700  12.648  66.493  1.00  0.00    -0.256 C  
HETATM    3  C   UNL     1      -9.911  11.124  66.332  1.00  0.00    -0.211 C  
HETATM    4  N   UNL     1     -10.308  10.521  67.612  1.00  0.00    -0.204 NA 
HETATM    5  C   UNL     1     -12.121  13.241  65.886  1.00  0.00    -0.493 C  
HETATM    6  C   UNL     1     -11.573  11.087  68.086  1.00  0.00    -0.272 C  
HETATM    7  C   UNL     1     -11.503  12.603  68.250  1.00  0.00    -0.356 C  
HETATM    8  C   UNL     1     -11.025  13.356  66.979  1.00  0.00    -0.298 C  
ENDROOT
BRANCH   4   9
HETATM    9  C   UNL     1     -10.342   9.055  67.525  1.00  0.00    -0.264 C  
HETATM   10  C   UNL     1     -10.427   8.344  68.890  1.00  0.00    -0.208 C  
HETATM   11  C   UNL     1     -10.517   6.840  68.669  1.00  0.00    -0.206 C  
HETATM   12  N   UNL     1      -9.405   6.224  68.126  1.00  0.00    -0.116 N  
HETATM   13  O   UNL     1     -11.530   6.218  68.961  1.00  0.00    -0.363 OA 
HETATM   14  C   UNL     1      -9.277   8.721  69.845  1.00  0.00    -0.160 C  
HETATM   15  H   UNL     1      -8.556   6.753  67.926  1.00  0.00     0.000 HD 
BRANCH  14  16
HETATM   16  C   UNL     1      -9.501   8.197  71.246  1.00  0.00    -0.199 A  
HETATM   17  C   UNL     1     -11.005   7.666  73.079  1.00  0.00    -0.457 A  
HETATM   18  C   UNL     1     -10.783   8.218  71.816  1.00  0.00    -0.332 A  
HETATM   19  C   UNL     1      -8.446   7.632  71.975  1.00  0.00    -0.133 A  
HETATM   20  C   UNL     1      -9.951   7.084  73.784  1.00  0.00    -0.367 A  
HETATM   21  C   UNL     1      -8.672   7.073  73.233  1.00  0.00    -0.151 A  
ENDBRANCH  14  16
BRANCH  12  22
HETATM   22  C   UNL     1      -9.484   4.785  67.846  1.00  0.00    -0.144 C  
HETATM   23  O   UNL     1      -9.162   5.575  65.595  1.00  0.00    -0.154 OA 
HETATM   24  O   UNL     1      -9.610   3.376  65.872  1.00  0.00    -0.148 OA 
HETATM   25  C   UNL     1      -9.440   4.486  66.354  1.00  0.00    -0.172 C  
ENDBRANCH  12  22
ENDBRANCH   4   9
BRANCH   8  26
HETATM   26  C   UNL     1     -10.874  14.873  67.256  1.00  0.00    -0.306 A  
HETATM   27  C   UNL     1     -10.458  17.151  66.499  1.00  0.00    -0.255 A  
HETATM   28  C   UNL     1     -10.986  15.392  68.563  1.00  0.00    -0.278 A  
HETATM   29  O   UNL     1     -10.162  18.041  65.508  1.00  0.00    -0.556 OA 
HETATM   30  C   UNL     1     -10.533  17.634  67.795  1.00  0.00    -0.379 A  
HETATM   31  H   UNL     1     -10.025  18.961  65.699  1.00  0.00     0.000 HD 
HETATM   32  C   UNL     1     -10.816  16.753  68.830  1.00  0.00    -0.301 A  
HETATM   33  C   UNL     1     -10.659  15.798  66.219  1.00  0.00    -0.313 A  
ENDBRANCH   8  26
TORSDOF 4
ENDMDL
MODEL        9
REMARK 921   NORMALIZED FREE ENERGY PREDICTED BY IDOCK:   -7.22 KCAL/MOL
REMARK 922        TOTAL FREE ENERGY PREDICTED BY IDOCK:   -9.51 KCAL/MOL
REMARK 923 INTER-LIGAND FREE ENERGY PREDICTED BY IDOCK:   -9.92 KCAL/MOL
REMARK 924 INTRA-LIGAND FREE ENERGY PREDICTED BY IDOCK:    0.41 KCAL/MOL
REMARK 927      BINDING AFFINITY PREDICTED BY RF-SCORE:    0.00 PKD
ROOT
HETATM    1  C   UNL     1      -8.414   8.223  71.284  1.00  0.00    -0.164 C  
HETATM    2  C   UNL     1      -9.920   8.552  71.430  1.00  0.00    -0.301 C  
HETATM    3  C   UNL     1     -10.218   9.778  70.535  1.00  0.00    -0.255 C  
HETATM    4  N   UNL     1     -10.034   9.437  69.117  1.00  0.00    -0.175 NA 
HETATM    5  C   UNL     1     -12.350   7.727  71.436  1.00  0.00    -0.346 C  
HETATM    6  C   UNL     1     -10.954   8.371  68.713  1.00  0.00     0.177 C  
HETATM    7  C   UNL     1     -10.782   7.109  69.555  1.00  0.00    -0.255 C  
HETATM    8  C   UNL     1     -10.885   7.350  71.085  1.00  0.00    -0.258 C  
ENDROOT
BRANCH   4   9
HETATM    9  C   UNL     1     -10.139  10.627  68.263  1.00  0.00    -0.157 C  
HETATM   10  C   UNL     1     -10.689  11.874  68.983  1.00  0.00    -0.197 C  
HETATM   11  C   UNL     1     -10.694  13.052  68.019  1.00  0.00    -0.232 C  
HETATM   12  N   UNL     1     -11.561  12.972  66.944  1.00  0.00    -0.346 N  
HETATM   13  O   UNL     1      -9.961  14.017  68.195  1.00  0.00    -0.228 OA 
HETATM   14  C   UNL     1     -12.071  11.645  69.625  1.00  0.00    -0.345 C  
HETATM   15  H   UNL     1     -12.191  12.177  66.836  1.00  0.00     0.000 HD 
BRANCH  14  16
HETATM   16  C   UNL     1     -12.488  12.796  70.514  1.00  0.00    -0.280 A  
HETATM   17  C   UNL     1     -12.824  15.178  70.855  1.00  0.00    -0.479 A  
HETATM   18  C   UNL     1     -12.369  14.119  70.065  1.00  0.00    -0.403 A  
HETATM   19  C   UNL     1     -13.050  12.557  71.776  1.00  0.00    -0.450 A  
HETATM   20  C   UNL     1     -13.404  14.925  72.098  1.00  0.00    -0.473 A  
HETATM   21  C   UNL     1     -13.510  13.615  72.559  1.00  0.00    -0.675 A  
ENDBRANCH  14  16
BRANCH  12  22
HETATM   22  C   UNL     1     -11.544  14.064  65.965  1.00  0.00    -0.357 C  
HETATM   23  O   UNL     1     -13.126  12.619  64.868  1.00  0.00    -0.850 OA 
HETATM   24  O   UNL     1     -12.438  14.454  63.740  1.00  0.00    -0.814 OA 
HETATM   25  C   UNL     1     -12.391  13.752  64.739  1.00  0.00    -0.386 C  
ENDBRANCH  12  22
ENDBRANCH   4   9
BRANCH   8  26
HETATM   26  C   UNL     1     -10.592   6.049  71.873  1.00  0.00    -0.272 A  
HETATM   27  C   UNL     1      -9.913   3.711  71.960  1.00  0.00    -0.162 A  
HETATM   28  C   UNL     1     -10.765   5.988  73.272  1.00  0.00    -0.284 A  
HETATM   29  O   UNL     1      -9.526   2.560  71.337  1.00  0.00    -0.121 OA 
HETATM   30  C   UNL     1     -10.127   3.661  73.328  1.00  0.00    -0.206 A  
HETATM   31  H   UNL     1      -9.395   1.757  71.828  1.00  0.00     0.000 HD 
HETATM   32  C   UNL     1     -10.539   4.810  73.990  1.00  0.00    -0.351 A  
HETATM   33  C   UNL     1     -10.105   4.891  71.240  1.00  0.00    -0.269 A  
ENDBRANCH   8  26
TORSDOF 4
ENDMDL
MODEL       10
REMARK 921   NORMALIZED FREE ENERGY PREDICTED BY IDOCK:   -7.18 KCAL/MOL
REMARK 922        TOTAL FREE ENERGY PREDICTED BY IDOCK:   -9.46 KCAL/MOL
REMARK 923 INTER-LIGAND FREE ENERGY PREDICTED BY IDOCK:   -8.79 KCAL/MOL
REMARK 924 INTRA-LIGAND FREE ENERGY PREDICTED BY IDOCK:   -0.67 KCAL/MOL
REMARK 927      BINDING AFFINITY PREDICTED BY RF-SCORE:    0.00 PKD
ROOT
HETATM    1  C   UNL     1     -11.064  14.783  68.766  1.00  0.00    -0.277 C  
HETATM    2  C   UNL     1      -9.584  14.787  68.311  1.00  0.00    -0.215 C  
HETATM    3  C   UNL     1      -9.157  13.316  68.102  1.00  0.00    -0.207 C  
HETATM    4  N   UNL     1      -9.901  12.718  66.984  1.00  0.00    -0.226 NA 
HETATM    5  C   UNL     1      -7.774  15.733  66.757  1.00  0.00    -0.216 C  
HETATM    6  C   UNL     1      -9.627  13.431  65.734  1.00  0.00    -0.047 C  
HETATM    7  C   UNL     1      -9.975  14.915  65.827  1.00  0.00    -0.376 C  
HETATM    8  C   UNL     1      -9.302  15.649  67.018  1.00  0.00    -0.241 C  
ENDROOT
BRANCH   4   9
HETATM    9  C   UNL     1      -9.642  11.276  66.879  1.00  0.00    -0.191 C  
HETATM   10  C   UNL     1     -10.420  10.420  67.898  1.00  0.00    -0.248 C  
HETATM   11  C   UNL     1     -10.119   8.948  67.654  1.00  0.00    -0.218 C  
HETATM   12  N   UNL     1      -8.824   8.529  67.900  1.00  0.00    -0.137 N  
HETATM   13  O   UNL     1     -10.987   8.182  67.257  1.00  0.00    -0.154 OA 
HETATM   14  C   UNL     1     -10.158  10.830  69.361  1.00  0.00    -0.166 C  
HETATM   15  H   UNL     1      -8.124   9.174  68.268  1.00  0.00     0.000 HD 
BRANCH  14  16
HETATM   16  C   UNL     1     -11.096  10.138  70.326  1.00  0.00    -0.384 A  
HETATM   17  C   UNL     1     -11.465   8.558  72.135  1.00  0.00    -0.446 A  
HETATM   18  C   UNL     1     -10.617   9.143  71.192  1.00  0.00    -0.379 A  
HETATM   19  C   UNL     1     -12.442  10.516  70.410  1.00  0.00    -0.392 A  
HETATM   20  C   UNL     1     -12.796   8.962  72.225  1.00  0.00    -0.475 A  
HETATM   21  C   UNL     1     -13.285   9.936  71.358  1.00  0.00    -0.487 A  
ENDBRANCH  14  16
BRANCH  12  22
HETATM   22  C   UNL     1      -8.488   7.129  67.616  1.00  0.00    -0.120 C  
HETATM   23  O   UNL     1      -7.816   7.201  69.926  1.00  0.00    -0.108 OA 
HETATM   24  O   UNL     1      -7.338   5.322  68.761  1.00  0.00    -0.067 OA 
HETATM   25  C   UNL     1      -7.815   6.447  68.798  1.00  0.00    -0.109 C  
ENDBRANCH  12  22
ENDBRANCH   4   9
BRANCH   8  26
HETATM   26  C   UNL     1      -9.787  17.117  67.112  1.00  0.00    -0.271 A  
HETATM   27  C   UNL     1     -10.214  19.149  68.387  1.00  0.00    -0.389 A  
HETATM   28  C   UNL     1     -10.294  17.793  65.981  1.00  0.00    -0.304 A  
HETATM   29  O   UNL     1     -10.221  19.834  69.567  1.00  0.00    -0.633 OA 
HETATM   30  C   UNL     1     -10.744  19.780  67.273  1.00  0.00    -0.532 A  
HETATM   31  H   UNL     1     -10.566  20.718  69.618  1.00  0.00     0.000 HD 
HETATM   32  C   UNL     1     -10.769  19.105  66.060  1.00  0.00    -0.451 A  
HETATM   33  C   UNL     1      -9.708  17.850  68.310  1.00  0.00    -0.327 A  
ENDBRANCH   8  26
TORSDOF 4
ENDMDL
MODEL       11
REMARK 921   NORMALIZED FREE ENERGY PREDICTED BY IDOCK:   -7.08 KCAL/MOL
REMARK 922        TOTAL FREE ENERGY PREDICTED BY IDOCK:   -9.35 KCAL/MOL
REMARK 923 INTER-LIGAND FREE ENERGY PREDICTED BY IDOCK:   -8.84 KCAL/MOL
REMARK 924 INTRA-LIGAND FREE ENERGY PREDICTED BY IDOCK:   -0.50 KCAL/MOL
REMARK 927      BINDING AFFINITY PREDICTED BY RF-SCORE:    0.00 PKD
ROOT
HETATM    1  C   UNL     1     -11.133   6.738  66.987  1.00  0.00    -0.369 C  
HETATM    2  C   UNL     1      -9.613   6.900  66.741  1.00  0.00    -0.215 C  
HETATM    3  C   UNL     1      -9.373   8.346  66.248  1.00  0.00    -0.219 C  
HETATM    4  N   UNL     1      -9.696   9.312  67.308  1.00  0.00    -0.158 NA 
HETATM    5  C   UNL     1      -7.212   6.588  67.591  1.00  0.00    -0.090 C  
HETATM    6  C   UNL     1      -8.841   9.105  68.479  1.00  0.00    -0.129 C  
HETATM    7  C   UNL     1      -8.962   7.691  69.041  1.00  0.00    -0.137 C  
HETATM    8  C   UNL     1      -8.711   6.572  67.995  1.00  0.00    -0.116 C  
ENDROOT
BRANCH   4   9
HETATM    9  C   UNL     1      -9.645  10.692  66.808  1.00  0.00    -0.169 C  
HETATM   10  C   UNL     1     -10.167  11.744  67.805  1.00  0.00    -0.205 C  
HETATM   11  C   UNL     1     -10.008  13.133  67.202  1.00  0.00    -0.236 C  
HETATM   12  N   UNL     1     -10.784  13.421  66.094  1.00  0.00    -0.282 N  
HETATM   13  O   UNL     1      -9.228  13.945  67.681  1.00  0.00    -0.185 OA 
HETATM   14  C   UNL     1     -11.611  11.476  68.271  1.00  0.00    -0.378 C  
HETATM   15  H   UNL     1     -11.457  12.745  65.733  1.00  0.00     0.000 HD 
BRANCH  14  16
HETATM   16  C   UNL     1     -12.022  12.380  69.414  1.00  0.00    -0.319 A  
HETATM   17  C   UNL     1     -12.599  14.587  70.249  1.00  0.00    -0.378 A  
HETATM   18  C   UNL     1     -12.147  13.763  69.216  1.00  0.00    -0.374 A  
HETATM   19  C   UNL     1     -12.336  11.845  70.670  1.00  0.00    -0.405 A  
HETATM   20  C   UNL     1     -12.932  14.039  71.487  1.00  0.00    -0.427 A  
HETATM   21  C   UNL     1     -12.794  12.669  71.697  1.00  0.00    -0.367 A  
ENDBRANCH  14  16
BRANCH  12  22
HETATM   22  C   UNL     1     -10.609  14.730  65.454  1.00  0.00    -0.378 C  
HETATM   23  O   UNL     1     -12.904  14.335  64.847  1.00  0.00    -0.680 OA 
HETATM   24  O   UNL     1     -11.887  16.145  63.950  1.00  0.00    -0.921 OA 
HETATM   25  C   UNL     1     -11.838  15.154  64.663  1.00  0.00    -0.332 C  
ENDBRANCH  12  22
ENDBRANCH   4   9
BRANCH   8  26
HETATM   26  C   UNL     1      -8.958   5.171  68.610  1.00  0.00    -0.122 A  
HETATM   27  C   UNL     1      -9.381   2.782  68.382  1.00  0.00    -0.192 A  
HETATM   28  C   UNL     1      -9.022   4.987  70.007  1.00  0.00    -0.146 A  
HETATM   29  O   UNL     1      -9.597   1.680  67.607  1.00  0.00    -0.378 OA 
HETATM   30  C   UNL     1      -9.478   2.631  69.756  1.00  0.00    -0.145 A  
HETATM   31  H   UNL     1      -9.794   0.837  67.997  1.00  0.00     0.000 HD 
HETATM   32  C   UNL     1      -9.280   3.736  70.573  1.00  0.00    -0.210 A  
HETATM   33  C   UNL     1      -9.090   4.022  67.809  1.00  0.00    -0.175 A  
ENDBRANCH   8  26
TORSDOF 4
ENDMDL
MODEL       12
REMARK 921   NORMALIZED FREE ENERGY PREDICTED BY IDOCK:   -7.06 KCAL/MOL
REMARK 922        TOTAL FREE ENERGY PREDICTED BY IDOCK:   -9.32 KCAL/MOL
REMARK 923 INTER-LIGAND FREE ENERGY PREDICTED BY IDOCK:   -9.06 KCAL/MOL
REMARK 924 INTRA-LIGAND FREE ENERGY PREDICTED BY IDOCK:   -0.25 KCAL/MOL
REMARK 927      BINDING AFFINITY PREDICTED BY RF-SCORE:    0.00 PKD
ROOT
HETATM    1  C   UNL     1      -7.827   9.377  67.510  1.00  0.00    -0.099 C  
HETATM    2  C   UNL     1      -8.838   9.663  68.647  1.00  0.00    -0.128 C  
HETATM    3  C   UNL     1      -8.982  11.198  68.766  1.00  0.00    -0.131 C  
HETATM    4  N   UNL     1      -9.599  11.754  67.554  1.00  0.00    -0.175 NA 
HETATM    5  C   UNL     1     -11.115   9.174  69.726  1.00  0.00    -0.140 C  
HETATM    6  C   UNL     1     -10.943  11.206  67.355  1.00  0.00    -0.290 C  
HETATM    7  C   UNL     1     -10.938   9.683  67.258  1.00  0.00    -0.107 C  
HETATM    8  C   UNL     1     -10.247   8.975  68.454  1.00  0.00    -0.232 C  
ENDROOT
BRANCH   4   9
HETATM    9  C   UNL     1      -9.584  13.222  67.571  1.00  0.00    -0.218 C  
HETATM   10  C   UNL     1     -10.308  13.847  68.780  1.00  0.00    -0.210 C  
HETATM   11  C   UNL     1     -10.174  15.362  68.720  1.00  0.00    -0.217 C  
HETATM   12  N   UNL     1     -10.816  16.002  67.676  1.00  0.00    -0.323 N  
HETATM   13  O   UNL     1      -9.525  15.973  69.559  1.00  0.00    -0.248 OA 
HETATM   14  C   UNL     1     -11.778  13.400  68.905  1.00  0.00    -0.369 C  
HETATM   15  H   UNL     1     -11.384  15.480  67.009  1.00  0.00     0.000 HD 
BRANCH  14  16
HETATM   16  C   UNL     1     -12.400  13.836  70.214  1.00  0.00    -0.407 A  
HETATM   17  C   UNL     1     -13.407  15.566  71.592  1.00  0.00    -0.585 A  
HETATM   18  C   UNL     1     -12.763  15.176  70.415  1.00  0.00    -0.378 A  
HETATM   19  C   UNL     1     -12.673  12.903  71.222  1.00  0.00    -0.371 A  
HETATM   20  C   UNL     1     -13.695  14.621  72.577  1.00  0.00    -0.572 A  
HETATM   21  C   UNL     1     -13.323  13.293  72.393  1.00  0.00    -0.616 A  
ENDBRANCH  14  16
BRANCH  12  22
HETATM   22  C   UNL     1     -10.655  17.456  67.558  1.00  0.00    -0.330 C  
HETATM   23  O   UNL     1      -9.950  16.832  65.342  1.00  0.00    -0.572 OA 
HETATM   24  O   UNL     1      -9.715  19.001  65.936  1.00  0.00    -0.467 OA 
HETATM   25  C   UNL     1     -10.053  17.862  66.220  1.00  0.00    -0.351 C  
ENDBRANCH  12  22
ENDBRANCH   4   9
BRANCH   8  26
HETATM   26  C   UNL     1     -10.184   7.443  68.232  1.00  0.00    -0.213 A  
HETATM   27  C   UNL     1      -9.651   5.193  69.001  1.00  0.00    -0.145 A  
HETATM   28  C   UNL     1     -10.584   6.865  67.009  1.00  0.00    -0.403 A  
HETATM   29  O   UNL     1      -9.162   4.345  69.951  1.00  0.00    -0.107 OA 
HETATM   30  C   UNL     1     -10.013   4.650  67.779  1.00  0.00    -0.150 A  
HETATM   31  H   UNL     1      -9.085   3.413  69.784  1.00  0.00     0.000 HD 
HETATM   32  C   UNL     1     -10.498   5.488  66.784  1.00  0.00    -0.355 A  
HETATM   33  C   UNL     1      -9.764   6.563  69.246  1.00  0.00    -0.152 A  
ENDBRANCH   8  26
TORSDOF 4
ENDMDL
MODEL       13
REMARK 921   NORMALIZED FREE ENERGY PREDICTED BY IDOCK:   -7.00 KCAL/MOL
REMARK 922        TOTAL FREE ENERGY PREDICTED BY IDOCK:   -9.25 KCAL/MOL
REMARK 923 INTER-LIGAND FREE ENERGY PREDICTED BY IDOCK:   -9.58 KCAL/MOL
REMARK 924 INTRA-LIGAND FREE ENERGY PREDICTED BY IDOCK:    0.33 KCAL/MOL
REMARK 927      BINDING AFFINITY PREDICTED BY RF-SCORE:    0.00 PKD
ROOT
HETATM    1  C   UNL     1      -7.792   7.240  69.880  1.00  0.00    -0.112 C  
HETATM    2  C   UNL     1      -9.231   7.635  70.292  1.00  0.00    -0.157 C  
HETATM    3  C   UNL     1      -9.561   8.979  69.601  1.00  0.00    -0.171 C  
HETATM    4  N   UNL     1      -9.612   8.808  68.142  1.00  0.00    -0.144 NA 
HETATM    5  C   UNL     1     -11.691   6.959  70.576  1.00  0.00    -0.401 C  
HETATM    6  C   UNL     1     -10.660   7.857  67.764  1.00  0.00    -0.175 C  
HETATM    7  C   UNL     1     -10.465   6.492  68.418  1.00  0.00    -0.258 C  
HETATM    8  C   UNL     1     -10.326   6.545  69.963  1.00  0.00    -0.238 C  
ENDROOT
BRANCH   4   9
HETATM    9  C   UNL     1      -9.748  10.100  67.457  1.00  0.00    -0.162 C  
HETATM   10  C   UNL     1     -10.330  11.223  68.338  1.00  0.00    -0.207 C  
HETATM   11  C   UNL     1     -10.366  12.521  67.542  1.00  0.00    -0.220 C  
HETATM   12  N   UNL     1     -11.232  12.564  66.464  1.00  0.00    -0.291 N  
HETATM   13  O   UNL     1      -9.659  13.471  67.850  1.00  0.00    -0.204 OA 
HETATM   14  C   UNL     1     -11.706  10.873  68.938  1.00  0.00    -0.376 C  
HETATM   15  H   UNL     1     -11.842  11.776  66.247  1.00  0.00     0.000 HD 
BRANCH  14  16
HETATM   16  C   UNL     1     -12.152  11.882  69.975  1.00  0.00    -0.366 A  
HETATM   17  C   UNL     1     -12.495  14.189  70.655  1.00  0.00    -0.432 A  
HETATM   18  C   UNL     1     -12.015  13.256  69.733  1.00  0.00    -0.391 A  
HETATM   19  C   UNL     1     -12.759  11.462  71.166  1.00  0.00    -0.479 A  
HETATM   20  C   UNL     1     -13.120  13.757  71.825  1.00  0.00    -0.463 A  
HETATM   21  C   UNL     1     -13.245  12.395  72.081  1.00  0.00    -0.491 A  
ENDBRANCH  14  16
BRANCH  12  22
HETATM   22  C   UNL     1     -11.244  13.780  65.642  1.00  0.00    -0.302 C  
HETATM   23  O   UNL     1     -13.184  12.696  64.716  1.00  0.00    -0.846 OA 
HETATM   24  O   UNL     1     -12.467  14.588  63.705  1.00  0.00    -0.809 OA 
HETATM   25  C   UNL     1     -12.336  13.747  64.582  1.00  0.00    -0.372 C  
ENDBRANCH  12  22
ENDBRANCH   4   9
BRANCH   8  26
HETATM   26  C   UNL     1     -10.021   5.140  70.542  1.00  0.00    -0.304 A  
HETATM   27  C   UNL     1      -9.867   3.589  72.415  1.00  0.00    -0.161 A  
HETATM   28  C   UNL     1      -9.575   4.089  69.713  1.00  0.00    -0.280 A  
HETATM   29  O   UNL     1      -9.966   3.320  73.749  1.00  0.00    -0.106 OA 
HETATM   30  C   UNL     1      -9.393   2.582  71.589  1.00  0.00    -0.190 A  
HETATM   31  H   UNL     1      -9.731   2.468  74.096  1.00  0.00     0.000 HD 
HETATM   32  C   UNL     1      -9.263   2.828  70.229  1.00  0.00    -0.207 A  
HETATM   33  C   UNL     1     -10.212   4.841  71.904  1.00  0.00    -0.261 A  
ENDBRANCH   8  26
TORSDOF 4
ENDMDL
MODEL       14
REMARK 921   NORMALIZED FREE ENERGY PREDICTED BY IDOCK:   -7.00 KCAL/MOL
REMARK 922        TOTAL FREE ENERGY PREDICTED BY IDOCK:   -9.24 KCAL/MOL
REMARK 923 INTER-LIGAND FREE ENERGY PREDICTED BY IDOCK:   -8.33 KCAL/MOL
REMARK 924 INTRA-LIGAND FREE ENERGY PREDICTED BY IDOCK:   -0.91 KCAL/MOL
REMARK 927      BINDING AFFINITY PREDICTED BY RF-SCORE:    0.00 PKD
ROOT
HETATM    1  C   UNL     1      -7.820  11.773  66.931  1.00  0.00    -0.141 C  
HETATM    2  C   UNL     1      -8.818  10.755  67.536  1.00  0.00    -0.128 C  
HETATM    3  C   UNL     1      -9.598  11.479  68.659  1.00  0.00    -0.152 C  
HETATM    4  N   UNL     1     -10.434  12.550  68.097  1.00  0.00    -0.222 NA 
HETATM    5  C   UNL     1     -10.630   8.978  67.161  1.00  0.00    -0.291 C  
HETATM    6  C   UNL     1     -11.422  12.004  67.164  1.00  0.00    -0.335 C  
HETATM    7  C   UNL     1     -10.772  11.228  66.021  1.00  0.00    -0.301 C  
HETATM    8  C   UNL     1      -9.804  10.107  66.488  1.00  0.00    -0.268 C  
ENDROOT
BRANCH   4   9
HETATM    9  C   UNL     1     -11.046  13.362  69.156  1.00  0.00    -0.213 C  
HETATM   10  C   UNL     1     -11.205  14.853  68.796  1.00  0.00    -0.288 C  
HETATM   11  C   UNL     1     -11.902  15.576  69.939  1.00  0.00    -0.362 C  
HETATM   12  N   UNL     1     -11.205  15.672  71.130  1.00  0.00    -0.363 N  
HETATM   13  O   UNL     1     -13.024  16.044  69.801  1.00  0.00     0.083 OA 
HETATM   14  C   UNL     1      -9.876  15.529  68.406  1.00  0.00    -0.210 C  
HETATM   15  H   UNL     1     -10.255  15.309  71.214  1.00  0.00     0.000 HD 
BRANCH  14  16
HETATM   16  C   UNL     1     -10.084  16.916  67.839  1.00  0.00    -0.288 A  
HETATM   17  C   UNL     1     -10.648  18.363  65.971  1.00  0.00    -0.339 A  
HETATM   18  C   UNL     1     -10.381  17.090  66.479  1.00  0.00    -0.298 A  
HETATM   19  C   UNL     1     -10.037  18.043  68.671  1.00  0.00    -0.401 A  
HETATM   20  C   UNL     1     -10.623  19.473  66.814  1.00  0.00    -0.597 A  
HETATM   21  C   UNL     1     -10.312  19.312  68.162  1.00  0.00    -0.496 A  
ENDBRANCH  14  16
BRANCH  12  22
HETATM   22  C   UNL     1     -11.875  16.310  72.269  1.00  0.00    -0.511 C  
HETATM   23  O   UNL     1     -12.803  14.101  72.496  1.00  0.00    -0.369 OA 
HETATM   24  O   UNL     1     -13.623  15.718  73.847  1.00  0.00    -0.179 OA 
HETATM   25  C   UNL     1     -12.863  15.377  72.954  1.00  0.00    -0.445 C  
ENDBRANCH  12  22
ENDBRANCH   4   9
BRANCH   8  26
HETATM   26  C   UNL     1      -9.102   9.441  65.278  1.00  0.00    -0.287 A  
HETATM   27  C   UNL     1      -7.606   7.765  64.333  1.00  0.00    -0.110 A  
HETATM   28  C   UNL     1      -9.289   9.925  63.966  1.00  0.00    -0.280 A  
HETATM   29  O   UNL     1      -6.742   6.720  64.485  1.00  0.00    -0.041 OA 
HETATM   30  C   UNL     1      -7.773   8.281  63.059  1.00  0.00    -0.134 A  
HETATM   31  H   UNL     1      -6.282   6.352  63.741  1.00  0.00     0.000 HD 
HETATM   32  C   UNL     1      -8.633   9.355  62.871  1.00  0.00    -0.222 A  
HETATM   33  C   UNL     1      -8.283   8.307  65.428  1.00  0.00    -0.146 A  
ENDBRANCH   8  26
TORSDOF 4
ENDMDL
MODEL       15
REMARK 921   NORMALIZED FREE ENERGY PREDICTED BY IDOCK:   -6.98 KCAL/MOL
REMARK 922        TOTAL FREE ENERGY PREDICTED BY IDOCK:   -9.22 KCAL/MOL
REMARK 923 INTER-LIGAND FREE ENERGY PREDICTED BY IDOCK:   -9.20 KCAL/MOL
REMARK 924 INTRA-LIGAND FREE ENERGY PREDICTED BY IDOCK:   -0.02 KCAL/MOL
REMARK 927      BINDING AFFINITY PREDICTED BY RF-SCORE:    0.00 PKD
ROOT
HETATM    1  C   UNL     1      -7.653   8.452  69.579  1.00  0.00    -0.090 C  
HETATM    2  C   UNL     1      -9.050   8.889  70.086  1.00  0.00    -0.189 C  
HETATM    3  C   UNL     1      -9.317  10.312  69.543  1.00  0.00    -0.178 C  
HETATM    4  N   UNL     1      -9.429  10.292  68.078  1.00  0.00    -0.145 NA 
HETATM    5  C   UNL     1     -11.535   8.335  70.402  1.00  0.00    -0.122 C  
HETATM    6  C   UNL     1     -10.547   9.448  67.651  1.00  0.00    -0.271 C  
HETATM    7  C   UNL     1     -10.416   8.015  68.160  1.00  0.00    -0.222 C  
HETATM    8  C   UNL     1     -10.221   7.904  69.696  1.00  0.00    -0.207 C  
ENDROOT
BRANCH   4   9
HETATM    9  C   UNL     1      -9.507  11.652  67.529  1.00  0.00    -0.171 C  
HETATM   10  C   UNL     1     -10.186  12.672  68.464  1.00  0.00    -0.207 C  
HETATM   11  C   UNL     1     -10.153  14.049  67.816  1.00  0.00    -0.240 C  
HETATM   12  N   UNL     1     -10.904  14.214  66.667  1.00  0.00    -0.296 N  
HETATM   13  O   UNL     1      -9.490  14.959  68.297  1.00  0.00    -0.199 OA 
HETATM   14  C   UNL     1     -11.612  12.261  68.878  1.00  0.00    -0.367 C  
HETATM   15  H   UNL     1     -11.482  13.455  66.303  1.00  0.00     0.000 HD 
BRANCH  14  16
HETATM   16  C   UNL     1     -12.171  13.150  69.968  1.00  0.00    -0.323 A  
HETATM   17  C   UNL     1     -12.866  15.345  70.744  1.00  0.00    -0.524 A  
HETATM   18  C   UNL     1     -12.280  14.534  69.769  1.00  0.00    -0.360 A  
HETATM   19  C   UNL     1     -12.638  12.600  71.169  1.00  0.00    -0.354 A  
HETATM   20  C   UNL     1     -13.350  14.782  71.924  1.00  0.00    -0.452 A  
HETATM   21  C   UNL     1     -13.229  13.411  72.138  1.00  0.00    -0.557 A  
ENDBRANCH  14  16
BRANCH  12  22
HETATM   22  C   UNL     1     -10.845  15.512  65.986  1.00  0.00    -0.300 C  
HETATM   23  O   UNL     1     -12.420  14.415  64.534  1.00  0.00    -0.608 OA 
HETATM   24  O   UNL     1     -11.673  16.455  63.906  1.00  0.00    -1.085 OA 
HETATM   25  C   UNL     1     -11.664  15.529  64.703  1.00  0.00    -0.226 C  
ENDBRANCH  12  22
ENDBRANCH   4   9
BRANCH   8  26
HETATM   26  C   UNL     1      -9.986   6.433  70.122  1.00  0.00    -0.201 A  
HETATM   27  C   UNL     1      -9.595   4.089  69.583  1.00  0.00    -0.200 A  
HETATM   28  C   UNL     1      -9.975   6.059  71.482  1.00  0.00    -0.212 A  
HETATM   29  O   UNL     1      -9.440   3.088  68.669  1.00  0.00    -0.181 OA 
HETATM   30  C   UNL     1      -9.627   3.737  70.922  1.00  0.00    -0.256 A  
HETATM   31  H   UNL     1      -9.344   2.184  68.943  1.00  0.00     0.000 HD 
HETATM   32  C   UNL     1      -9.801   4.729  71.878  1.00  0.00    -0.236 A  
HETATM   33  C   UNL     1      -9.736   5.419  69.180  1.00  0.00    -0.217 A  
ENDBRANCH   8  26
TORSDOF 4
ENDMDL
MODEL       16
REMARK 921   NORMALIZED FREE ENERGY PREDICTED BY IDOCK:   -6.96 KCAL/MOL
REMARK 922        TOTAL FREE ENERGY PREDICTED BY IDOCK:   -9.19 KCAL/MOL
REMARK 923 INTER-LIGAND FREE ENERGY PREDICTED BY IDOCK:   -8.15 KCAL/MOL
REMARK 924 INTRA-LIGAND FREE ENERGY PREDICTED BY IDOCK:   -1.04 KCAL/MOL
REMARK 927      BINDING AFFINITY PREDICTED BY RF-SCORE:    0.00 PKD
ROOT
HETATM    1  C   UNL     1      -8.183  14.713  68.171  1.00  0.00    -0.142 C  
HETATM    2  C   UNL     1      -8.756  14.630  66.735  1.00  0.00    -0.233 C  
HETATM    3  C   UNL     1      -8.793  13.137  66.334  1.00  0.00     0.111 C  
HETATM    4  N   UNL     1      -9.751  12.402  67.173  1.00  0.00    -0.204 NA 
HETATM    5  C   UNL     1     -10.573  15.322  65.060  1.00  0.00    -0.444 C  
HETATM    6  C   UNL     1     -11.106  12.931  67.004  1.00  0.00    -0.275 C  
HETATM    7  C   UNL     1     -11.192  14.418  67.335  1.00  0.00    -0.337 C  
HETATM    8  C   UNL     1     -10.176  15.299  66.560  1.00  0.00    -0.282 C  
ENDROOT
BRANCH   4   9
HETATM    9  C   UNL     1      -9.674  10.956  66.931  1.00  0.00    -0.181 C  
HETATM   10  C   UNL     1     -10.252  10.093  68.071  1.00  0.00    -0.205 C  
HETATM   11  C   UNL     1     -10.173   8.624  67.680  1.00  0.00    -0.239 C  
HETATM   12  N   UNL     1      -8.907   8.080  67.562  1.00  0.00    -0.127 N  
HETATM   13  O   UNL     1     -11.187   7.967  67.483  1.00  0.00     0.131 OA 
HETATM   14  C   UNL     1      -9.590  10.367  69.435  1.00  0.00    -0.213 C  
HETATM   15  H   UNL     1      -8.076   8.633  67.769  1.00  0.00     0.000 HD 
BRANCH  14  16
HETATM   16  C   UNL     1     -10.319   9.686  70.573  1.00  0.00    -0.359 A  
HETATM   17  C   UNL     1     -12.317   9.412  71.928  1.00  0.00    -0.450 A  
HETATM   18  C   UNL     1     -11.614  10.090  70.929  1.00  0.00    -0.463 A  
HETATM   19  C   UNL     1      -9.737   8.607  71.251  1.00  0.00    -0.305 A  
HETATM   20  C   UNL     1     -11.735   8.324  72.577  1.00  0.00    -0.451 A  
HETATM   21  C   UNL     1     -10.444   7.927  72.242  1.00  0.00    -0.322 A  
ENDBRANCH  14  16
BRANCH  12  22
HETATM   22  C   UNL     1      -8.798   6.682  67.128  1.00  0.00    -0.115 C  
HETATM   23  O   UNL     1      -8.360   7.751  65.017  1.00  0.00    -0.142 OA 
HETATM   24  O   UNL     1      -8.581   5.501  65.017  1.00  0.00    -0.149 OA 
HETATM   25  C   UNL     1      -8.583   6.560  65.626  1.00  0.00    -0.126 C  
ENDBRANCH  12  22
ENDBRANCH   4   9
BRANCH   8  26
HETATM   26  C   UNL     1     -10.248  16.774  67.029  1.00  0.00    -0.292 A  
HETATM   27  C   UNL     1     -10.231  19.167  66.567  1.00  0.00    -0.429 A  
HETATM   28  C   UNL     1     -10.372  17.101  68.396  1.00  0.00    -0.362 A  
HETATM   29  O   UNL     1     -10.128  20.209  65.692  1.00  0.00    -0.494 OA 
HETATM   30  C   UNL     1     -10.313  19.465  67.917  1.00  0.00    -0.542 A  
HETATM   31  H   UNL     1     -10.126  21.108  65.999  1.00  0.00     0.000 HD 
HETATM   32  C   UNL     1     -10.402  18.428  68.835  1.00  0.00    -0.168 A  
HETATM   33  C   UNL     1     -10.233  17.845  66.117  1.00  0.00    -0.343 A  
ENDBRANCH   8  26
TORSDOF 4
ENDMDL
MODEL       17
REMARK 921   NORMALIZED FREE ENERGY PREDICTED BY IDOCK:   -6.95 KCAL/MOL
REMARK 922        TOTAL FREE ENERGY PREDICTED BY IDOCK:   -9.18 KCAL/MOL
REMARK 923 INTER-LIGAND FREE ENERGY PREDICTED BY IDOCK:   -8.10 KCAL/MOL
REMARK 924 INTRA-LIGAND FREE ENERGY PREDICTED BY IDOCK:   -1.08 KCAL/MOL
REMARK 927      BINDING AFFINITY PREDICTED BY RF-SCORE:    0.00 PKD
ROOT
HETATM    1  C   UNL     1      -8.522  13.042  67.644  1.00  0.00    -0.187 C  
HETATM    2  C   UNL     1      -9.744  12.878  66.707  1.00  0.00    -0.246 C  
HETATM    3  C   UNL     1      -9.987  11.362  66.520  1.00  0.00    -0.211 C  
HETATM    4  N   UNL     1     -10.393  10.745  67.791  1.00  0.00    -0.184 NA 
HETATM    5  C   UNL     1     -12.155  13.531  66.118  1.00  0.00    -0.482 C  
HETATM    6  C   UNL     1     -11.644  11.329  68.279  1.00  0.00    -0.300 C  
HETATM    7  C   UNL     1     -11.542  12.840  68.469  1.00  0.00    -0.358 C  
HETATM    8  C   UNL     1     -11.053  13.605  67.209  1.00  0.00    -0.309 C  
ENDROOT
BRANCH   4   9
HETATM    9  C   UNL     1     -10.458   9.282  67.679  1.00  0.00    -0.264 C  
HETATM   10  C   UNL     1     -10.515   8.547  69.033  1.00  0.00    -0.216 C  
HETATM   11  C   UNL     1     -10.641   7.050  68.789  1.00  0.00    -0.212 C  
HETATM   12  N   UNL     1      -9.558   6.423  68.201  1.00  0.00    -0.116 N  
HETATM   13  O   UNL     1     -11.657   6.442  69.100  1.00  0.00    -0.318 OA 
HETATM   14  C   UNL     1      -9.330   8.886  69.958  1.00  0.00    -0.184 C  
HETATM   15  H   UNL     1      -8.705   6.939  67.984  1.00  0.00     0.000 HD 
BRANCH  14  16
HETATM   16  C   UNL     1      -9.521   8.340  71.357  1.00  0.00    -0.227 A  
HETATM   17  C   UNL     1     -10.991   7.598  73.144  1.00  0.00    -0.411 A  
HETATM   18  C   UNL     1     -10.810   8.173  71.883  1.00  0.00    -0.333 A  
HETATM   19  C   UNL     1      -8.420   7.942  72.126  1.00  0.00    -0.173 A  
HETATM   20  C   UNL     1      -9.887   7.184  73.888  1.00  0.00    -0.346 A  
HETATM   21  C   UNL     1      -8.603   7.362  73.380  1.00  0.00    -0.193 A  
ENDBRANCH  14  16
BRANCH  12  22
HETATM   22  C   UNL     1      -9.674   4.992  67.898  1.00  0.00    -0.153 C  
HETATM   23  O   UNL     1      -8.580   4.822  70.035  1.00  0.00    -0.080 OA 
HETATM   24  O   UNL     1      -8.858   2.914  68.854  1.00  0.00    -0.080 OA 
HETATM   25  C   UNL     1      -8.997   4.124  68.949  1.00  0.00    -0.113 C  
ENDBRANCH  12  22
ENDBRANCH   4   9
BRANCH   8  26
HETATM   26  C   UNL     1     -10.869  15.113  67.511  1.00  0.00    -0.301 A  
HETATM   27  C   UNL     1     -10.394  17.393  66.794  1.00  0.00    -0.305 A  
HETATM   28  C   UNL     1     -10.981  15.614  68.825  1.00  0.00    -0.281 A  
HETATM   29  O   UNL     1     -10.068  18.291  65.820  1.00  0.00    -0.560 OA 
HETATM   30  C   UNL     1     -10.469  17.857  68.097  1.00  0.00    -0.380 A  
HETATM   31  H   UNL     1      -9.912  19.204  66.027  1.00  0.00     0.000 HD 
HETATM   32  C   UNL     1     -10.781  16.967  69.116  1.00  0.00    -0.298 A  
HETATM   33  C   UNL     1     -10.624  16.050  66.490  1.00  0.00    -0.284 A  
ENDBRANCH   8  26
TORSDOF 4
ENDMDL
MODEL       18
REMARK 921   NORMALIZED FREE ENERGY PREDICTED BY IDOCK:   -6.90 KCAL/MOL
REMARK 922        TOTAL FREE ENERGY PREDICTED BY IDOCK:   -9.11 KCAL/MOL
REMARK 923 INTER-LIGAND FREE ENERGY PREDICTED BY IDOCK:   -7.92 KCAL/MOL
REMARK 924 INTRA-LIGAND FREE ENERGY PREDICTED BY IDOCK:   -1.19 KCAL/MOL
REMARK 927      BINDING AFFINITY PREDICTED BY RF-SCORE:    0.00 PKD
ROOT
HETATM    1  C   UNL     1      -8.347  12.902  67.211  1.00  0.00    -0.185 C  
HETATM    2  C   UNL     1      -9.597  12.821  66.302  1.00  0.00    -0.242 C  
HETATM    3  C   UNL     1      -9.711  11.363  65.797  1.00  0.00    -0.233 C  
HETATM    4  N   UNL     1      -9.989  10.451  66.915  1.00  0.00    -0.198 NA 
HETATM    5  C   UNL     1     -12.086  13.338  65.950  1.00  0.00    -0.493 C  
HETATM    6  C   UNL     1     -11.260  10.788  67.559  1.00  0.00    -0.274 C  
HETATM    7  C   UNL     1     -11.286  12.225  68.071  1.00  0.00    -0.348 C  
HETATM    8  C   UNL     1     -10.938  13.287  66.994  1.00  0.00    -0.291 C  
ENDROOT
BRANCH   4   9
HETATM    9  C   UNL     1      -9.926   9.047  66.489  1.00  0.00    -0.285 C  
HETATM   10  C   UNL     1     -10.403   8.041  67.555  1.00  0.00    -0.330 C  
HETATM   11  C   UNL     1     -10.350   6.633  66.979  1.00  0.00    -0.262 C  
HETATM   12  N   UNL     1      -9.096   6.127  66.690  1.00  0.00    -0.135 N  
HETATM   13  O   UNL     1     -11.373   5.990  66.785  1.00  0.00    -0.134 OA 
HETATM   14  C   UNL     1      -9.630   8.153  68.884  1.00  0.00    -0.153 C  
HETATM   15  H   UNL     1      -8.252   6.663  66.895  1.00  0.00     0.000 HD 
BRANCH  14  16
HETATM   16  C   UNL     1     -10.258   7.325  69.984  1.00  0.00    -0.206 A  
HETATM   17  C   UNL     1     -10.099   5.548  71.633  1.00  0.00    -0.249 A  
HETATM   18  C   UNL     1      -9.550   6.264  70.566  1.00  0.00    -0.183 A  
HETATM   19  C   UNL     1     -11.533   7.638  70.475  1.00  0.00    -0.236 A  
HETATM   20  C   UNL     1     -11.357   5.886  72.129  1.00  0.00    -0.344 A  
HETATM   21  C   UNL     1     -12.075   6.927  71.545  1.00  0.00    -0.401 A  
ENDBRANCH  14  16
BRANCH  12  22
HETATM   22  C   UNL     1      -9.016   4.796  66.078  1.00  0.00    -0.126 C  
HETATM   23  O   UNL     1      -8.275   6.103  64.198  1.00  0.00    -0.112 OA 
HETATM   24  O   UNL     1      -8.623   3.895  63.857  1.00  0.00    -0.092 OA 
HETATM   25  C   UNL     1      -8.635   4.860  64.605  1.00  0.00    -0.149 C  
ENDBRANCH  12  22
ENDBRANCH   4   9
BRANCH   8  26
HETATM   26  C   UNL     1     -10.877  14.707  67.612  1.00  0.00    -0.284 A  
HETATM   27  C   UNL     1     -11.165  16.234  69.488  1.00  0.00    -0.308 A  
HETATM   28  C   UNL     1     -10.493  15.824  66.840  1.00  0.00    -0.315 A  
HETATM   29  O   UNL     1     -11.524  16.475  70.782  1.00  0.00    -0.562 OA 
HETATM   30  C   UNL     1     -10.824  17.322  68.702  1.00  0.00    -0.199 A  
HETATM   31  H   UNL     1     -11.527  17.357  71.134  1.00  0.00     0.000 HD 
HETATM   32  C   UNL     1     -10.469  17.114  67.376  1.00  0.00    -0.334 A  
HETATM   33  C   UNL     1     -11.160  14.938  68.970  1.00  0.00    -0.260 A  
ENDBRANCH   8  26
TORSDOF 4
ENDMDL
MODEL       19
REMARK 921   NORMALIZED FREE ENERGY PREDICTED BY IDOCK:   -6.89 KCAL/MOL
REMARK 922        TOTAL FREE ENERGY PREDICTED BY IDOCK:   -9.10 KCAL/MOL
REMARK 923 INTER-LIGAND FREE ENERGY PREDICTED BY IDOCK:   -8.56 KCAL/MOL
REMARK 924 INTRA-LIGAND FREE ENERGY PREDICTED BY IDOCK:   -0.54 KCAL/MOL
REMARK 927      BINDING AFFINITY PREDICTED BY RF-SCORE:    0.00 PKD
ROOT
HETATM    1  C   UNL     1     -11.109   6.837  67.065  1.00  0.00    -0.369 C  
HETATM    2  C   UNL     1      -9.575   6.980  66.910  1.00  0.00    -0.214 C  
HETATM    3  C   UNL     1      -9.291   8.415  66.406  1.00  0.00    -0.214 C  
HETATM    4  N   UNL     1      -9.668   9.404  67.426  1.00  0.00    -0.152 NA 
HETATM    5  C   UNL     1      -7.233   6.664  67.911  1.00  0.00    -0.091 C  
HETATM    6  C   UNL     1      -8.889   9.211  68.651  1.00  0.00    -0.133 C  
HETATM    7  C   UNL     1      -9.058   7.809  69.230  1.00  0.00    -0.145 C  
HETATM    8  C   UNL     1      -8.755   6.668  68.222  1.00  0.00    -0.118 C  
ENDROOT
BRANCH   4   9
HETATM    9  C   UNL     1      -9.573  10.773  66.905  1.00  0.00    -0.171 C  
HETATM   10  C   UNL     1     -10.133  11.850  67.855  1.00  0.00    -0.199 C  
HETATM   11  C   UNL     1      -9.924  13.225  67.236  1.00  0.00    -0.231 C  
HETATM   12  N   UNL     1     -10.637  13.503  66.084  1.00  0.00    -0.286 N  
HETATM   13  O   UNL     1      -9.160  14.037  67.742  1.00  0.00    -0.177 OA 
HETATM   14  C   UNL     1     -11.603  11.608  68.248  1.00  0.00    -0.378 C  
HETATM   15  H   UNL     1     -11.298  12.828  65.699  1.00  0.00     0.000 HD 
BRANCH  14  16
HETATM   16  C   UNL     1     -12.062  12.538  69.351  1.00  0.00    -0.237 A  
HETATM   17  C   UNL     1     -12.754  12.891  71.653  1.00  0.00    -0.299 A  
HETATM   18  C   UNL     1     -12.404  12.027  70.612  1.00  0.00    -0.394 A  
HETATM   19  C   UNL     1     -12.098  13.923  69.149  1.00  0.00    -0.377 A  
HETATM   20  C   UNL     1     -12.762  14.270  71.445  1.00  0.00    -0.424 A  
HETATM   21  C   UNL     1     -12.440  14.783  70.192  1.00  0.00    -0.359 A  
ENDBRANCH  14  16
BRANCH  12  22
HETATM   22  C   UNL     1     -10.411  14.797  65.431  1.00  0.00    -0.386 C  
HETATM   23  O   UNL     1     -12.720  14.487  64.829  1.00  0.00    -0.606 OA 
HETATM   24  O   UNL     1     -11.635  16.246  63.913  1.00  0.00    -0.987 OA 
HETATM   25  C   UNL     1     -11.624  15.262  64.637  1.00  0.00    -0.333 C  
ENDBRANCH  12  22
ENDBRANCH   4   9
BRANCH   8  26
HETATM   26  C   UNL     1      -9.053   5.282  68.846  1.00  0.00    -0.136 A  
HETATM   27  C   UNL     1      -9.652   3.878  70.746  1.00  0.00    -0.188 A  
HETATM   28  C   UNL     1      -8.971   4.101  68.078  1.00  0.00    -0.150 A  
HETATM   29  O   UNL     1      -9.955   3.731  72.068  1.00  0.00    -0.168 OA 
HETATM   30  C   UNL     1      -9.527   2.729  69.983  1.00  0.00    -0.168 A  
HETATM   31  H   UNL     1     -10.089   2.871  72.448  1.00  0.00     0.000 HD 
HETATM   32  C   UNL     1      -9.203   2.842  68.638  1.00  0.00    -0.238 A  
HETATM   33  C   UNL     1      -9.455   5.142  70.187  1.00  0.00    -0.229 A  
ENDBRANCH   8  26
TORSDOF 4
ENDMDL
MODEL       20
REMARK 921   NORMALIZED FREE ENERGY PREDICTED BY IDOCK:   -6.83 KCAL/MOL
REMARK 922        TOTAL FREE ENERGY PREDICTED BY IDOCK:   -9.03 KCAL/MOL
REMARK 923 INTER-LIGAND FREE ENERGY PREDICTED BY IDOCK:   -7.63 KCAL/MOL
REMARK 924 INTRA-LIGAND FREE ENERGY PREDICTED BY IDOCK:   -1.40 KCAL/MOL
REMARK 927      BINDING AFFINITY PREDICTED BY RF-SCORE:    0.00 PKD
ROOT
HETATM    1  C   UNL     1      -7.369  10.696  67.069  1.00  0.00    -0.102 C  
HETATM    2  C   UNL     1      -8.592   9.871  67.543  1.00  0.00    -0.122 C  
HETATM    3  C   UNL     1      -9.464  10.797  68.423  1.00  0.00    -0.174 C  
HETATM    4  N   UNL     1     -10.027  11.892  67.620  1.00  0.00    -0.187 NA 
HETATM    5  C   UNL     1     -10.526   8.289  66.958  1.00  0.00    -0.384 C  
HETATM    6  C   UNL     1     -10.886  11.369  66.556  1.00  0.00    -0.283 C  
HETATM    7  C   UNL     1     -10.144  10.405  65.634  1.00  0.00    -0.337 C  
HETATM    8  C   UNL     1      -9.442   9.235  66.374  1.00  0.00    -0.277 C  
ENDROOT
BRANCH   4   9
HETATM    9  C   UNL     1     -10.711  12.879  68.465  1.00  0.00    -0.254 C  
HETATM   10  C   UNL     1     -10.217  14.326  68.272  1.00  0.00    -0.244 C  
HETATM   11  C   UNL     1     -11.037  15.260  69.151  1.00  0.00    -0.263 C  
HETATM   12  N   UNL     1     -10.888  15.117  70.518  1.00  0.00    -0.480 N  
HETATM   13  O   UNL     1     -11.790  16.091  68.661  1.00  0.00    -0.367 OA 
HETATM   14  C   UNL     1      -8.703  14.488  68.509  1.00  0.00    -0.177 C  
HETATM   15  H   UNL     1     -10.226  14.445  70.908  1.00  0.00     0.000 HD 
BRANCH  14  16
HETATM   16  C   UNL     1      -8.201  15.854  68.094  1.00  0.00    -0.149 A  
HETATM   17  C   UNL     1      -8.021  17.613  66.428  1.00  0.00    -0.309 A  
HETATM   18  C   UNL     1      -8.416  16.323  66.789  1.00  0.00    -0.283 A  
HETATM   19  C   UNL     1      -7.565  16.694  69.018  1.00  0.00    -0.226 A  
HETATM   20  C   UNL     1      -7.412  18.447  67.365  1.00  0.00    -0.221 A  
HETATM   21  C   UNL     1      -7.179  17.984  68.657  1.00  0.00    -0.276 A  
ENDBRANCH  14  16
BRANCH  12  22
HETATM   22  C   UNL     1     -11.710  15.962  71.392  1.00  0.00    -0.467 C  
HETATM   23  O   UNL     1     -12.912  13.893  71.654  1.00  0.00    -0.322 OA 
HETATM   24  O   UNL     1     -13.815  15.745  72.585  1.00  0.00    -0.565 OA 
HETATM   25  C   UNL     1     -12.923  15.220  71.935  1.00  0.00    -0.384 C  
ENDBRANCH  12  22
ENDBRANCH   4   9
BRANCH   8  26
HETATM   26  C   UNL     1      -8.621   8.366  65.388  1.00  0.00    -0.193 A  
HETATM   27  C   UNL     1      -7.350   6.356  64.861  1.00  0.00    -0.079 A  
HETATM   28  C   UNL     1      -8.352   8.807  64.075  1.00  0.00    -0.146 A  
HETATM   29  O   UNL     1      -6.811   5.157  65.230  1.00  0.00    -0.057 OA 
HETATM   30  C   UNL     1      -7.065   6.825  63.590  1.00  0.00    -0.060 A  
HETATM   31  H   UNL     1      -6.271   4.657  64.630  1.00  0.00     0.000 HD 
HETATM   32  C   UNL     1      -7.583   8.049  63.188  1.00  0.00    -0.126 A  
HETATM   33  C   UNL     1      -8.145   7.091  65.743  1.00  0.00    -0.123 A  
ENDBRANCH   8  26
TORSDOF 4
ENDMDL
MODEL       21
REMARK 921   NORMALIZED FREE ENERGY PREDICTED BY IDOCK:   -6.79 KCAL/MOL
REMARK 922        TOTAL FREE ENERGY PREDICTED BY IDOCK:   -8.98 KCAL/MOL
REMARK 923 INTER-LIGAND FREE ENERGY PREDICTED BY IDOCK:   -8.25 KCAL/MOL
REMARK 924 INTRA-LIGAND FREE ENERGY PREDICTED BY IDOCK:   -0.73 KCAL/MOL
REMARK 927      BINDING AFFINITY PREDICTED BY RF-SCORE:    0.00 PKD
ROOT
HETATM    1  C   UNL     1     -10.281   9.510  65.830  1.00  0.00    -0.107 C  
HETATM    2  C   UNL     1      -8.798   9.797  66.172  1.00  0.00    -0.162 C  
HETATM    3  C   UNL     1      -8.638  11.330  66.301  1.00  0.00    -0.172 C  
HETATM    4  N   UNL     1      -9.402  11.832  67.452  1.00  0.00    -0.171 NA 
HETATM    5  C   UNL     1      -6.742   9.269  67.615  1.00  0.00    -0.068 C  
HETATM    6  C   UNL     1      -8.917  11.238  68.699  1.00  0.00    -0.147 C  
HETATM    7  C   UNL     1      -8.988   9.713  68.681  1.00  0.00    -0.129 C  
HETATM    8  C   UNL     1      -8.274   9.061  67.467  1.00  0.00    -0.109 C  
ENDROOT
BRANCH   4   9
HETATM    9  C   UNL     1      -9.409  13.300  67.490  1.00  0.00    -0.218 C  
HETATM   10  C   UNL     1     -10.182  13.897  68.683  1.00  0.00    -0.218 C  
HETATM   11  C   UNL     1     -10.067  15.414  68.649  1.00  0.00    -0.212 C  
HETATM   12  N   UNL     1     -10.684  16.061  67.593  1.00  0.00    -0.316 N  
HETATM   13  O   UNL     1      -9.456  16.022  69.518  1.00  0.00    -0.248 OA 
HETATM   14  C   UNL     1     -11.649  13.428  68.752  1.00  0.00    -0.363 C  
HETATM   15  H   UNL     1     -11.222  15.540  66.900  1.00  0.00     0.000 HD 
BRANCH  14  16
HETATM   16  C   UNL     1     -12.321  13.836  70.045  1.00  0.00    -0.364 A  
HETATM   17  C   UNL     1     -13.398  15.531  71.413  1.00  0.00    -0.592 A  
HETATM   18  C   UNL     1     -12.710  15.168  70.252  1.00  0.00    -0.340 A  
HETATM   19  C   UNL     1     -12.614  12.885  71.030  1.00  0.00    -0.376 A  
HETATM   20  C   UNL     1     -13.706  14.569  72.374  1.00  0.00    -0.583 A  
HETATM   21  C   UNL     1     -13.308  13.248  72.184  1.00  0.00    -0.618 A  
ENDBRANCH  14  16
BRANCH  12  22
HETATM   22  C   UNL     1     -10.539  17.518  67.501  1.00  0.00    -0.333 C  
HETATM   23  O   UNL     1     -10.554  17.006  65.149  1.00  0.00    -0.688 OA 
HETATM   24  O   UNL     1     -10.110  19.141  65.746  1.00  0.00    -0.479 OA 
HETATM   25  C   UNL     1     -10.366  17.990  66.064  1.00  0.00    -0.331 C  
ENDBRANCH  12  22
ENDBRANCH   4   9
BRANCH   8  26
HETATM   26  C   UNL     1      -8.483   7.526  67.458  1.00  0.00    -0.119 A  
HETATM   27  C   UNL     1      -9.346   5.481  68.465  1.00  0.00    -0.121 A  
HETATM   28  C   UNL     1      -7.966   6.724  66.419  1.00  0.00    -0.106 A  
HETATM   29  O   UNL     1      -9.991   4.834  69.478  1.00  0.00    -0.209 OA 
HETATM   30  C   UNL     1      -8.795   4.709  67.455  1.00  0.00    -0.112 A  
HETATM   31  H   UNL     1     -10.071   3.888  69.483  1.00  0.00     0.000 HD 
HETATM   32  C   UNL     1      -8.117   5.334  66.418  1.00  0.00    -0.108 A  
HETATM   33  C   UNL     1      -9.228   6.873  68.457  1.00  0.00    -0.129 A  
ENDBRANCH   8  26
TORSDOF 4
ENDMDL
MODEL       22
REMARK 921   NORMALIZED FREE ENERGY PREDICTED BY IDOCK:   -6.69 KCAL/MOL
REMARK 922        TOTAL FREE ENERGY PREDICTED BY IDOCK:   -8.86 KCAL/MOL
REMARK 923 INTER-LIGAND FREE ENERGY PREDICTED BY IDOCK:   -8.54 KCAL/MOL
REMARK 924 INTRA-LIGAND FREE ENERGY PREDICTED BY IDOCK:   -0.32 KCAL/MOL
REMARK 927      BINDING AFFINITY PREDICTED BY RF-SCORE:    0.00 PKD
ROOT
HETATM    1  C   UNL     1      -8.293  13.130  68.191  1.00  0.00    -0.161 C  
HETATM    2  C   UNL     1      -9.264  12.241  67.375  1.00  0.00    -0.182 C  
HETATM    3  C   UNL     1      -9.322  10.859  68.066  1.00  0.00    -0.160 C  
HETATM    4  N   UNL     1      -9.934  10.974  69.398  1.00  0.00    -0.069 NA 
HETATM    5  C   UNL     1     -11.541  11.973  66.222  1.00  0.00    -0.378 C  
HETATM    6  C   UNL     1     -11.309  11.469  69.299  1.00  0.00    -0.288 C  
HETATM    7  C   UNL     1     -11.388  12.821  68.596  1.00  0.00    -0.333 C  
HETATM    8  C   UNL     1     -10.711  12.849  67.199  1.00  0.00    -0.268 C  
ENDROOT
BRANCH   4   9
HETATM    9  C   UNL     1      -9.840   9.712  70.141  1.00  0.00    -0.262 C  
HETATM   10  C   UNL     1      -9.551   8.480  69.260  1.00  0.00    -0.170 C  
HETATM   11  C   UNL     1      -9.416   7.248  70.143  1.00  0.00    -0.165 C  
HETATM   12  N   UNL     1     -10.556   6.830  70.805  1.00  0.00    -0.218 N  
HETATM   13  O   UNL     1      -8.346   6.665  70.256  1.00  0.00    -0.130 OA 
HETATM   14  C   UNL     1     -10.590   8.279  68.139  1.00  0.00    -0.169 C  
HETATM   15  H   UNL     1     -11.448   7.305  70.667  1.00  0.00     0.000 HD 
BRANCH  14  16
HETATM   16  C   UNL     1     -10.168   7.212  67.152  1.00  0.00    -0.327 A  
HETATM   17  C   UNL     1      -8.582   6.365  65.518  1.00  0.00    -0.115 A  
HETATM   18  C   UNL     1      -9.014   7.382  66.373  1.00  0.00    -0.190 A  
HETATM   19  C   UNL     1     -10.890   6.016  67.040  1.00  0.00    -0.413 A  
HETATM   20  C   UNL     1      -9.295   5.170  65.435  1.00  0.00    -0.090 A  
HETATM   21  C   UNL     1     -10.452   5.000  66.191  1.00  0.00    -0.334 A  
ENDBRANCH  14  16
BRANCH  12  22
HETATM   22  C   UNL     1     -10.443   5.681  71.711  1.00  0.00    -0.228 C  
HETATM   23  O   UNL     1     -11.156   7.334  73.309  1.00  0.00    -0.331 OA 
HETATM   24  O   UNL     1     -10.551   5.307  74.108  1.00  0.00    -0.278 OA 
HETATM   25  C   UNL     1     -10.703   6.063  73.161  1.00  0.00    -0.260 C  
ENDBRANCH  12  22
ENDBRANCH   4   9
BRANCH   8  26
HETATM   26  C   UNL     1     -10.735  14.276  66.598  1.00  0.00    -0.290 A  
HETATM   27  C   UNL     1     -11.327  15.838  64.823  1.00  0.00    -0.314 A  
HETATM   28  C   UNL     1     -10.144  15.364  67.274  1.00  0.00    -0.238 A  
HETATM   29  O   UNL     1     -11.871  16.097  63.599  1.00  0.00    -1.370 OA 
HETATM   30  C   UNL     1     -10.706  16.884  65.486  1.00  0.00    -0.171 A  
HETATM   31  H   UNL     1     -11.837  16.968  63.222  1.00  0.00     0.000 HD 
HETATM   32  C   UNL     1     -10.127  16.650  66.726  1.00  0.00    -0.293 A  
HETATM   33  C   UNL     1     -11.377  14.557  65.378  1.00  0.00    -0.341 A  
ENDBRANCH   8  26
TORSDOF 4
ENDMDL
MODEL       23
REMARK 921   NORMALIZED FREE ENERGY PREDICTED BY IDOCK:   -6.56 KCAL/MOL
REMARK 922        TOTAL FREE ENERGY PREDICTED BY IDOCK:   -8.70 KCAL/MOL
REMARK 923 INTER-LIGAND FREE ENERGY PREDICTED BY IDOCK:   -8.63 KCAL/MOL
REMARK 924 INTRA-LIGAND FREE ENERGY PREDICTED BY IDOCK:   -0.07 KCAL/MOL
REMARK 927      BINDING AFFINITY PREDICTED BY RF-SCORE:    0.00 PKD
ROOT
HETATM    1  C   UNL     1     -10.570   9.820  67.076  1.00  0.00    -0.269 C  
HETATM    2  C   UNL     1      -9.779   9.662  68.398  1.00  0.00    -0.163 C  
HETATM    3  C   UNL     1     -10.089  10.898  69.275  1.00  0.00    -0.140 C  
HETATM    4  N   UNL     1     -11.505  10.906  69.672  1.00  0.00    -0.277 NA 
HETATM    5  C   UNL     1      -9.107   8.183  70.384  1.00  0.00    -0.150 C  
HETATM    6  C   UNL     1     -11.831   9.717  70.464  1.00  0.00    -0.240 C  
HETATM    7  C   UNL     1     -11.531   8.422  69.715  1.00  0.00     0.251 C  
HETATM    8  C   UNL     1     -10.077   8.323  69.180  1.00  0.00    -0.205 C  
ENDROOT
BRANCH   4   9
HETATM    9  C   UNL     1     -11.862  12.155  70.355  1.00  0.00    -0.187 C  
HETATM   10  C   UNL     1     -11.735  13.414  69.475  1.00  0.00    -0.385 C  
HETATM   11  C   UNL     1     -12.188  14.632  70.268  1.00  0.00    -0.331 C  
HETATM   12  N   UNL     1     -11.406  14.994  71.350  1.00  0.00    -0.531 N  
HETATM   13  O   UNL     1     -13.196  15.251  69.956  1.00  0.00    -0.009 OA 
HETATM   14  C   UNL     1     -10.325  13.601  68.881  1.00  0.00    -0.127 C  
HETATM   15  H   UNL     1     -10.548  14.489  71.571  1.00  0.00     0.000 HD 
BRANCH  14  16
HETATM   16  C   UNL     1     -10.280  14.703  67.845  1.00  0.00    -0.226 A  
HETATM   17  C   UNL     1      -9.522  16.901  67.142  1.00  0.00    -0.241 A  
HETATM   18  C   UNL     1      -9.629  15.914  68.124  1.00  0.00    -0.208 A  
HETATM   19  C   UNL     1     -10.838  14.512  66.574  1.00  0.00    -0.314 A  
HETATM   20  C   UNL     1     -10.060  16.688  65.874  1.00  0.00    -0.341 A  
HETATM   21  C   UNL     1     -10.723  15.497  65.594  1.00  0.00    -0.378 A  
ENDBRANCH  14  16
BRANCH  12  22
HETATM   22  C   UNL     1     -11.850  16.127  72.170  1.00  0.00    -0.536 C  
HETATM   23  O   UNL     1     -12.685  14.337  73.545  1.00  0.00    -0.380 OA 
HETATM   24  O   UNL     1     -13.250  16.447  74.129  1.00  0.00    -0.599 OA 
HETATM   25  C   UNL     1     -12.673  15.682  73.371  1.00  0.00    -0.542 C  
ENDBRANCH  12  22
ENDBRANCH   4   9
BRANCH   8  26
HETATM   26  C   UNL     1      -9.881   7.036  68.339  1.00  0.00    -0.148 A  
HETATM   27  C   UNL     1     -10.614   5.478  66.615  1.00  0.00    -0.299 A  
HETATM   28  C   UNL     1      -8.770   6.191  68.545  1.00  0.00    -0.111 A  
HETATM   29  O   UNL     1     -11.524   5.080  65.680  1.00  0.00    -0.821 OA 
HETATM   30  C   UNL     1      -9.537   4.642  66.861  1.00  0.00    -0.197 A  
HETATM   31  H   UNL     1     -11.415   4.265  65.205  1.00  0.00     0.000 HD 
HETATM   32  C   UNL     1      -8.601   5.009  67.819  1.00  0.00    -0.103 A  
HETATM   33  C   UNL     1     -10.774   6.677  67.313  1.00  0.00    -0.427 A  
ENDBRANCH   8  26
TORSDOF 4
ENDMDL
MODEL       24
REMARK 921   NORMALIZED FREE ENERGY PREDICTED BY IDOCK:   -6.54 KCAL/MOL
REMARK 922        TOTAL FREE ENERGY PREDICTED BY IDOCK:   -8.67 KCAL/MOL
REMARK 923 INTER-LIGAND FREE ENERGY PREDICTED BY IDOCK:   -7.38 KCAL/MOL
REMARK 924 INTRA-LIGAND FREE ENERGY PREDICTED BY IDOCK:   -1.30 KCAL/MOL
REMARK 927      BINDING AFFINITY PREDICTED BY RF-SCORE:    0.00 PKD
ROOT
HETATM    1  C   UNL     1     -11.130  14.846  65.857  1.00  0.00    -0.338 C  
HETATM    2  C   UNL     1     -10.984  14.869  67.399  1.00  0.00    -0.314 C  
HETATM    3  C   UNL     1     -10.949  13.401  67.884  1.00  0.00    -0.256 C  
HETATM    4  N   UNL     1      -9.740  12.724  67.393  1.00  0.00    -0.194 NA 
HETATM    5  C   UNL     1      -9.776  15.783  69.470  1.00  0.00    -0.276 C  
HETATM    6  C   UNL     1      -8.533  13.379  67.903  1.00  0.00    -0.173 C  
HETATM    7  C   UNL     1      -8.469  14.855  67.518  1.00  0.00    -0.198 C  
HETATM    8  C   UNL     1      -9.727  15.669  67.922  1.00  0.00    -0.211 C  
ENDROOT
BRANCH   4   9
HETATM    9  C   UNL     1      -9.772  11.287  67.693  1.00  0.00    -0.171 C  
HETATM   10  C   UNL     1      -8.916  10.425  66.744  1.00  0.00    -0.153 C  
HETATM   11  C   UNL     1      -8.980   8.970  67.189  1.00  0.00    -0.130 C  
HETATM   12  N   UNL     1     -10.205   8.339  67.075  1.00  0.00    -0.282 N  
HETATM   13  O   UNL     1      -7.990   8.398  67.625  1.00  0.00    -0.108 OA 
HETATM   14  C   UNL     1      -9.296  10.595  65.260  1.00  0.00    -0.256 C  
HETATM   15  H   UNL     1     -11.009   8.821  66.672  1.00  0.00     0.000 HD 
BRANCH  14  16
HETATM   16  C   UNL     1      -8.304   9.925  64.334  1.00  0.00    -0.169 A  
HETATM   17  C   UNL     1      -7.840   8.505  62.418  1.00  0.00    -0.139 A  
HETATM   18  C   UNL     1      -8.748   9.064  63.320  1.00  0.00    -0.108 A  
HETATM   19  C   UNL     1      -6.933  10.195  64.439  1.00  0.00    -0.106 A  
HETATM   20  C   UNL     1      -6.482   8.802  62.518  1.00  0.00    -0.095 A  
HETATM   21  C   UNL     1      -6.029   9.642  63.532  1.00  0.00    -0.103 A  
ENDBRANCH  14  16
BRANCH  12  22
HETATM   22  C   UNL     1     -10.312   6.956  67.551  1.00  0.00    -0.217 C  
HETATM   23  O   UNL     1     -11.153   8.079  69.507  1.00  0.00    -0.123 OA 
HETATM   24  O   UNL     1     -10.818   5.847  69.653  1.00  0.00    -0.315 OA 
HETATM   25  C   UNL     1     -10.770   6.880  69.001  1.00  0.00    -0.230 C  
ENDBRANCH  12  22
ENDBRANCH   4   9
BRANCH   8  26
HETATM   26  C   UNL     1      -9.637  17.126  67.403  1.00  0.00    -0.247 A  
HETATM   27  C   UNL     1      -8.466  18.901  66.214  1.00  0.00    -0.256 A  
HETATM   28  C   UNL     1     -10.658  18.062  67.671  1.00  0.00    -0.413 A  
HETATM   29  O   UNL     1      -7.381  19.356  65.522  1.00  0.00    -0.414 OA 
HETATM   30  C   UNL     1      -9.461  19.814  66.522  1.00  0.00    -0.500 A  
HETATM   31  H   UNL     1      -7.317  20.264  65.251  1.00  0.00     0.000 HD 
HETATM   32  C   UNL     1     -10.571  19.388  67.239  1.00  0.00    -0.599 A  
HETATM   33  C   UNL     1      -8.559  17.566  66.613  1.00  0.00    -0.284 A  
ENDBRANCH   8  26
TORSDOF 4
ENDMDL
MODEL       25
REMARK 921   NORMALIZED FREE ENERGY PREDICTED BY IDOCK:   -6.53 KCAL/MOL
REMARK 922        TOTAL FREE ENERGY PREDICTED BY IDOCK:   -8.66 KCAL/MOL
REMARK 923 INTER-LIGAND FREE ENERGY PREDICTED BY IDOCK:   -7.95 KCAL/MOL
REMARK 924 INTRA-LIGAND FREE ENERGY PREDICTED BY IDOCK:   -0.70 KCAL/MOL
REMARK 927      BINDING AFFINITY PREDICTED BY RF-SCORE:    0.00 PKD
ROOT
HETATM    1  C   UNL     1      -8.327  15.427  69.136  1.00  0.00    -0.242 C  
HETATM    2  C   UNL     1      -8.604  14.977  67.681  1.00  0.00    -0.179 C  
HETATM    3  C   UNL     1      -8.774  13.440  67.693  1.00  0.00    -0.198 C  
HETATM    4  N   UNL     1      -9.977  13.060  68.448  1.00  0.00    -0.232 NA 
HETATM    5  C   UNL     1      -9.927  15.297  65.505  1.00  0.00    -0.383 C  
HETATM    6  C   UNL     1     -11.180  13.626  67.832  1.00  0.00    -0.274 C  
HETATM    7  C   UNL     1     -11.116  15.147  67.728  1.00  0.00    -0.313 C  
HETATM    8  C   UNL     1      -9.848  15.680  67.008  1.00  0.00    -0.237 C  
ENDROOT
BRANCH   4   9
HETATM    9  C   UNL     1     -10.062  11.605  68.623  1.00  0.00    -0.198 C  
HETATM   10  C   UNL     1      -9.331  10.795  67.534  1.00  0.00    -0.158 C  
HETATM   11  C   UNL     1      -9.437   9.310  67.854  1.00  0.00    -0.137 C  
HETATM   12  N   UNL     1     -10.700   8.749  67.788  1.00  0.00    -0.462 N  
HETATM   13  O   UNL     1      -8.448   8.656  68.154  1.00  0.00    -0.128 OA 
HETATM   14  C   UNL     1      -9.818  11.117  66.108  1.00  0.00    -0.265 C  
HETATM   15  H   UNL     1     -11.506   9.302  67.497  1.00  0.00     0.000 HD 
BRANCH  14  16
HETATM   16  C   UNL     1      -8.939  10.489  65.047  1.00  0.00    -0.223 A  
HETATM   17  C   UNL     1      -8.682   9.493  62.846  1.00  0.00    -0.233 A  
HETATM   18  C   UNL     1      -9.500  10.003  63.857  1.00  0.00    -0.280 A  
HETATM   19  C   UNL     1      -7.549  10.434  65.211  1.00  0.00    -0.118 A  
HETATM   20  C   UNL     1      -7.298   9.467  63.012  1.00  0.00    -0.106 A  
HETATM   21  C   UNL     1      -6.734   9.932  64.197  1.00  0.00    -0.126 A  
ENDBRANCH  14  16
BRANCH  12  22
HETATM   22  C   UNL     1     -10.843   7.334  68.149  1.00  0.00    -0.068 C  
HETATM   23  O   UNL     1     -11.353   8.308  70.290  1.00  0.00    -0.234 OA 
HETATM   24  O   UNL     1     -11.159   6.058  70.191  1.00  0.00    -0.338 OA 
HETATM   25  C   UNL     1     -11.120   7.144  69.634  1.00  0.00    -0.179 C  
ENDBRANCH  12  22
ENDBRANCH   4   9
BRANCH   8  26
HETATM   26  C   UNL     1      -9.801  17.228  67.039  1.00  0.00    -0.281 A  
HETATM   27  C   UNL     1      -8.807  19.349  66.366  1.00  0.00    -0.359 A  
HETATM   28  C   UNL     1     -10.714  17.972  67.815  1.00  0.00    -0.350 A  
HETATM   29  O   UNL     1      -7.856  20.056  65.690  1.00  0.00    -0.417 OA 
HETATM   30  C   UNL     1      -9.689  20.057  67.165  1.00  0.00    -0.545 A  
HETATM   31  H   UNL     1      -7.810  21.002  65.756  1.00  0.00     0.000 HD 
HETATM   32  C   UNL     1     -10.659  19.367  67.880  1.00  0.00    -0.501 A  
HETATM   33  C   UNL     1      -8.876  17.957  66.269  1.00  0.00    -0.189 A  
ENDBRANCH   8  26
TORSDOF 4
ENDMDL
MODEL       26
REMARK 921   NORMALIZED FREE ENERGY PREDICTED BY IDOCK:   -6.51 KCAL/MOL
REMARK 922        TOTAL FREE ENERGY PREDICTED BY IDOCK:   -8.63 KCAL/MOL
REMARK 923 INTER-LIGAND FREE ENERGY PREDICTED BY IDOCK:   -8.07 KCAL/MOL
REMARK 924 INTRA-LIGAND FREE ENERGY PREDICTED BY IDOCK:   -0.57 KCAL/MOL
REMARK 927      BINDING AFFINITY PREDICTED BY RF-SCORE:    0.00 PKD
ROOT
HETATM    1  C   UNL     1     -10.632  13.398  64.679  1.00  0.00    -0.431 C  
HETATM    2  C   UNL     1     -10.938  13.056  66.158  1.00  0.00    -0.300 C  
HETATM    3  C   UNL     1     -10.965  11.515  66.283  1.00  0.00    -0.275 C  
HETATM    4  N   UNL     1      -9.631  10.953  66.027  1.00  0.00    -0.200 NA 
HETATM    5  C   UNL     1     -10.431  13.439  68.644  1.00  0.00    -0.237 C  
HETATM    6  C   UNL     1      -8.660  11.452  67.004  1.00  0.00    -0.157 C  
HETATM    7  C   UNL     1      -8.568  12.975  67.003  1.00  0.00    -0.165 C  
HETATM    8  C   UNL     1      -9.932  13.691  67.196  1.00  0.00    -0.247 C  
ENDROOT
BRANCH   4   9
HETATM    9  C   UNL     1      -9.670   9.487  65.966  1.00  0.00    -0.272 C  
HETATM   10  C   UNL     1     -10.308   8.821  67.201  1.00  0.00    -0.364 C  
HETATM   11  C   UNL     1     -10.347   7.313  66.997  1.00  0.00    -0.306 C  
HETATM   12  N   UNL     1      -9.129   6.660  66.953  1.00  0.00    -0.131 N  
HETATM   13  O   UNL     1     -11.410   6.718  66.877  1.00  0.00    -0.318 OA 
HETATM   14  C   UNL     1      -9.620   9.209  68.525  1.00  0.00    -0.156 C  
HETATM   15  H   UNL     1      -8.255   7.168  67.094  1.00  0.00     0.000 HD 
BRANCH  14  16
HETATM   16  C   UNL     1     -10.395   8.734  69.734  1.00  0.00    -0.214 A  
HETATM   17  C   UNL     1     -10.734   7.115  71.514  1.00  0.00    -0.245 A  
HETATM   18  C   UNL     1     -10.069   7.518  70.353  1.00  0.00    -0.196 A  
HETATM   19  C   UNL     1     -11.411   9.524  70.288  1.00  0.00    -0.256 A  
HETATM   20  C   UNL     1     -11.726   7.923  72.069  1.00  0.00    -0.360 A  
HETATM   21  C   UNL     1     -12.067   9.123  71.451  1.00  0.00    -0.409 A  
ENDBRANCH  14  16
BRANCH  12  22
HETATM   22  C   UNL     1      -9.132   5.215  66.697  1.00  0.00    -0.120 C  
HETATM   23  O   UNL     1      -8.223   5.953  64.594  1.00  0.00    -0.133 OA 
HETATM   24  O   UNL     1      -8.730   3.759  64.795  1.00  0.00    -0.110 OA 
HETATM   25  C   UNL     1      -8.694   4.880  65.278  1.00  0.00    -0.146 C  
ENDBRANCH  12  22
ENDBRANCH   4   9
BRANCH   8  26
HETATM   26  C   UNL     1      -9.775  15.228  67.074  1.00  0.00    -0.232 A  
HETATM   27  C   UNL     1      -8.558  17.198  66.314  1.00  0.00    -0.241 A  
HETATM   28  C   UNL     1     -10.715  16.107  67.652  1.00  0.00    -0.318 A  
HETATM   29  O   UNL     1      -7.486  17.767  65.690  1.00  0.00    -0.533 OA 
HETATM   30  C   UNL     1      -9.472  18.042  66.922  1.00  0.00    -0.288 A  
HETATM   31  H   UNL     1      -7.379  18.710  65.664  1.00  0.00     0.000 HD 
HETATM   32  C   UNL     1     -10.565  17.495  67.580  1.00  0.00    -0.333 A  
HETATM   33  C   UNL     1      -8.717  15.811  66.352  1.00  0.00    -0.372 A  
ENDBRANCH   8  26
TORSDOF 4
ENDMDL
MODEL       27
REMARK 921   NORMALIZED FREE ENERGY PREDICTED BY IDOCK:   -6.49 KCAL/MOL
REMARK 922        TOTAL FREE ENERGY PREDICTED BY IDOCK:   -8.62 KCAL/MOL
REMARK 923 INTER-LIGAND FREE ENERGY PREDICTED BY IDOCK:   -7.56 KCAL/MOL
REMARK 924 INTRA-LIGAND FREE ENERGY PREDICTED BY IDOCK:   -1.06 KCAL/MOL
REMARK 927      BINDING AFFINITY PREDICTED BY RF-SCORE:    0.00 PKD
ROOT
HETATM    1  C   UNL     1      -9.062   8.945  71.098  1.00  0.00    -0.315 C  
HETATM    2  C   UNL     1     -10.561   8.593  70.935  1.00  0.00    -0.265 C  
HETATM    3  C   UNL     1     -11.084   9.353  69.694  1.00  0.00    -0.142 C  
HETATM    4  N   UNL     1     -10.437   8.854  68.472  1.00  0.00    -0.202 NA 
HETATM    5  C   UNL     1     -12.389   6.794  70.841  1.00  0.00    -0.336 C  
HETATM    6  C   UNL     1     -10.732   7.434  68.268  1.00  0.00    -0.099 C  
HETATM    7  C   UNL     1     -10.292   6.576  69.451  1.00  0.00    -0.241 C  
HETATM    8  C   UNL     1     -10.857   7.046  70.818  1.00  0.00    -0.272 C  
ENDROOT
BRANCH   4   9
HETATM    9  C   UNL     1     -10.786   9.677  67.307  1.00  0.00    -0.214 C  
HETATM   10  C   UNL     1      -9.867  10.897  67.098  1.00  0.00    -0.213 C  
HETATM   11  C   UNL     1     -10.287  11.634  65.834  1.00  0.00    -0.248 C  
HETATM   12  N   UNL     1     -11.528  12.246  65.854  1.00  0.00    -0.361 N  
HETATM   13  O   UNL     1      -9.556  11.675  64.853  1.00  0.00    -0.224 OA 
HETATM   14  C   UNL     1      -9.811  11.832  68.322  1.00  0.00    -0.198 C  
HETATM   15  H   UNL     1     -12.106  12.234  66.695  1.00  0.00     0.000 HD 
BRANCH  14  16
HETATM   16  C   UNL     1      -8.738  12.890  68.186  1.00  0.00    -0.190 A  
HETATM   17  C   UNL     1      -6.444  13.507  67.675  1.00  0.00    -0.169 A  
HETATM   18  C   UNL     1      -7.419  12.527  67.876  1.00  0.00    -0.120 A  
HETATM   19  C   UNL     1      -9.053  14.249  68.313  1.00  0.00    -0.188 A  
HETATM   20  C   UNL     1      -6.777  14.857  67.780  1.00  0.00    -0.191 A  
HETATM   21  C   UNL     1      -8.080  15.226  68.105  1.00  0.00    -0.136 A  
ENDBRANCH  14  16
BRANCH  12  22
HETATM   22  C   UNL     1     -11.986  12.912  64.630  1.00  0.00    -0.392 C  
HETATM   23  O   UNL     1     -11.594  14.866  65.980  1.00  0.00    -0.323 OA 
HETATM   24  O   UNL     1     -12.572  15.173  63.964  1.00  0.00    -0.791 OA 
HETATM   25  C   UNL     1     -12.100  14.420  64.802  1.00  0.00    -0.452 C  
ENDBRANCH  12  22
ENDBRANCH   4   9
BRANCH   8  26
HETATM   26  C   UNL     1     -10.281   6.197  71.979  1.00  0.00    -0.223 A  
HETATM   27  C   UNL     1      -8.841   4.418  72.815  1.00  0.00    -0.108 A  
HETATM   28  C   UNL     1     -10.698   6.402  73.312  1.00  0.00    -0.288 A  
HETATM   29  O   UNL     1      -7.950   3.407  72.598  1.00  0.00    -0.066 OA 
HETATM   30  C   UNL     1      -9.293   4.610  74.110  1.00  0.00    -0.124 A  
HETATM   31  H   UNL     1      -7.641   2.864  73.313  1.00  0.00     0.000 HD 
HETATM   32  C   UNL     1     -10.213   5.619  74.363  1.00  0.00    -0.295 A  
HETATM   33  C   UNL     1      -9.295   5.217  71.764  1.00  0.00    -0.175 A  
ENDBRANCH   8  26
TORSDOF 4
ENDMDL
MODEL       28
REMARK 921   NORMALIZED FREE ENERGY PREDICTED BY IDOCK:   -6.41 KCAL/MOL
REMARK 922        TOTAL FREE ENERGY PREDICTED BY IDOCK:   -8.51 KCAL/MOL
REMARK 923 INTER-LIGAND FREE ENERGY PREDICTED BY IDOCK:   -7.56 KCAL/MOL
REMARK 924 INTRA-LIGAND FREE ENERGY PREDICTED BY IDOCK:   -0.95 KCAL/MOL
REMARK 927      BINDING AFFINITY PREDICTED BY RF-SCORE:    0.00 PKD
ROOT
HETATM    1  C   UNL     1     -10.507  14.637  64.934  1.00  0.00    -0.415 C  
HETATM    2  C   UNL     1     -11.350  14.717  66.231  1.00  0.00    -0.347 C  
HETATM    3  C   UNL     1     -11.755  13.273  66.612  1.00  0.00    -0.377 C  
HETATM    4  N   UNL     1     -10.569  12.484  66.973  1.00  0.00    -0.231 NA 
HETATM    5  C   UNL     1     -11.617  15.625  68.616  1.00  0.00    -0.391 C  
HETATM    6  C   UNL     1      -9.888  13.065  68.132  1.00  0.00    -0.228 C  
HETATM    7  C   UNL     1      -9.469  14.513  67.892  1.00  0.00    -0.212 C  
HETATM    8  C   UNL     1     -10.627  15.439  67.435  1.00  0.00    -0.289 C  
ENDROOT
BRANCH   4   9
HETATM    9  C   UNL     1     -10.907  11.068  67.166  1.00  0.00    -0.282 C  
HETATM   10  C   UNL     1      -9.754  10.215  67.733  1.00  0.00    -0.176 C  
HETATM   11  C   UNL     1     -10.241   8.789  67.946  1.00  0.00    -0.219 C  
HETATM   12  N   UNL     1     -10.563   8.066  66.812  1.00  0.00    -0.396 N  
HETATM   13  O   UNL     1     -10.339   8.316  69.071  1.00  0.00    -0.218 OA 
HETATM   14  C   UNL     1      -8.478  10.270  66.870  1.00  0.00    -0.126 C  
HETATM   15  H   UNL     1     -10.437   8.464  65.881  1.00  0.00     0.000 HD 
BRANCH  14  16
HETATM   16  C   UNL     1      -7.296   9.619  67.555  1.00  0.00    -0.090 A  
HETATM   17  C   UNL     1      -5.828   9.419  69.481  1.00  0.00    -0.033 A  
HETATM   18  C   UNL     1      -6.870  10.068  68.814  1.00  0.00    -0.057 A  
HETATM   19  C   UNL     1      -6.644   8.526  66.970  1.00  0.00    -0.058 A  
HETATM   20  C   UNL     1      -5.204   8.316  68.898  1.00  0.00    -0.031 A  
HETATM   21  C   UNL     1      -5.609   7.875  67.641  1.00  0.00    -0.037 A  
ENDBRANCH  14  16
BRANCH  12  22
HETATM   22  C   UNL     1     -11.092   6.709  66.990  1.00  0.00    -0.325 C  
HETATM   23  O   UNL     1      -9.036   6.152  65.867  1.00  0.00    -0.151 OA 
HETATM   24  O   UNL     1     -10.505   4.474  66.240  1.00  0.00    -0.259 OA 
HETATM   25  C   UNL     1     -10.211   5.656  66.330  1.00  0.00    -0.171 C  
ENDBRANCH  12  22
ENDBRANCH   4   9
BRANCH   8  26
HETATM   26  C   UNL     1     -10.105  16.860  67.105  1.00  0.00    -0.287 A  
HETATM   27  C   UNL     1      -8.425  18.355  66.167  1.00  0.00    -0.119 A  
HETATM   28  C   UNL     1     -10.833  18.011  67.476  1.00  0.00    -0.252 A  
HETATM   29  O   UNL     1      -7.223  18.559  65.554  1.00  0.00    -0.515 OA 
HETATM   30  C   UNL     1      -9.137  19.471  66.575  1.00  0.00    -0.416 A  
HETATM   31  H   UNL     1      -6.894  19.436  65.401  1.00  0.00     0.000 HD 
HETATM   32  C   UNL     1     -10.356  19.298  67.217  1.00  0.00    -0.538 A  
HETATM   33  C   UNL     1      -8.910  17.065  66.392  1.00  0.00    -0.313 A  
ENDBRANCH   8  26
TORSDOF 4
ENDMDL
MODEL       29
REMARK 921   NORMALIZED FREE ENERGY PREDICTED BY IDOCK:   -6.40 KCAL/MOL
REMARK 922        TOTAL FREE ENERGY PREDICTED BY IDOCK:   -8.50 KCAL/MOL
REMARK 923 INTER-LIGAND FREE ENERGY PREDICTED BY IDOCK:   -7.81 KCAL/MOL
REMARK 924 INTRA-LIGAND FREE ENERGY PREDICTED BY IDOCK:   -0.69 KCAL/MOL
REMARK 927      BINDING AFFINITY PREDICTED BY RF-SCORE:    0.00 PKD
ROOT
HETATM    1  C   UNL     1      -9.357   8.526  72.258  1.00  0.00    -0.363 C  
HETATM    2  C   UNL     1     -10.897   8.379  72.191  1.00  0.00    -0.407 C  
HETATM    3  C   UNL     1     -11.450   9.616  71.446  1.00  0.00    -0.385 C  
HETATM    4  N   UNL     1     -11.003   9.618  70.046  1.00  0.00    -0.247 NA 
HETATM    5  C   UNL     1     -12.935   6.912  71.663  1.00  0.00    -0.359 C  
HETATM    6  C   UNL     1     -11.494   8.431  69.341  1.00  0.00     0.542 C  
HETATM    7  C   UNL     1     -11.041   7.134  70.007  1.00  0.00    -0.288 C  
HETATM    8  C   UNL     1     -11.395   7.041  71.516  1.00  0.00    -0.290 C  
ENDROOT
BRANCH   4   9
HETATM    9  C   UNL     1     -11.369  10.868  69.369  1.00  0.00    -0.280 C  
HETATM   10  C   UNL     1     -10.920  10.943  67.896  1.00  0.00    -0.325 C  
HETATM   11  C   UNL     1     -11.406  12.251  67.287  1.00  0.00    -0.328 C  
HETATM   12  N   UNL     1     -10.848  13.414  67.786  1.00  0.00    -0.248 N  
HETATM   13  O   UNL     1     -12.250  12.261  66.401  1.00  0.00    -0.613 OA 
HETATM   14  C   UNL     1      -9.402  10.747  67.713  1.00  0.00    -0.158 C  
HETATM   15  H   UNL     1     -10.117  13.383  68.497  1.00  0.00     0.000 HD 
BRANCH  14  16
HETATM   16  C   UNL     1      -9.015  10.595  66.258  1.00  0.00    -0.180 A  
HETATM   17  C   UNL     1      -7.305  10.460  64.538  1.00  0.00    -0.013 A  
HETATM   18  C   UNL     1      -7.670  10.675  65.869  1.00  0.00    -0.146 A  
HETATM   19  C   UNL     1      -9.985  10.318  65.286  1.00  0.00    -0.387 A  
HETATM   20  C   UNL     1      -8.277  10.159  63.585  1.00  0.00    -0.166 A  
HETATM   21  C   UNL     1      -9.617  10.095  63.960  1.00  0.00    -0.320 A  
ENDBRANCH  14  16
BRANCH  12  22
HETATM   22  C   UNL     1     -11.340  14.693  67.261  1.00  0.00    -0.353 C  
HETATM   23  O   UNL     1      -9.420  14.430  65.833  1.00  0.00    -0.256 OA 
HETATM   24  O   UNL     1     -10.548  16.386  65.711  1.00  0.00    -0.350 OA 
HETATM   25  C   UNL     1     -10.413  15.277  66.205  1.00  0.00    -0.307 C  
ENDBRANCH  12  22
ENDBRANCH   4   9
BRANCH   8  26
HETATM   26  C   UNL     1     -10.809   5.752  72.146  1.00  0.00    -0.296 A  
HETATM   27  C   UNL     1      -9.585   3.653  71.967  1.00  0.00    -0.144 A  
HETATM   28  C   UNL     1     -10.988   5.461  73.514  1.00  0.00    -0.323 A  
HETATM   29  O   UNL     1      -8.920   2.723  71.222  1.00  0.00    -0.083 OA 
HETATM   30  C   UNL     1      -9.806   3.368  73.304  1.00  0.00    -0.170 A  
HETATM   31  H   UNL     1      -8.607   1.915  71.612  1.00  0.00     0.000 HD 
HETATM   32  C   UNL     1     -10.496   4.285  74.086  1.00  0.00    -0.307 A  
HETATM   33  C   UNL     1     -10.045   4.841  71.394  1.00  0.00    -0.259 A  
ENDBRANCH   8  26
TORSDOF 4
ENDMDL
MODEL       30
REMARK 921   NORMALIZED FREE ENERGY PREDICTED BY IDOCK:   -6.38 KCAL/MOL
REMARK 922        TOTAL FREE ENERGY PREDICTED BY IDOCK:   -8.48 KCAL/MOL
REMARK 923 INTER-LIGAND FREE ENERGY PREDICTED BY IDOCK:   -8.77 KCAL/MOL
REMARK 924 INTRA-LIGAND FREE ENERGY PREDICTED BY IDOCK:    0.29 KCAL/MOL
REMARK 927      BINDING AFFINITY PREDICTED BY RF-SCORE:    0.00 PKD
ROOT
HETATM    1  C   UNL     1     -12.347  10.232  71.955  1.00  0.00    -0.079 C  
HETATM    2  C   UNL     1     -12.113   9.301  70.740  1.00  0.00    -0.231 C  
HETATM    3  C   UNL     1     -12.451  10.107  69.465  1.00  0.00     0.447 C  
HETATM    4  N   UNL     1     -11.501  11.215  69.289  1.00  0.00    -0.265 NA 
HETATM    5  C   UNL     1     -10.587   7.640  69.516  1.00  0.00    -0.227 C  
HETATM    6  C   UNL     1     -10.134  10.711  69.135  1.00  0.00    -0.216 C  
HETATM    7  C   UNL     1      -9.694   9.860  70.323  1.00  0.00    -0.211 C  
HETATM    8  C   UNL     1     -10.659   8.691  70.657  1.00  0.00    -0.249 C  
ENDROOT
BRANCH   4   9
HETATM    9  C   UNL     1     -11.905  12.097  68.187  1.00  0.00    -0.299 C  
HETATM   10  C   UNL     1     -11.430  11.629  66.797  1.00  0.00    -0.299 C  
HETATM   11  C   UNL     1     -11.958  12.584  65.736  1.00  0.00    -0.420 C  
HETATM   12  N   UNL     1     -11.460  13.874  65.757  1.00  0.00    -0.315 N  
HETATM   13  O   UNL     1     -12.784  12.217  64.910  1.00  0.00    -0.575 OA 
HETATM   14  C   UNL     1      -9.902  11.449  66.706  1.00  0.00    -0.232 C  
HETATM   15  H   UNL     1     -10.743  14.149  66.428  1.00  0.00     0.000 HD 
BRANCH  14  16
HETATM   16  C   UNL     1      -9.480  10.775  65.419  1.00  0.00    -0.258 A  
HETATM   17  C   UNL     1      -8.747   8.790  64.225  1.00  0.00    -0.038 A  
HETATM   18  C   UNL     1      -9.063   9.435  65.422  1.00  0.00    -0.280 A  
HETATM   19  C   UNL     1      -9.551  11.458  64.197  1.00  0.00    -0.217 A  
HETATM   20  C   UNL     1      -8.846   9.474  63.014  1.00  0.00    -0.242 A  
HETATM   21  C   UNL     1      -9.242  10.809  63.003  1.00  0.00    -0.320 A  
ENDBRANCH  14  16
BRANCH  12  22
HETATM   22  C   UNL     1     -11.995  14.833  64.784  1.00  0.00    -0.404 C  
HETATM   23  O   UNL     1      -9.966  15.994  65.359  1.00  0.00    -0.445 OA 
HETATM   24  O   UNL     1     -11.439  17.073  64.025  1.00  0.00    -0.983 OA 
HETATM   25  C   UNL     1     -11.135  16.085  64.677  1.00  0.00    -0.332 C  
ENDBRANCH  12  22
ENDBRANCH   4   9
BRANCH   8  26
HETATM   26  C   UNL     1     -10.206   7.944  71.937  1.00  0.00    -0.258 A  
HETATM   27  C   UNL     1     -10.493   6.186  73.599  1.00  0.00    -0.276 A  
HETATM   28  C   UNL     1      -9.071   8.362  72.663  1.00  0.00    -0.311 A  
HETATM   29  O   UNL     1     -11.194   5.130  74.106  1.00  0.00    -0.397 OA 
HETATM   30  C   UNL     1      -9.398   6.636  74.318  1.00  0.00    -0.247 A  
HETATM   31  H   UNL     1     -10.931   4.712  74.917  1.00  0.00     0.000 HD 
HETATM   32  C   UNL     1      -8.673   7.719  73.839  1.00  0.00    -0.322 A  
HETATM   33  C   UNL     1     -10.878   6.801  72.406  1.00  0.00    -0.270 A  
ENDBRANCH   8  26
TORSDOF 4
ENDMDL
MODEL       31
REMARK 921   NORMALIZED FREE ENERGY PREDICTED BY IDOCK:   -6.37 KCAL/MOL
REMARK 922        TOTAL FREE ENERGY PREDICTED BY IDOCK:   -8.47 KCAL/MOL
REMARK 923 INTER-LIGAND FREE ENERGY PREDICTED BY IDOCK:   -8.36 KCAL/MOL
REMARK 924 INTRA-LIGAND FREE ENERGY PREDICTED BY IDOCK:   -0.11 KCAL/MOL
REMARK 927      BINDING AFFINITY PREDICTED BY RF-SCORE:    0.00 PKD
ROOT
HETATM    1  C   UNL     1      -7.693   7.226  69.572  1.00  0.00    -0.113 C  
HETATM    2  C   UNL     1      -9.069   7.242  70.282  1.00  0.00    -0.152 C  
HETATM    3  C   UNL     1      -9.459   8.722  70.507  1.00  0.00    -0.186 C  
HETATM    4  N   UNL     1      -9.682   9.397  69.220  1.00  0.00    -0.166 NA 
HETATM    5  C   UNL     1     -11.487   6.390  70.390  1.00  0.00    -0.458 C  
HETATM    6  C   UNL     1     -10.780   8.765  68.484  1.00  0.00    -0.060 C  
HETATM    7  C   UNL     1     -10.528   7.281  68.231  1.00  0.00    -0.239 C  
HETATM    8  C   UNL     1     -10.209   6.466  69.513  1.00  0.00    -0.228 C  
ENDROOT
BRANCH   4   9
HETATM    9  C   UNL     1      -9.880  10.841  69.400  1.00  0.00    -0.085 C  
HETATM   10  C   UNL     1     -10.549  11.541  68.201  1.00  0.00    -0.226 C  
HETATM   11  C   UNL     1     -10.756  13.013  68.528  1.00  0.00    -0.255 C  
HETATM   12  N   UNL     1      -9.616  13.783  68.673  1.00  0.00    -0.365 N  
HETATM   13  O   UNL     1     -11.880  13.481  68.655  1.00  0.00    -0.333 OA 
HETATM   14  C   UNL     1      -9.784  11.343  66.878  1.00  0.00    -0.213 C  
HETATM   15  H   UNL     1      -8.689  13.384  68.524  1.00  0.00     0.000 HD 
BRANCH  14  16
HETATM   16  C   UNL     1     -10.569  11.837  65.682  1.00  0.00    -0.314 A  
HETATM   17  C   UNL     1     -10.840  12.030  63.276  1.00  0.00    -0.400 A  
HETATM   18  C   UNL     1     -10.080  11.642  64.382  1.00  0.00    -0.322 A  
HETATM   19  C   UNL     1     -11.819  12.447  65.851  1.00  0.00    -0.467 A  
HETATM   20  C   UNL     1     -12.093  12.613  63.457  1.00  0.00    -0.648 A  
HETATM   21  C   UNL     1     -12.578  12.826  64.744  1.00  0.00    -0.518 A  
ENDBRANCH  14  16
BRANCH  12  22
HETATM   22  C   UNL     1      -9.782  15.192  69.047  1.00  0.00    -0.234 C  
HETATM   23  O   UNL     1      -9.323  15.493  66.704  1.00  0.00    -0.230 OA 
HETATM   24  O   UNL     1      -9.454  17.352  67.985  1.00  0.00    -0.266 OA 
HETATM   25  C   UNL     1      -9.498  16.135  67.886  1.00  0.00    -0.214 C  
ENDBRANCH  12  22
ENDBRANCH   4   9
BRANCH   8  26
HETATM   26  C   UNL     1      -9.858   4.998  69.165  1.00  0.00    -0.262 A  
HETATM   27  C   UNL     1      -9.514   3.209  67.546  1.00  0.00    -0.142 A  
HETATM   28  C   UNL     1      -9.577   4.054  70.175  1.00  0.00    -0.270 A  
HETATM   29  O   UNL     1      -9.510   2.753  66.260  1.00  0.00    -0.361 OA 
HETATM   30  C   UNL     1      -9.280   2.290  68.555  1.00  0.00    -0.235 A  
HETATM   31  H   UNL     1      -9.340   1.839  66.065  1.00  0.00     0.000 HD 
HETATM   32  C   UNL     1      -9.294   2.718  69.876  1.00  0.00    -0.202 A  
HETATM   33  C   UNL     1      -9.765   4.553  67.833  1.00  0.00    -0.195 A  
ENDBRANCH   8  26
TORSDOF 4
ENDMDL
MODEL       32
REMARK 921   NORMALIZED FREE ENERGY PREDICTED BY IDOCK:   -6.37 KCAL/MOL
REMARK 922        TOTAL FREE ENERGY PREDICTED BY IDOCK:   -8.47 KCAL/MOL
REMARK 923 INTER-LIGAND FREE ENERGY PREDICTED BY IDOCK:   -7.70 KCAL/MOL
REMARK 924 INTRA-LIGAND FREE ENERGY PREDICTED BY IDOCK:   -0.76 KCAL/MOL
REMARK 927      BINDING AFFINITY PREDICTED BY RF-SCORE:    0.00 PKD
ROOT
HETATM    1  C   UNL     1     -12.030  11.915  68.520  1.00  0.00    -0.273 C  
HETATM    2  C   UNL     1     -10.482  11.964  68.485  1.00  0.00    -0.240 C  
HETATM    3  C   UNL     1      -9.961  10.695  69.200  1.00  0.00    -0.211 C  
HETATM    4  N   UNL     1     -10.325   9.490  68.441  1.00  0.00    -0.198 NA 
HETATM    5  C   UNL     1      -8.333  12.313  67.127  1.00  0.00    -0.183 C  
HETATM    6  C   UNL     1      -9.725   9.513  67.105  1.00  0.00    -0.171 C  
HETATM    7  C   UNL     1     -10.137  10.747  66.307  1.00  0.00    -0.285 C  
HETATM    8  C   UNL     1      -9.867  12.091  67.036  1.00  0.00    -0.205 C  
ENDROOT
BRANCH   4   9
HETATM    9  C   UNL     1      -9.996   8.269  69.187  1.00  0.00    -0.196 C  
HETATM   10  C   UNL     1      -9.502   7.104  68.306  1.00  0.00    -0.133 C  
HETATM   11  C   UNL     1      -9.136   5.922  69.192  1.00  0.00    -0.122 C  
HETATM   12  N   UNL     1     -10.174   5.309  69.870  1.00  0.00    -0.272 N  
HETATM   13  O   UNL     1      -7.977   5.541  69.292  1.00  0.00    -0.092 OA 
HETATM   14  C   UNL     1     -10.502   6.713  67.200  1.00  0.00    -0.358 C  
HETATM   15  H   UNL     1     -11.139   5.616  69.743  1.00  0.00     0.000 HD 
BRANCH  14  16
HETATM   16  C   UNL     1      -9.909   5.734  66.211  1.00  0.00    -0.136 A  
HETATM   17  C   UNL     1     -10.023   3.624  65.011  1.00  0.00    -0.110 A  
HETATM   18  C   UNL     1     -10.528   4.496  65.978  1.00  0.00    -0.236 A  
HETATM   19  C   UNL     1      -8.766   6.067  65.473  1.00  0.00    -0.120 A  
HETATM   20  C   UNL     1      -8.900   3.980  64.266  1.00  0.00    -0.130 A  
HETATM   21  C   UNL     1      -8.269   5.198  64.502  1.00  0.00    -0.133 A  
ENDBRANCH  14  16
BRANCH  12  22
HETATM   22  C   UNL     1      -9.845   4.205  70.778  1.00  0.00    -0.178 C  
HETATM   23  O   UNL     1     -10.946   5.653  72.354  1.00  0.00    -0.234 OA 
HETATM   24  O   UNL     1      -9.943   3.797  73.171  1.00  0.00    -0.123 OA 
HETATM   25  C   UNL     1     -10.226   4.511  72.220  1.00  0.00    -0.192 C  
ENDBRANCH  12  22
ENDBRANCH   4   9
BRANCH   8  26
HETATM   26  C   UNL     1     -10.410  13.288  66.215  1.00  0.00    -0.290 A  
HETATM   27  C   UNL     1     -11.721  14.194  64.372  1.00  0.00    -0.392 A  
HETATM   28  C   UNL     1     -10.064  14.616  66.542  1.00  0.00    -0.286 A  
HETATM   29  O   UNL     1     -12.512  14.017  63.274  1.00  0.00    -1.139 OA 
HETATM   30  C   UNL     1     -11.337  15.487  64.686  1.00  0.00    -0.363 A  
HETATM   31  H   UNL     1     -12.799  14.757  62.752  1.00  0.00     0.000 HD 
HETATM   32  C   UNL     1     -10.519  15.701  65.787  1.00  0.00    -0.383 A  
HETATM   33  C   UNL     1     -11.299  13.107  65.139  1.00  0.00    -0.322 A  
ENDBRANCH   8  26
TORSDOF 4
ENDMDL
MODEL       33
REMARK 921   NORMALIZED FREE ENERGY PREDICTED BY IDOCK:   -6.37 KCAL/MOL
REMARK 922        TOTAL FREE ENERGY PREDICTED BY IDOCK:   -8.46 KCAL/MOL
REMARK 923 INTER-LIGAND FREE ENERGY PREDICTED BY IDOCK:   -8.50 KCAL/MOL
REMARK 924 INTRA-LIGAND FREE ENERGY PREDICTED BY IDOCK:    0.04 KCAL/MOL
REMARK 927      BINDING AFFINITY PREDICTED BY RF-SCORE:    0.00 PKD
ROOT
HETATM    1  C   UNL     1     -11.906  12.315  67.892  1.00  0.00    -0.358 C  
HETATM    2  C   UNL     1     -10.371  12.117  67.955  1.00  0.00    -0.213 C  
HETATM    3  C   UNL     1     -10.104  10.602  68.122  1.00  0.00    -0.158 C  
HETATM    4  N   UNL     1     -10.537   9.868  66.925  1.00  0.00    -0.209 NA 
HETATM    5  C   UNL     1      -8.057  12.609  66.962  1.00  0.00    -0.088 C  
HETATM    6  C   UNL     1      -9.794  10.312  65.743  1.00  0.00    -0.257 C  
HETATM    7  C   UNL     1      -9.949  11.810  65.492  1.00  0.00    -0.273 C  
HETATM    8  C   UNL     1      -9.587  12.697  66.714  1.00  0.00    -0.241 C  
ENDROOT
BRANCH   4   9
HETATM    9  C   UNL     1     -10.457   8.416  67.130  1.00  0.00    -0.310 C  
HETATM   10  C   UNL     1     -10.359   7.991  68.608  1.00  0.00    -0.224 C  
HETATM   11  C   UNL     1     -10.344   6.472  68.696  1.00  0.00    -0.191 C  
HETATM   12  N   UNL     1      -9.237   5.831  68.171  1.00  0.00    -0.110 N  
HETATM   13  O   UNL     1     -11.271   5.858  69.208  1.00  0.00    -0.363 OA 
HETATM   14  C   UNL     1      -9.164   8.627  69.345  1.00  0.00    -0.150 C  
HETATM   15  H   UNL     1      -8.456   6.361  67.784  1.00  0.00     0.000 HD 
BRANCH  14  16
HETATM   16  C   UNL     1      -9.217   8.385  70.838  1.00  0.00    -0.192 A  
HETATM   17  C   UNL     1     -10.503   8.002  72.864  1.00  0.00    -0.402 A  
HETATM   18  C   UNL     1     -10.451   8.301  71.501  1.00  0.00    -0.289 A  
HETATM   19  C   UNL     1      -8.041   8.184  71.572  1.00  0.00    -0.141 A  
HETATM   20  C   UNL     1      -9.325   7.780  73.577  1.00  0.00    -0.351 A  
HETATM   21  C   UNL     1      -8.096   7.878  72.931  1.00  0.00    -0.189 A  
ENDBRANCH  14  16
BRANCH  12  22
HETATM   22  C   UNL     1      -9.221   4.363  68.187  1.00  0.00    -0.137 C  
HETATM   23  O   UNL     1      -7.582   4.762  69.905  1.00  0.00    -0.054 OA 
HETATM   24  O   UNL     1      -7.886   2.624  69.233  1.00  0.00    -0.043 OA 
HETATM   25  C   UNL     1      -8.169   3.809  69.138  1.00  0.00    -0.060 C  
ENDBRANCH  12  22
ENDBRANCH   4   9
BRANCH   8  26
HETATM   26  C   UNL     1      -9.873  14.191  66.420  1.00  0.00    -0.308 A  
HETATM   27  C   UNL     1     -10.846  15.949  65.041  1.00  0.00    -0.426 A  
HETATM   28  C   UNL     1      -9.387  15.209  67.267  1.00  0.00    -0.210 A  
HETATM   29  O   UNL     1     -11.533  16.348  63.932  1.00  0.00    -1.569 OA 
HETATM   30  C   UNL     1     -10.326  16.934  65.865  1.00  0.00    -0.327 A  
HETATM   31  H   UNL     1     -11.660  17.270  63.739  1.00  0.00     0.000 HD 
HETATM   32  C   UNL     1      -9.608  16.562  66.993  1.00  0.00    -0.249 A  
HETATM   33  C   UNL     1     -10.659  14.595  65.325  1.00  0.00    -0.409 A  
ENDBRANCH   8  26
TORSDOF 4
ENDMDL
MODEL       34
REMARK 921   NORMALIZED FREE ENERGY PREDICTED BY IDOCK:   -6.32 KCAL/MOL
REMARK 922        TOTAL FREE ENERGY PREDICTED BY IDOCK:   -8.41 KCAL/MOL
REMARK 923 INTER-LIGAND FREE ENERGY PREDICTED BY IDOCK:   -7.84 KCAL/MOL
REMARK 924 INTRA-LIGAND FREE ENERGY PREDICTED BY IDOCK:   -0.57 KCAL/MOL
REMARK 927      BINDING AFFINITY PREDICTED BY RF-SCORE:    0.00 PKD
ROOT
HETATM    1  C   UNL     1     -12.012  14.445  66.062  1.00  0.00    -0.377 C  
HETATM    2  C   UNL     1     -11.865  14.364  67.601  1.00  0.00    -0.412 C  
HETATM    3  C   UNL     1     -11.891  12.868  67.993  1.00  0.00    -0.343 C  
HETATM    4  N   UNL     1     -10.711  12.174  67.457  1.00  0.00    -0.226 NA 
HETATM    5  C   UNL     1     -10.620  15.094  69.723  1.00  0.00    -0.267 C  
HETATM    6  C   UNL     1      -9.478  12.745  68.003  1.00  0.00    -0.213 C  
HETATM    7  C   UNL     1      -9.353  14.239  67.713  1.00  0.00    -0.198 C  
HETATM    8  C   UNL     1     -10.577  15.077  68.171  1.00  0.00    -0.248 C  
ENDROOT
BRANCH   4   9
HETATM    9  C   UNL     1     -10.802  10.724  67.664  1.00  0.00    -0.279 C  
HETATM   10  C   UNL     1      -9.545   9.944  67.234  1.00  0.00    -0.195 C  
HETATM   11  C   UNL     1      -9.734   8.467  67.552  1.00  0.00    -0.162 C  
HETATM   12  N   UNL     1     -10.710   7.797  66.837  1.00  0.00    -0.474 N  
HETATM   13  O   UNL     1      -9.051   7.911  68.402  1.00  0.00    -0.136 OA 
HETATM   14  C   UNL     1      -9.163  10.174  65.758  1.00  0.00    -0.221 C  
HETATM   15  H   UNL     1     -11.242   8.268  66.105  1.00  0.00     0.000 HD 
BRANCH  14  16
HETATM   16  C   UNL     1      -7.809   9.589  65.419  1.00  0.00    -0.109 A  
HETATM   17  C   UNL     1      -6.381   8.321  63.917  1.00  0.00    -0.071 A  
HETATM   18  C   UNL     1      -7.645   8.798  64.272  1.00  0.00    -0.117 A  
HETATM   19  C   UNL     1      -6.689   9.873  66.211  1.00  0.00    -0.090 A  
HETATM   20  C   UNL     1      -5.270   8.632  64.701  1.00  0.00    -0.039 A  
HETATM   21  C   UNL     1      -5.427   9.402  65.850  1.00  0.00    -0.040 A  
ENDBRANCH  14  16
BRANCH  12  22
HETATM   22  C   UNL     1     -10.956   6.388  67.164  1.00  0.00    -0.399 C  
HETATM   23  O   UNL     1      -9.210   6.081  65.536  1.00  0.00    -0.043 OA 
HETATM   24  O   UNL     1     -10.250   4.228  66.308  1.00  0.00    -0.219 OA 
HETATM   25  C   UNL     1     -10.130   5.444  66.303  1.00  0.00    -0.174 C  
ENDBRANCH  12  22
ENDBRANCH   4   9
BRANCH   8  26
HETATM   26  C   UNL     1     -10.426  16.559  67.745  1.00  0.00    -0.308 A  
HETATM   27  C   UNL     1     -10.328  18.935  68.275  1.00  0.00    -0.335 A  
HETATM   28  C   UNL     1     -10.272  16.917  66.389  1.00  0.00    -0.326 A  
HETATM   29  O   UNL     1     -10.388  19.956  69.178  1.00  0.00    -0.631 OA 
HETATM   30  C   UNL     1     -10.218  19.267  66.935  1.00  0.00    -0.496 A  
HETATM   31  H   UNL     1     -10.342  20.862  68.897  1.00  0.00     0.000 HD 
HETATM   32  C   UNL     1     -10.172  18.252  65.988  1.00  0.00    -0.334 A  
HETATM   33  C   UNL     1     -10.396  17.603  68.687  1.00  0.00    -0.359 A  
ENDBRANCH   8  26
TORSDOF 4
ENDMDL
MODEL       35
REMARK 921   NORMALIZED FREE ENERGY PREDICTED BY IDOCK:   -6.29 KCAL/MOL
REMARK 922        TOTAL FREE ENERGY PREDICTED BY IDOCK:   -8.37 KCAL/MOL
REMARK 923 INTER-LIGAND FREE ENERGY PREDICTED BY IDOCK:   -8.19 KCAL/MOL
REMARK 924 INTRA-LIGAND FREE ENERGY PREDICTED BY IDOCK:   -0.18 KCAL/MOL
REMARK 927      BINDING AFFINITY PREDICTED BY RF-SCORE:    0.00 PKD
ROOT
HETATM    1  C   UNL     1     -10.436  10.561  66.380  1.00  0.00    -0.258 C  
HETATM    2  C   UNL     1      -9.508  10.374  67.605  1.00  0.00    -0.165 C  
HETATM    3  C   UNL     1      -9.839  11.497  68.615  1.00  0.00    -0.177 C  
HETATM    4  N   UNL     1     -11.203  11.335  69.139  1.00  0.00    -0.250 NA 
HETATM    5  C   UNL     1      -8.513   8.810  69.379  1.00  0.00    -0.125 C  
HETATM    6  C   UNL     1     -11.341  10.060  69.846  1.00  0.00    -0.250 C  
HETATM    7  C   UNL     1     -11.002   8.865  68.957  1.00  0.00     0.026 C  
HETATM    8  C   UNL     1      -9.606   8.953  68.285  1.00  0.00    -0.159 C  
ENDROOT
BRANCH   4   9
HETATM    9  C   UNL     1     -11.600  12.483  69.962  1.00  0.00    -0.130 C  
HETATM   10  C   UNL     1     -11.514  13.841  69.236  1.00  0.00    -0.344 C  
HETATM   11  C   UNL     1     -12.006  14.941  70.165  1.00  0.00    -0.317 C  
HETATM   12  N   UNL     1     -11.237  15.199  71.285  1.00  0.00    -0.518 N  
HETATM   13  O   UNL     1     -13.034  15.561  69.923  1.00  0.00    -0.082 OA 
HETATM   14  C   UNL     1     -10.110  14.140  68.675  1.00  0.00    -0.229 C  
HETATM   15  H   UNL     1     -10.363  14.699  71.450  1.00  0.00     0.000 HD 
BRANCH  14  16
HETATM   16  C   UNL     1     -10.100  15.357  67.775  1.00  0.00    -0.227 A  
HETATM   17  C   UNL     1     -10.720  16.437  65.689  1.00  0.00    -0.280 A  
HETATM   18  C   UNL     1     -10.660  15.295  66.491  1.00  0.00    -0.304 A  
HETATM   19  C   UNL     1      -9.585  16.578  68.230  1.00  0.00    -0.223 A  
HETATM   20  C   UNL     1     -10.226  17.652  66.163  1.00  0.00    -0.345 A  
HETATM   21  C   UNL     1      -9.653  17.719  67.430  1.00  0.00    -0.264 A  
ENDBRANCH  14  16
BRANCH  12  22
HETATM   22  C   UNL     1     -11.718  16.213  72.231  1.00  0.00    -0.465 C  
HETATM   23  O   UNL     1     -12.836  14.294  73.159  1.00  0.00    -0.460 OA 
HETATM   24  O   UNL     1     -13.346  16.317  74.031  1.00  0.00    -0.579 OA 
HETATM   25  C   UNL     1     -12.719  15.644  73.226  1.00  0.00    -0.510 C  
ENDBRANCH  12  22
ENDBRANCH   4   9
BRANCH   8  26
HETATM   26  C   UNL     1      -9.380   7.765  67.317  1.00  0.00    -0.175 A  
HETATM   27  C   UNL     1     -10.069   5.638  66.346  1.00  0.00    -0.156 A  
HETATM   28  C   UNL     1      -8.227   7.692  66.506  1.00  0.00    -0.125 A  
HETATM   29  O   UNL     1     -10.942   4.592  66.270  1.00  0.00    -0.502 OA 
HETATM   30  C   UNL     1      -8.912   5.567  65.588  1.00  0.00    -0.152 A  
HETATM   31  H   UNL     1     -10.767   3.848  65.707  1.00  0.00     0.000 HD 
HETATM   32  C   UNL     1      -7.995   6.607  65.655  1.00  0.00    -0.115 A  
HETATM   33  C   UNL     1     -10.326   6.733  67.174  1.00  0.00    -0.327 A  
ENDBRANCH   8  26
TORSDOF 4
ENDMDL
MODEL       36
REMARK 921   NORMALIZED FREE ENERGY PREDICTED BY IDOCK:   -6.26 KCAL/MOL
REMARK 922        TOTAL FREE ENERGY PREDICTED BY IDOCK:   -8.33 KCAL/MOL
REMARK 923 INTER-LIGAND FREE ENERGY PREDICTED BY IDOCK:   -7.18 KCAL/MOL
REMARK 924 INTRA-LIGAND FREE ENERGY PREDICTED BY IDOCK:   -1.15 KCAL/MOL
REMARK 927      BINDING AFFINITY PREDICTED BY RF-SCORE:    0.00 PKD
ROOT
HETATM    1  C   UNL     1      -9.007   8.217  70.843  1.00  0.00    -0.163 C  
HETATM    2  C   UNL     1     -10.552   8.219  70.747  1.00  0.00    -0.236 C  
HETATM    3  C   UNL     1     -10.947   9.198  69.617  1.00  0.00    -0.153 C  
HETATM    4  N   UNL     1     -10.481   8.698  68.315  1.00  0.00    -0.209 NA 
HETATM    5  C   UNL     1     -12.739   6.882  70.612  1.00  0.00    -0.010 C  
HETATM    6  C   UNL     1     -11.095   7.405  68.004  1.00  0.00     0.155 C  
HETATM    7  C   UNL     1     -10.807   6.355  69.073  1.00  0.00    -0.385 C  
HETATM    8  C   UNL     1     -11.192   6.794  70.512  1.00  0.00    -0.370 C  
ENDROOT
BRANCH   4   9
HETATM    9  C   UNL     1     -10.689   9.692  67.255  1.00  0.00    -0.214 C  
HETATM   10  C   UNL     1      -9.596   9.693  66.168  1.00  0.00    -0.295 C  
HETATM   11  C   UNL     1      -9.950  10.716  65.098  1.00  0.00    -0.303 C  
HETATM   12  N   UNL     1      -9.934  12.045  65.480  1.00  0.00    -0.240 N  
HETATM   13  O   UNL     1     -10.234  10.369  63.960  1.00  0.00    -0.269 OA 
HETATM   14  C   UNL     1      -8.178   9.910  66.732  1.00  0.00    -0.124 C  
HETATM   15  H   UNL     1      -9.656  12.318  66.423  1.00  0.00     0.000 HD 
BRANCH  14  16
HETATM   16  C   UNL     1      -7.105   9.680  65.690  1.00  0.00    -0.097 A  
HETATM   17  C   UNL     1      -6.153   8.322  63.914  1.00  0.00    -0.067 A  
HETATM   18  C   UNL     1      -7.097   8.502  64.928  1.00  0.00    -0.080 A  
HETATM   19  C   UNL     1      -6.139  10.660  65.430  1.00  0.00    -0.090 A  
HETATM   20  C   UNL     1      -5.212   9.317  63.650  1.00  0.00    -0.061 A  
HETATM   21  C   UNL     1      -5.203  10.481  64.412  1.00  0.00    -0.152 A  
ENDBRANCH  14  16
BRANCH  12  22
HETATM   22  C   UNL     1     -10.329  13.051  64.487  1.00  0.00    -0.364 C  
HETATM   23  O   UNL     1     -12.509  12.533  65.366  1.00  0.00    -0.630 OA 
HETATM   24  O   UNL     1     -12.410  13.899  63.566  1.00  0.00    -0.739 OA 
HETATM   25  C   UNL     1     -11.840  13.211  64.400  1.00  0.00    -0.388 C  
ENDBRANCH  12  22
ENDBRANCH   4   9
BRANCH   8  26
HETATM   26  C   UNL     1     -10.770   5.726  71.551  1.00  0.00    -0.319 A  
HETATM   27  C   UNL     1      -9.567   3.696  72.160  1.00  0.00    -0.146 A  
HETATM   28  C   UNL     1     -11.234   5.777  72.882  1.00  0.00    -0.319 A  
HETATM   29  O   UNL     1      -8.774   2.637  71.826  1.00  0.00    -0.070 OA 
HETATM   30  C   UNL     1     -10.066   3.744  73.451  1.00  0.00    -0.200 A  
HETATM   31  H   UNL     1      -8.562   1.964  72.462  1.00  0.00     0.000 HD 
HETATM   32  C   UNL     1     -10.890   4.799  73.820  1.00  0.00    -0.379 A  
HETATM   33  C   UNL     1      -9.879   4.686  71.226  1.00  0.00    -0.261 A  
ENDBRANCH   8  26
TORSDOF 4
ENDMDL
MODEL       37
REMARK 921   NORMALIZED FREE ENERGY PREDICTED BY IDOCK:   -6.20 KCAL/MOL
REMARK 922        TOTAL FREE ENERGY PREDICTED BY IDOCK:   -8.26 KCAL/MOL
REMARK 923 INTER-LIGAND FREE ENERGY PREDICTED BY IDOCK:   -8.23 KCAL/MOL
REMARK 924 INTRA-LIGAND FREE ENERGY PREDICTED BY IDOCK:   -0.02 KCAL/MOL
REMARK 927      BINDING AFFINITY PREDICTED BY RF-SCORE:    0.00 PKD
ROOT
HETATM    1  C   UNL     1     -10.473  12.288  64.921  1.00  0.00    -0.321 C  
HETATM    2  C   UNL     1     -11.025  12.324  66.368  1.00  0.00    -0.326 C  
HETATM    3  C   UNL     1     -10.796  10.926  66.988  1.00  0.00    -0.266 C  
HETATM    4  N   UNL     1      -9.358  10.655  67.132  1.00  0.00    -0.154 NA 
HETATM    5  C   UNL     1     -11.149  13.520  68.635  1.00  0.00    -0.299 C  
HETATM    6  C   UNL     1      -8.731  11.634  68.023  1.00  0.00    -0.157 C  
HETATM    7  C   UNL     1      -8.921  13.067  67.534  1.00  0.00    -0.193 C  
HETATM    8  C   UNL     1     -10.402  13.456  67.275  1.00  0.00    -0.244 C  
ENDROOT
BRANCH   4   9
HETATM    9  C   UNL     1      -9.114   9.270  67.553  1.00  0.00    -0.120 C  
HETATM   10  C   UNL     1     -10.093   8.755  68.627  1.00  0.00    -0.207 C  
HETATM   11  C   UNL     1      -9.781   7.297  68.936  1.00  0.00    -0.148 C  
HETATM   12  N   UNL     1      -8.568   7.038  69.547  1.00  0.00    -0.133 N  
HETATM   13  O   UNL     1     -10.571   6.407  68.651  1.00  0.00    -0.200 OA 
HETATM   14  C   UNL     1     -10.113   9.625  69.898  1.00  0.00    -0.279 C  
HETATM   15  H   UNL     1      -7.939   7.797  69.811  1.00  0.00     0.000 HD 
BRANCH  14  16
HETATM   16  C   UNL     1     -11.235   9.241  70.838  1.00  0.00    -0.372 A  
HETATM   17  C   UNL     1     -12.027   8.011  72.778  1.00  0.00    -0.246 A  
HETATM   18  C   UNL     1     -11.014   8.309  71.863  1.00  0.00    -0.354 A  
HETATM   19  C   UNL     1     -12.493   9.850  70.736  1.00  0.00    -0.344 A  
HETATM   20  C   UNL     1     -13.267   8.643  72.680  1.00  0.00    -0.271 A  
HETATM   21  C   UNL     1     -13.499   9.556  71.655  1.00  0.00    -0.463 A  
ENDBRANCH  14  16
BRANCH  12  22
HETATM   22  C   UNL     1      -8.212   5.637  69.802  1.00  0.00    -0.106 C  
HETATM   23  O   UNL     1      -6.036   6.455  69.180  1.00  0.00    -0.020 OA 
HETATM   24  O   UNL     1      -6.260   4.226  69.490  1.00  0.00    -0.026 OA 
HETATM   25  C   UNL     1      -6.756   5.343  69.473  1.00  0.00    -0.055 C  
ENDBRANCH  12  22
ENDBRANCH   4   9
BRANCH   8  26
HETATM   26  C   UNL     1     -10.506  14.882  66.679  1.00  0.00    -0.292 A  
HETATM   27  C   UNL     1     -11.097  16.403  64.869  1.00  0.00    -0.239 A  
HETATM   28  C   UNL     1     -10.065  16.011  67.402  1.00  0.00    -0.258 A  
HETATM   29  O   UNL     1     -11.568  16.626  63.608  1.00  0.00    -1.321 OA 
HETATM   30  C   UNL     1     -10.622  17.493  65.580  1.00  0.00    -0.144 A  
HETATM   31  H   UNL     1     -11.582  17.501  63.237  1.00  0.00     0.000 HD 
HETATM   32  C   UNL     1     -10.120  17.298  66.860  1.00  0.00    -0.304 A  
HETATM   33  C   UNL     1     -11.076  15.118  65.414  1.00  0.00    -0.371 A  
ENDBRANCH   8  26
TORSDOF 4
ENDMDL
MODEL       38
REMARK 921   NORMALIZED FREE ENERGY PREDICTED BY IDOCK:   -6.13 KCAL/MOL
REMARK 922        TOTAL FREE ENERGY PREDICTED BY IDOCK:   -8.17 KCAL/MOL
REMARK 923 INTER-LIGAND FREE ENERGY PREDICTED BY IDOCK:   -7.58 KCAL/MOL
REMARK 924 INTRA-LIGAND FREE ENERGY PREDICTED BY IDOCK:   -0.60 KCAL/MOL
REMARK 927      BINDING AFFINITY PREDICTED BY RF-SCORE:    0.00 PKD
ROOT
HETATM    1  C   UNL     1      -9.617   6.192  70.134  1.00  0.00    -0.187 C  
HETATM    2  C   UNL     1      -9.561   6.897  71.512  1.00  0.00    -0.162 C  
HETATM    3  C   UNL     1      -9.845   8.399  71.278  1.00  0.00    -0.198 C  
HETATM    4  N   UNL     1     -11.222   8.595  70.802  1.00  0.00    -0.257 NA 
HETATM    5  C   UNL     1     -10.278   6.949  73.975  1.00  0.00    -0.384 C  
HETATM    6  C   UNL     1     -12.189   8.120  71.794  1.00  0.00    -0.319 C  
HETATM    7  C   UNL     1     -11.986   6.647  72.140  1.00  0.00    -0.320 C  
HETATM    8  C   UNL     1     -10.543   6.296  72.592  1.00  0.00    -0.243 C  
ENDROOT
BRANCH   4   9
HETATM    9  C   UNL     1     -11.458   9.989  70.406  1.00  0.00    -0.314 C  
HETATM   10  C   UNL     1     -10.987  10.328  68.978  1.00  0.00    -0.274 C  
HETATM   11  C   UNL     1     -11.338  11.775  68.662  1.00  0.00    -0.270 C  
HETATM   12  N   UNL     1     -10.676  12.748  69.388  1.00  0.00    -0.431 N  
HETATM   13  O   UNL     1     -12.168  12.052  67.805  1.00  0.00    -0.474 OA 
HETATM   14  C   UNL     1      -9.493  10.029  68.743  1.00  0.00    -0.162 C  
HETATM   15  H   UNL     1      -9.960  12.499  70.070  1.00  0.00     0.000 HD 
BRANCH  14  16
HETATM   16  C   UNL     1      -9.107  10.149  67.285  1.00  0.00    -0.151 A  
HETATM   17  C   UNL     1      -7.467  10.705  65.581  1.00  0.00    -0.093 A  
HETATM   18  C   UNL     1      -7.854  10.664  66.923  1.00  0.00    -0.121 A  
HETATM   19  C   UNL     1      -9.970   9.698  66.278  1.00  0.00    -0.335 A  
HETATM   20  C   UNL     1      -8.325  10.230  64.591  1.00  0.00    -0.169 A  
HETATM   21  C   UNL     1      -9.578   9.733  64.940  1.00  0.00    -0.316 A  
ENDBRANCH  14  16
BRANCH  12  22
HETATM   22  C   UNL     1     -11.037  14.150  69.148  1.00  0.00    -0.262 C  
HETATM   23  O   UNL     1     -12.065  13.876  71.307  1.00  0.00    -0.319 OA 
HETATM   24  O   UNL     1     -12.452  15.815  70.209  1.00  0.00    -0.389 OA 
HETATM   25  C   UNL     1     -11.927  14.712  70.248  1.00  0.00    -0.308 C  
ENDBRANCH  12  22
ENDBRANCH   4   9
BRANCH   8  26
HETATM   26  C   UNL     1     -10.387   4.771  72.819  1.00  0.00    -0.244 A  
HETATM   27  C   UNL     1      -9.042   2.739  72.828  1.00  0.00    -0.086 A  
HETATM   28  C   UNL     1     -11.484   3.974  73.208  1.00  0.00    -0.180 A  
HETATM   29  O   UNL     1      -7.859   2.094  72.614  1.00  0.00    -0.050 OA 
HETATM   30  C   UNL     1     -10.141   1.969  73.172  1.00  0.00    -0.183 A  
HETATM   31  H   UNL     1      -7.790   1.152  72.711  1.00  0.00     0.000 HD 
HETATM   32  C   UNL     1     -11.365   2.592  73.380  1.00  0.00    -0.249 A  
HETATM   33  C   UNL     1      -9.145   4.124  72.686  1.00  0.00    -0.129 A  
ENDBRANCH   8  26
TORSDOF 4
ENDMDL
MODEL       39
REMARK 921   NORMALIZED FREE ENERGY PREDICTED BY IDOCK:   -6.12 KCAL/MOL
REMARK 922        TOTAL FREE ENERGY PREDICTED BY IDOCK:   -8.15 KCAL/MOL
REMARK 923 INTER-LIGAND FREE ENERGY PREDICTED BY IDOCK:   -7.26 KCAL/MOL
REMARK 924 INTRA-LIGAND FREE ENERGY PREDICTED BY IDOCK:   -0.89 KCAL/MOL
REMARK 927      BINDING AFFINITY PREDICTED BY RF-SCORE:    0.00 PKD
ROOT
HETATM    1  C   UNL     1      -9.005  10.794  64.996  1.00  0.00    -0.211 C  
HETATM    2  C   UNL     1      -9.938  10.734  66.231  1.00  0.00    -0.272 C  
HETATM    3  C   UNL     1      -9.249   9.842  67.291  1.00  0.00    -0.138 C  
HETATM    4  N   UNL     1      -8.013  10.476  67.773  1.00  0.00    -0.105 NA 
HETATM    5  C   UNL     1     -11.385  11.982  67.944  1.00  0.00    -0.369 C  
HETATM    6  C   UNL     1      -8.301  11.763  68.409  1.00  0.00    -0.153 C  
HETATM    7  C   UNL     1      -9.019  12.726  67.468  1.00  0.00    -0.192 C  
HETATM    8  C   UNL     1     -10.312  12.145  66.834  1.00  0.00    -0.235 C  
ENDROOT
BRANCH   4   9
HETATM    9  C   UNL     1      -7.254   9.571  68.646  1.00  0.00    -0.074 C  
HETATM   10  C   UNL     1      -8.129   8.603  69.466  1.00  0.00    -0.110 C  
HETATM   11  C   UNL     1      -7.234   7.681  70.281  1.00  0.00    -0.067 C  
HETATM   12  N   UNL     1      -6.488   8.268  71.287  1.00  0.00    -0.043 N  
HETATM   13  O   UNL     1      -7.183   6.480  70.048  1.00  0.00    -0.075 OA 
HETATM   14  C   UNL     1      -9.172   9.323  70.344  1.00  0.00    -0.291 C  
HETATM   15  H   UNL     1      -6.573   9.264  71.491  1.00  0.00     0.000 HD 
BRANCH  14  16
HETATM   16  C   UNL     1     -10.165   8.361  70.960  1.00  0.00    -0.245 A  
HETATM   17  C   UNL     1     -11.433   7.590  72.883  1.00  0.00    -0.311 A  
HETATM   18  C   UNL     1     -10.462   8.427  72.329  1.00  0.00    -0.407 A  
HETATM   19  C   UNL     1     -10.843   7.428  70.165  1.00  0.00    -0.270 A  
HETATM   20  C   UNL     1     -12.119   6.683  72.076  1.00  0.00    -0.353 A  
HETATM   21  C   UNL     1     -11.818   6.599  70.719  1.00  0.00    -0.441 A  
ENDBRANCH  14  16
BRANCH  12  22
HETATM   22  C   UNL     1      -5.569   7.415  72.049  1.00  0.00    -0.036 C  
HETATM   23  O   UNL     1      -7.195   7.830  73.775  1.00  0.00    -0.105 OA 
HETATM   24  O   UNL     1      -5.312   6.727  74.364  1.00  0.00    -0.049 OA 
HETATM   25  C   UNL     1      -5.982   7.285  73.509  1.00  0.00    -0.056 C  
ENDBRANCH  12  22
ENDBRANCH   4   9
BRANCH   8  26
HETATM   26  C   UNL     1     -10.922  13.135  65.810  1.00  0.00    -0.295 A  
HETATM   27  C   UNL     1     -11.075  15.352  64.812  1.00  0.00    -0.403 A  
HETATM   28  C   UNL     1     -11.942  12.731  64.922  1.00  0.00    -0.451 A  
HETATM   29  O   UNL     1     -10.694  16.661  64.757  1.00  0.00    -0.721 OA 
HETATM   30  C   UNL     1     -12.102  14.945  63.976  1.00  0.00    -0.153 A  
HETATM   31  H   UNL     1     -11.110  17.268  64.156  1.00  0.00     0.000 HD 
HETATM   32  C   UNL     1     -12.526  13.624  64.019  1.00  0.00    -0.285 A  
HETATM   33  C   UNL     1     -10.463  14.459  65.694  1.00  0.00    -0.347 A  
ENDBRANCH   8  26
TORSDOF 4
ENDMDL
MODEL       40
REMARK 921   NORMALIZED FREE ENERGY PREDICTED BY IDOCK:   -6.11 KCAL/MOL
REMARK 922        TOTAL FREE ENERGY PREDICTED BY IDOCK:   -8.14 KCAL/MOL
REMARK 923 INTER-LIGAND FREE ENERGY PREDICTED BY IDOCK:   -7.45 KCAL/MOL
REMARK 924 INTRA-LIGAND FREE ENERGY PREDICTED BY IDOCK:   -0.69 KCAL/MOL
REMARK 927      BINDING AFFINITY PREDICTED BY RF-SCORE:    0.00 PKD
ROOT
HETATM    1  C   UNL     1     -10.418  13.670  64.631  1.00  0.00    -0.442 C  
HETATM    2  C   UNL     1     -10.663  13.389  66.134  1.00  0.00    -0.288 C  
HETATM    3  C   UNL     1     -10.757  11.855  66.311  1.00  0.00    -0.271 C  
HETATM    4  N   UNL     1      -9.466  11.221  66.007  1.00  0.00    -0.208 NA 
HETATM    5  C   UNL     1     -10.009  13.823  68.577  1.00  0.00    -0.217 C  
HETATM    6  C   UNL     1      -8.423  11.701  66.917  1.00  0.00    -0.168 C  
HETATM    7  C   UNL     1      -8.258  13.217  66.861  1.00  0.00     0.031 C  
HETATM    8  C   UNL     1      -9.575  14.005  67.098  1.00  0.00    -0.245 C  
ENDROOT
BRANCH   4   9
HETATM    9  C   UNL     1      -9.578   9.757  65.998  1.00  0.00    -0.235 C  
HETATM   10  C   UNL     1     -10.249   9.167  67.253  1.00  0.00    -0.319 C  
HETATM   11  C   UNL     1     -10.363   7.657  67.101  1.00  0.00    -0.315 C  
HETATM   12  N   UNL     1      -9.179   6.943  67.083  1.00  0.00    -0.135 N  
HETATM   13  O   UNL     1     -11.454   7.112  67.000  1.00  0.00     0.038 OA 
HETATM   14  C   UNL     1      -9.543   9.566  68.564  1.00  0.00    -0.150 C  
HETATM   15  H   UNL     1      -8.281   7.411  67.209  1.00  0.00     0.000 HD 
BRANCH  14  16
HETATM   16  C   UNL     1     -10.341   9.173  69.788  1.00  0.00    -0.226 A  
HETATM   17  C   UNL     1     -12.148   9.610  71.352  1.00  0.00    -0.472 A  
HETATM   18  C   UNL     1     -11.360  10.008  70.269  1.00  0.00    -0.376 A  
HETATM   19  C   UNL     1     -10.115   7.946  70.425  1.00  0.00    -0.194 A  
HETATM   20  C   UNL     1     -11.928   8.375  71.961  1.00  0.00    -0.419 A  
HETATM   21  C   UNL     1     -10.908   7.548  71.501  1.00  0.00    -0.253 A  
ENDBRANCH  14  16
BRANCH  12  22
HETATM   22  C   UNL     1      -9.254   5.492  66.877  1.00  0.00    -0.119 C  
HETATM   23  O   UNL     1      -8.252   6.104  64.776  1.00  0.00    -0.137 OA 
HETATM   24  O   UNL     1      -8.882   3.949  65.039  1.00  0.00    -0.119 OA 
HETATM   25  C   UNL     1      -8.798   5.083  65.484  1.00  0.00    -0.146 C  
ENDBRANCH  12  22
ENDBRANCH   4   9
BRANCH   8  26
HETATM   26  C   UNL     1      -9.351  15.528  66.917  1.00  0.00    -0.252 A  
HETATM   27  C   UNL     1     -10.088  17.838  67.154  1.00  0.00    -0.338 A  
HETATM   28  C   UNL     1      -8.183  16.027  66.304  1.00  0.00    -0.220 A  
HETATM   29  O   UNL     1     -11.025  18.756  67.530  1.00  0.00    -0.407 OA 
HETATM   30  C   UNL     1      -8.952  18.305  66.514  1.00  0.00    -0.285 A  
HETATM   31  H   UNL     1     -10.896  19.683  67.370  1.00  0.00     0.000 HD 
HETATM   32  C   UNL     1      -7.986  17.396  66.102  1.00  0.00    -0.275 A  
HETATM   33  C   UNL     1     -10.278  16.475  67.389  1.00  0.00    -0.287 A  
ENDBRANCH   8  26
TORSDOF 4
ENDMDL
MODEL       41
REMARK 921   NORMALIZED FREE ENERGY PREDICTED BY IDOCK:   -6.10 KCAL/MOL
REMARK 922        TOTAL FREE ENERGY PREDICTED BY IDOCK:   -8.13 KCAL/MOL
REMARK 923 INTER-LIGAND FREE ENERGY PREDICTED BY IDOCK:   -7.72 KCAL/MOL
REMARK 924 INTRA-LIGAND FREE ENERGY PREDICTED BY IDOCK:   -0.41 KCAL/MOL
REMARK 927      BINDING AFFINITY PREDICTED BY RF-SCORE:    0.00 PKD
ROOT
HETATM    1  C   UNL     1     -10.852   7.062  68.988  1.00  0.00    -0.212 C  
HETATM    2  C   UNL     1      -9.711   8.089  69.196  1.00  0.00    -0.163 C  
HETATM    3  C   UNL     1      -9.866   9.182  68.114  1.00  0.00    -0.164 C  
HETATM    4  N   UNL     1     -11.108   9.941  68.321  1.00  0.00    -0.199 NA 
HETATM    5  C   UNL     1      -8.385   9.593  70.797  1.00  0.00     0.062 C  
HETATM    6  C   UNL     1     -11.096  10.615  69.622  1.00  0.00    -0.284 C  
HETATM    7  C   UNL     1     -10.910   9.637  70.779  1.00  0.00    -0.400 C  
HETATM    8  C   UNL     1      -9.662   8.724  70.641  1.00  0.00    -0.239 C  
ENDROOT
BRANCH   4   9
HETATM    9  C   UNL     1     -11.364  10.864  67.209  1.00  0.00    -0.151 C  
HETATM   10  C   UNL     1     -10.244  11.897  66.975  1.00  0.00    -0.233 C  
HETATM   11  C   UNL     1     -10.591  12.753  65.765  1.00  0.00    -0.273 C  
HETATM   12  N   UNL     1     -11.688  13.586  65.889  1.00  0.00    -0.337 N  
HETATM   13  O   UNL     1      -9.927  12.697  64.739  1.00  0.00    -0.233 OA 
HETATM   14  C   UNL     1      -9.936  12.751  68.220  1.00  0.00    -0.230 C  
HETATM   15  H   UNL     1     -12.206  13.648  66.766  1.00  0.00     0.000 HD 
BRANCH  14  16
HETATM   16  C   UNL     1      -8.690  13.592  68.044  1.00  0.00    -0.181 A  
HETATM   17  C   UNL     1      -7.582  15.753  68.116  1.00  0.00    -0.128 A  
HETATM   18  C   UNL     1      -8.745  14.985  68.203  1.00  0.00    -0.165 A  
HETATM   19  C   UNL     1      -7.453  12.990  67.776  1.00  0.00    -0.146 A  
HETATM   20  C   UNL     1      -6.354  15.139  67.873  1.00  0.00    -0.176 A  
HETATM   21  C   UNL     1      -6.293  13.759  67.697  1.00  0.00    -0.141 A  
ENDBRANCH  14  16
BRANCH  12  22
HETATM   22  C   UNL     1     -12.084  14.379  64.719  1.00  0.00    -0.452 C  
HETATM   23  O   UNL     1     -10.447  15.884  65.639  1.00  0.00    -0.349 OA 
HETATM   24  O   UNL     1     -11.665  16.620  63.882  1.00  0.00    -1.153 OA 
HETATM   25  C   UNL     1     -11.405  15.741  64.689  1.00  0.00    -0.337 C  
ENDBRANCH  12  22
ENDBRANCH   4   9
BRANCH   8  26
HETATM   26  C   UNL     1      -9.602   7.688  71.792  1.00  0.00    -0.183 A  
HETATM   27  C   UNL     1      -8.716   5.646  72.784  1.00  0.00    -0.119 A  
HETATM   28  C   UNL     1     -10.421   7.815  72.933  1.00  0.00    -0.412 A  
HETATM   29  O   UNL     1      -7.912   4.546  72.724  1.00  0.00    -0.089 OA 
HETATM   30  C   UNL     1      -9.558   5.769  73.877  1.00  0.00    -0.148 A  
HETATM   31  H   UNL     1      -7.920   3.895  73.415  1.00  0.00     0.000 HD 
HETATM   32  C   UNL     1     -10.402   6.868  73.961  1.00  0.00    -0.355 A  
HETATM   33  C   UNL     1      -8.705   6.604  71.768  1.00  0.00    -0.129 A  
ENDBRANCH   8  26
TORSDOF 4
ENDMDL
MODEL       42
REMARK 921   NORMALIZED FREE ENERGY PREDICTED BY IDOCK:   -6.05 KCAL/MOL
REMARK 922        TOTAL FREE ENERGY PREDICTED BY IDOCK:   -8.07 KCAL/MOL
REMARK 923 INTER-LIGAND FREE ENERGY PREDICTED BY IDOCK:   -6.98 KCAL/MOL
REMARK 924 INTRA-LIGAND FREE ENERGY PREDICTED BY IDOCK:   -1.10 KCAL/MOL
REMARK 927      BINDING AFFINITY PREDICTED BY RF-SCORE:    0.00 PKD
ROOT
HETATM    1  C   UNL     1     -10.284  10.657  65.664  1.00  0.00    -0.319 C  
HETATM    2  C   UNL     1     -11.148  10.972  66.909  1.00  0.00    -0.280 C  
HETATM    3  C   UNL     1     -11.021   9.774  67.879  1.00  0.00    -0.188 C  
HETATM    4  N   UNL     1      -9.644   9.664  68.384  1.00  0.00    -0.143 NA 
HETATM    5  C   UNL     1     -11.816  12.635  68.747  1.00  0.00    -0.341 C  
HETATM    6  C   UNL     1      -9.264  10.868  69.127  1.00  0.00    -0.060 C  
HETATM    7  C   UNL     1      -9.385  12.133  68.282  1.00  0.00    -0.198 C  
HETATM    8  C   UNL     1     -10.781  12.328  67.631  1.00  0.00    -0.250 C  
ENDROOT
BRANCH   4   9
HETATM    9  C   UNL     1      -9.458   8.435  69.165  1.00  0.00    -0.155 C  
HETATM   10  C   UNL     1      -8.810   7.279  68.378  1.00  0.00    -0.128 C  
HETATM   11  C   UNL     1      -8.613   6.087  69.304  1.00  0.00    -0.118 C  
HETATM   12  N   UNL     1      -9.758   5.469  69.773  1.00  0.00    -0.164 N  
HETATM   13  O   UNL     1      -7.492   5.704  69.612  1.00  0.00    -0.071 OA 
HETATM   14  C   UNL     1      -9.589   6.901  67.103  1.00  0.00    -0.182 C  
HETATM   15  H   UNL     1     -10.683   5.779  69.474  1.00  0.00     0.000 HD 
BRANCH  14  16
HETATM   16  C   UNL     1      -8.823   5.930  66.230  1.00  0.00    -0.143 A  
HETATM   17  C   UNL     1      -6.799   5.325  65.031  1.00  0.00    -0.049 A  
HETATM   18  C   UNL     1      -7.536   6.250  65.773  1.00  0.00    -0.084 A  
HETATM   19  C   UNL     1      -9.362   4.677  65.911  1.00  0.00    -0.155 A  
HETATM   20  C   UNL     1      -7.337   4.071  64.742  1.00  0.00    -0.071 A  
HETATM   21  C   UNL     1      -8.621   3.752  65.177  1.00  0.00    -0.113 A  
ENDBRANCH  14  16
BRANCH  12  22
HETATM   22  C   UNL     1      -9.600   4.355  70.715  1.00  0.00    -0.188 C  
HETATM   23  O   UNL     1     -10.439   6.010  72.249  1.00  0.00    -0.195 OA 
HETATM   24  O   UNL     1      -9.739   4.044  73.120  1.00  0.00    -0.121 OA 
HETATM   25  C   UNL     1      -9.913   4.763  72.148  1.00  0.00    -0.179 C  
ENDBRANCH  12  22
ENDBRANCH   4   9
BRANCH   8  26
HETATM   26  C   UNL     1     -10.793  13.568  66.703  1.00  0.00    -0.283 A  
HETATM   27  C   UNL     1     -11.744  14.850  64.862  1.00  0.00    -0.371 A  
HETATM   28  C   UNL     1      -9.817  14.580  66.823  1.00  0.00    -0.271 A  
HETATM   29  O   UNL     1     -12.660  14.995  63.861  1.00  0.00    -0.958 OA 
HETATM   30  C   UNL     1     -10.754  15.813  64.972  1.00  0.00    -0.443 A  
HETATM   31  H   UNL     1     -12.627  15.738  63.270  1.00  0.00     0.000 HD 
HETATM   32  C   UNL     1      -9.796  15.686  65.969  1.00  0.00    -0.362 A  
HETATM   33  C   UNL     1     -11.793  13.759  65.732  1.00  0.00    -0.392 A  
ENDBRANCH   8  26
TORSDOF 4
ENDMDL
MODEL       43
REMARK 921   NORMALIZED FREE ENERGY PREDICTED BY IDOCK:   -6.01 KCAL/MOL
REMARK 922        TOTAL FREE ENERGY PREDICTED BY IDOCK:   -8.02 KCAL/MOL
REMARK 923 INTER-LIGAND FREE ENERGY PREDICTED BY IDOCK:   -7.46 KCAL/MOL
REMARK 924 INTRA-LIGAND FREE ENERGY PREDICTED BY IDOCK:   -0.55 KCAL/MOL
REMARK 927      BINDING AFFINITY PREDICTED BY RF-SCORE:    0.00 PKD
ROOT
HETATM    1  C   UNL     1      -9.735   5.967  70.187  1.00  0.00    -0.211 C  
HETATM    2  C   UNL     1      -9.588   6.721  71.531  1.00  0.00    -0.165 C  
HETATM    3  C   UNL     1      -9.911   8.210  71.267  1.00  0.00    -0.181 C  
HETATM    4  N   UNL     1     -11.322   8.372  70.889  1.00  0.00    -0.266 NA 
HETATM    5  C   UNL     1     -10.122   6.852  74.038  1.00  0.00    -0.383 C  
HETATM    6  C   UNL     1     -12.206   7.920  71.966  1.00  0.00    -0.317 C  
HETATM    7  C   UNL     1     -11.956   6.463  72.346  1.00  0.00    -0.213 C  
HETATM    8  C   UNL     1     -10.478   6.146  72.702  1.00  0.00    -0.233 C  
ENDROOT
BRANCH   4   9
HETATM    9  C   UNL     1     -11.608   9.748  70.464  1.00  0.00    -0.292 C  
HETATM   10  C   UNL     1     -11.079  10.098  69.059  1.00  0.00    -0.249 C  
HETATM   11  C   UNL     1     -11.487  11.521  68.707  1.00  0.00    -0.287 C  
HETATM   12  N   UNL     1     -10.916  12.534  69.456  1.00  0.00    -0.459 N  
HETATM   13  O   UNL     1     -12.282  11.747  67.804  1.00  0.00    -0.536 OA 
HETATM   14  C   UNL     1      -9.562   9.875  68.908  1.00  0.00    -0.172 C  
HETATM   15  H   UNL     1     -10.225  12.329  70.178  1.00  0.00     0.000 HD 
BRANCH  14  16
HETATM   16  C   UNL     1      -9.104  10.001  67.471  1.00  0.00    -0.144 A  
HETATM   17  C   UNL     1      -9.552   9.783  65.093  1.00  0.00    -0.356 A  
HETATM   18  C   UNL     1      -9.942   9.597  66.421  1.00  0.00    -0.323 A  
HETATM   19  C   UNL     1      -7.863  10.574  67.164  1.00  0.00    -0.112 A  
HETATM   20  C   UNL     1      -8.325  10.378  64.801  1.00  0.00    -0.157 A  
HETATM   21  C   UNL     1      -7.479  10.766  65.837  1.00  0.00    -0.099 A  
ENDBRANCH  14  16
BRANCH  12  22
HETATM   22  C   UNL     1     -11.335  13.913  69.180  1.00  0.00    -0.286 C  
HETATM   23  O   UNL     1     -12.481  13.599  71.273  1.00  0.00    -0.352 OA 
HETATM   24  O   UNL     1     -12.901  15.506  70.134  1.00  0.00    -0.299 OA 
HETATM   25  C   UNL     1     -12.321  14.434  70.216  1.00  0.00    -0.348 C  
ENDBRANCH  12  22
ENDBRANCH   4   9
BRANCH   8  26
HETATM   26  C   UNL     1     -10.283   4.632  72.968  1.00  0.00    -0.219 A  
HETATM   27  C   UNL     1     -11.175   2.404  73.388  1.00  0.00    -0.180 A  
HETATM   28  C   UNL     1      -8.994   4.069  73.069  1.00  0.00    -0.110 A  
HETATM   29  O   UNL     1     -12.231   1.563  73.586  1.00  0.00    -0.205 OA 
HETATM   30  C   UNL     1      -9.901   1.879  73.523  1.00  0.00    -0.127 A  
HETATM   31  H   UNL     1     -12.096   0.647  73.795  1.00  0.00     0.000 HD 
HETATM   32  C   UNL     1      -8.804   2.712  73.345  1.00  0.00    -0.078 A  
HETATM   33  C   UNL     1     -11.374   3.752  73.081  1.00  0.00    -0.104 A  
ENDBRANCH   8  26
TORSDOF 4
ENDMDL
MODEL       44
REMARK 921   NORMALIZED FREE ENERGY PREDICTED BY IDOCK:   -5.99 KCAL/MOL
REMARK 922        TOTAL FREE ENERGY PREDICTED BY IDOCK:   -7.99 KCAL/MOL
REMARK 923 INTER-LIGAND FREE ENERGY PREDICTED BY IDOCK:   -7.47 KCAL/MOL
REMARK 924 INTRA-LIGAND FREE ENERGY PREDICTED BY IDOCK:   -0.52 KCAL/MOL
REMARK 927      BINDING AFFINITY PREDICTED BY RF-SCORE:    0.00 PKD
ROOT
HETATM    1  C   UNL     1     -10.652   7.186  69.515  1.00  0.00    -0.247 C  
HETATM    2  C   UNL     1      -9.287   7.571  68.893  1.00  0.00    -0.142 C  
HETATM    3  C   UNL     1      -9.542   8.717  67.886  1.00  0.00    -0.145 C  
HETATM    4  N   UNL     1     -10.000   9.926  68.586  1.00  0.00    -0.159 NA 
HETATM    5  C   UNL     1      -6.814   8.165  69.235  1.00  0.00    -0.051 C  
HETATM    6  C   UNL     1      -8.985  10.396  69.532  1.00  0.00    -0.106 C  
HETATM    7  C   UNL     1      -8.618   9.332  70.563  1.00  0.00    -0.271 C  
HETATM    8  C   UNL     1      -8.182   7.976  69.945  1.00  0.00    -0.119 C  
ENDROOT
BRANCH   4   9
HETATM    9  C   UNL     1     -10.415  10.968  67.639  1.00  0.00    -0.204 C  
HETATM   10  C   UNL     1     -10.782  12.312  68.299  1.00  0.00    -0.244 C  
HETATM   11  C   UNL     1     -11.135  13.325  67.219  1.00  0.00    -0.279 C  
HETATM   12  N   UNL     1     -12.281  13.077  66.486  1.00  0.00    -0.325 N  
HETATM   13  O   UNL     1     -10.431  14.306  67.017  1.00  0.00    -0.268 OA 
HETATM   14  C   UNL     1     -11.893  12.184  69.359  1.00  0.00    -0.370 C  
HETATM   15  H   UNL     1     -12.876  12.275  66.695  1.00  0.00     0.000 HD 
BRANCH  14  16
HETATM   16  C   UNL     1     -12.077  13.460  70.153  1.00  0.00    -0.415 A  
HETATM   17  C   UNL     1     -11.289  15.663  70.808  1.00  0.00    -0.400 A  
HETATM   18  C   UNL     1     -11.087  14.454  70.138  1.00  0.00    -0.073 A  
HETATM   19  C   UNL     1     -13.258  13.692  70.869  1.00  0.00    -0.111 A  
HETATM   20  C   UNL     1     -12.480  15.892  71.496  1.00  0.00    -0.483 A  
HETATM   21  C   UNL     1     -13.460  14.903  71.530  1.00  0.00    -0.491 A  
ENDBRANCH  14  16
BRANCH  12  22
HETATM   22  C   UNL     1     -12.614  14.004  65.397  1.00  0.00    -0.505 C  
HETATM   23  O   UNL     1     -12.119  12.055  64.075  1.00  0.00    -0.408 OA 
HETATM   24  O   UNL     1     -12.496  13.992  62.971  1.00  0.00    -0.641 OA 
HETATM   25  C   UNL     1     -12.401  13.381  64.025  1.00  0.00    -0.337 C  
ENDBRANCH  12  22
ENDBRANCH   4   9
BRANCH   8  26
HETATM   26  C   UNL     1      -7.933   6.918  71.048  1.00  0.00    -0.102 A  
HETATM   27  C   UNL     1      -8.383   5.983  73.253  1.00  0.00    -0.115 A  
HETATM   28  C   UNL     1      -6.976   5.895  70.877  1.00  0.00    -0.067 A  
HETATM   29  O   UNL     1      -9.036   6.020  74.451  1.00  0.00    -0.125 OA 
HETATM   30  C   UNL     1      -7.411   5.011  73.080  1.00  0.00    -0.092 A  
HETATM   31  H   UNL     1      -8.839   5.392  75.136  1.00  0.00     0.000 HD 
HETATM   32  C   UNL     1      -6.716   4.956  71.879  1.00  0.00    -0.047 A  
HETATM   33  C   UNL     1      -8.672   6.905  72.245  1.00  0.00    -0.132 A  
ENDBRANCH   8  26
TORSDOF 4
ENDMDL
MODEL       45
REMARK 921   NORMALIZED FREE ENERGY PREDICTED BY IDOCK:   -5.98 KCAL/MOL
REMARK 922        TOTAL FREE ENERGY PREDICTED BY IDOCK:   -7.99 KCAL/MOL
REMARK 923 INTER-LIGAND FREE ENERGY PREDICTED BY IDOCK:   -7.63 KCAL/MOL
REMARK 924 INTRA-LIGAND FREE ENERGY PREDICTED BY IDOCK:   -0.35 KCAL/MOL
REMARK 927      BINDING AFFINITY PREDICTED BY RF-SCORE:    0.00 PKD
ROOT
HETATM    1  C   UNL     1     -11.576   6.581  69.525  1.00  0.00    -0.298 C  
HETATM    2  C   UNL     1     -10.150   7.181  69.458  1.00  0.00    -0.182 C  
HETATM    3  C   UNL     1     -10.136   8.218  68.310  1.00  0.00    -0.198 C  
HETATM    4  N   UNL     1     -11.015   9.352  68.629  1.00  0.00    -0.098 NA 
HETATM    5  C   UNL     1      -8.155   8.228  70.686  1.00  0.00    -0.110 C  
HETATM    6  C   UNL     1     -10.561  10.039  69.840  1.00  0.00    -0.282 C  
HETATM    7  C   UNL     1     -10.497   9.104  71.046  1.00  0.00    -0.368 C  
HETATM    8  C   UNL     1      -9.649   7.825  70.810  1.00  0.00    -0.167 C  
ENDROOT
BRANCH   4   9
HETATM    9  C   UNL     1     -11.153  10.260  67.483  1.00  0.00    -0.232 C  
HETATM   10  C   UNL     1      -9.993  10.182  66.472  1.00  0.00    -0.283 C  
HETATM   11  C   UNL     1     -10.277  11.118  65.306  1.00  0.00    -0.280 C  
HETATM   12  N   UNL     1     -10.286  12.473  65.584  1.00  0.00    -0.265 N  
HETATM   13  O   UNL     1     -10.487  10.682  64.182  1.00  0.00    -0.336 OA 
HETATM   14  C   UNL     1      -8.614  10.450  67.108  1.00  0.00    -0.130 C  
HETATM   15  H   UNL     1     -10.070  12.819  66.519  1.00  0.00     0.000 HD 
BRANCH  14  16
HETATM   16  C   UNL     1      -7.476  10.146  66.158  1.00  0.00    -0.115 A  
HETATM   17  C   UNL     1      -5.305  10.711  65.225  1.00  0.00    -0.145 A  
HETATM   18  C   UNL     1      -6.391  11.028  66.044  1.00  0.00    -0.060 A  
HETATM   19  C   UNL     1      -7.460   8.955  65.420  1.00  0.00    -0.086 A  
HETATM   20  C   UNL     1      -5.291   9.510  64.515  1.00  0.00    -0.059 A  
HETATM   21  C   UNL     1      -6.371   8.637  64.609  1.00  0.00    -0.066 A  
ENDBRANCH  14  16
BRANCH  12  22
HETATM   22  C   UNL     1     -10.616  13.396  64.492  1.00  0.00    -0.425 C  
HETATM   23  O   UNL     1     -12.846  12.969  65.292  1.00  0.00    -0.642 OA 
HETATM   24  O   UNL     1     -12.636  14.181  63.395  1.00  0.00    -0.818 OA 
HETATM   25  C   UNL     1     -12.119  13.560  64.311  1.00  0.00    -0.431 C  
ENDBRANCH  12  22
ENDBRANCH   4   9
BRANCH   8  26
HETATM   26  C   UNL     1      -9.722   6.877  72.033  1.00  0.00    -0.160 A  
HETATM   27  C   UNL     1      -9.790   4.643  73.004  1.00  0.00    -0.143 A  
HETATM   28  C   UNL     1      -9.819   7.384  73.346  1.00  0.00    -0.345 A  
HETATM   29  O   UNL     1      -9.815   3.286  72.866  1.00  0.00    -0.121 OA 
HETATM   30  C   UNL     1      -9.924   5.162  74.281  1.00  0.00    -0.231 A  
HETATM   31  H   UNL     1      -9.907   2.718  73.621  1.00  0.00     0.000 HD 
HETATM   32  C   UNL     1      -9.921   6.540  74.455  1.00  0.00    -0.374 A  
HETATM   33  C   UNL     1      -9.655   5.479  71.893  1.00  0.00    -0.185 A  
ENDBRANCH   8  26
TORSDOF 4
ENDMDL
MODEL       46
REMARK 921   NORMALIZED FREE ENERGY PREDICTED BY IDOCK:   -5.98 KCAL/MOL
REMARK 922        TOTAL FREE ENERGY PREDICTED BY IDOCK:   -7.98 KCAL/MOL
REMARK 923 INTER-LIGAND FREE ENERGY PREDICTED BY IDOCK:   -8.52 KCAL/MOL
REMARK 924 INTRA-LIGAND FREE ENERGY PREDICTED BY IDOCK:    0.54 KCAL/MOL
REMARK 927      BINDING AFFINITY PREDICTED BY RF-SCORE:    0.00 PKD
ROOT
HETATM    1  C   UNL     1     -10.701   7.226  68.716  1.00  0.00    -0.168 C  
HETATM    2  C   UNL     1      -9.925   8.134  69.702  1.00  0.00    -0.193 C  
HETATM    3  C   UNL     1     -10.109   9.596  69.231  1.00  0.00    -0.193 C  
HETATM    4  N   UNL     1     -11.515  10.005  69.356  1.00  0.00    -0.140 NA 
HETATM    5  C   UNL     1      -9.396   8.782  72.128  1.00  0.00    -0.277 C  
HETATM    6  C   UNL     1     -11.954   9.940  70.752  1.00  0.00    -0.323 C  
HETATM    7  C   UNL     1     -11.786   8.545  71.347  1.00  0.00    -0.345 C  
HETATM    8  C   UNL     1     -10.351   7.968  71.213  1.00  0.00    -0.230 C  
ENDROOT
BRANCH   4   9
HETATM    9  C   UNL     1     -11.744  11.324  68.752  1.00  0.00    -0.338 C  
HETATM   10  C   UNL     1     -11.468  11.381  67.237  1.00  0.00    -0.301 C  
HETATM   11  C   UNL     1     -11.798  12.773  66.717  1.00  0.00    -0.382 C  
HETATM   12  N   UNL     1     -10.998  13.809  67.163  1.00  0.00    -0.286 N  
HETATM   13  O   UNL     1     -12.728  12.955  65.942  1.00  0.00    -0.437 OA 
HETATM   14  C   UNL     1     -10.038  10.946  66.864  1.00  0.00    -0.253 C  
HETATM   15  H   UNL     1     -10.203  13.632  67.778  1.00  0.00     0.000 HD 
BRANCH  14  16
HETATM   16  C   UNL     1      -9.858  10.789  65.369  1.00  0.00    -0.317 A  
HETATM   17  C   UNL     1     -10.045  11.690  63.121  1.00  0.00    -0.409 A  
HETATM   18  C   UNL     1     -10.279  11.801  64.493  1.00  0.00    -0.327 A  
HETATM   19  C   UNL     1      -9.221   9.658  64.841  1.00  0.00    -0.306 A  
HETATM   20  C   UNL     1      -9.388  10.571  62.611  1.00  0.00    -0.337 A  
HETATM   21  C   UNL     1      -8.982   9.554  63.471  1.00  0.00    -0.205 A  
ENDBRANCH  14  16
BRANCH  12  22
HETATM   22  C   UNL     1     -11.328  15.170  66.727  1.00  0.00    -0.248 C  
HETATM   23  O   UNL     1      -9.308  14.863  65.455  1.00  0.00    -0.153 OA 
HETATM   24  O   UNL     1     -10.251  16.918  65.429  1.00  0.00    -0.605 OA 
HETATM   25  C   UNL     1     -10.257  15.760  65.820  1.00  0.00    -0.370 C  
ENDBRANCH  12  22
ENDBRANCH   4   9
BRANCH   8  26
HETATM   26  C   UNL     1     -10.286   6.512  71.738  1.00  0.00    -0.229 A  
HETATM   27  C   UNL     1      -9.107   4.402  72.045  1.00  0.00    -0.125 A  
HETATM   28  C   UNL     1     -11.389   5.920  72.389  1.00  0.00    -0.358 A  
HETATM   29  O   UNL     1      -8.007   3.615  71.859  1.00  0.00    -0.061 OA 
HETATM   30  C   UNL     1     -10.215   3.828  72.646  1.00  0.00    -0.238 A  
HETATM   31  H   UNL     1      -7.999   2.709  72.144  1.00  0.00     0.000 HD 
HETATM   32  C   UNL     1     -11.356   4.595  72.834  1.00  0.00    -0.212 A  
HETATM   33  C   UNL     1      -9.120   5.734  71.626  1.00  0.00    -0.152 A  
ENDBRANCH   8  26
TORSDOF 4
ENDMDL
MODEL       47
REMARK 921   NORMALIZED FREE ENERGY PREDICTED BY IDOCK:   -5.97 KCAL/MOL
REMARK 922        TOTAL FREE ENERGY PREDICTED BY IDOCK:   -7.97 KCAL/MOL
REMARK 923 INTER-LIGAND FREE ENERGY PREDICTED BY IDOCK:   -6.61 KCAL/MOL
REMARK 924 INTRA-LIGAND FREE ENERGY PREDICTED BY IDOCK:   -1.35 KCAL/MOL
REMARK 927      BINDING AFFINITY PREDICTED BY RF-SCORE:    0.00 PKD
ROOT
HETATM    1  C   UNL     1      -8.767  12.867  66.630  1.00  0.00    -0.046 C  
HETATM    2  C   UNL     1     -10.085  12.748  65.826  1.00  0.00    -0.296 C  
HETATM    3  C   UNL     1     -10.429  11.244  65.717  1.00  0.00    -0.254 C  
HETATM    4  N   UNL     1     -10.736  10.688  67.043  1.00  0.00    -0.266 NA 
HETATM    5  C   UNL     1     -12.503  13.523  65.460  1.00  0.00    -0.538 C  
HETATM    6  C   UNL     1     -11.897  11.357  67.633  1.00  0.00    -0.078 C  
HETATM    7  C   UNL     1     -11.693  12.864  67.760  1.00  0.00    -0.412 C  
HETATM    8  C   UNL     1     -11.294  13.563  66.432  1.00  0.00    -0.335 C  
ENDROOT
BRANCH   4   9
HETATM    9  C   UNL     1     -10.892   9.229  66.988  1.00  0.00    -0.007 C  
HETATM   10  C   UNL     1      -9.817   8.448  67.770  1.00  0.00    -0.218 C  
HETATM   11  C   UNL     1     -10.118   6.958  67.690  1.00  0.00    -0.161 C  
HETATM   12  N   UNL     1     -10.009   6.368  66.444  1.00  0.00    -0.372 N  
HETATM   13  O   UNL     1     -10.441   6.324  68.686  1.00  0.00    -0.183 OA 
HETATM   14  C   UNL     1      -8.380   8.775  67.318  1.00  0.00    -0.104 C  
HETATM   15  H   UNL     1      -9.700   6.905  65.633  1.00  0.00     0.000 HD 
BRANCH  14  16
HETATM   16  C   UNL     1      -7.340   8.180  68.242  1.00  0.00    -0.095 A  
HETATM   17  C   UNL     1      -5.358   6.816  68.579  1.00  0.00    -0.016 A  
HETATM   18  C   UNL     1      -6.363   7.306  67.742  1.00  0.00    -0.048 A  
HETATM   19  C   UNL     1      -7.301   8.535  69.597  1.00  0.00    -0.060 A  
HETATM   20  C   UNL     1      -5.315   7.198  69.920  1.00  0.00    -0.019 A  
HETATM   21  C   UNL     1      -6.291   8.052  70.428  1.00  0.00    -0.036 A  
ENDBRANCH  14  16
BRANCH  12  22
HETATM   22  C   UNL     1     -10.351   4.946  66.325  1.00  0.00    -0.298 C  
HETATM   23  O   UNL     1      -8.186   4.887  65.274  1.00  0.00    -0.114 OA 
HETATM   24  O   UNL     1      -9.423   2.994  65.217  1.00  0.00    -0.149 OA 
HETATM   25  C   UNL     1      -9.302   4.164  65.548  1.00  0.00    -0.162 C  
ENDBRANCH  12  22
ENDBRANCH   4   9
BRANCH   8  26
HETATM   26  C   UNL     1     -10.998  15.066  66.663  1.00  0.00    -0.325 A  
HETATM   27  C   UNL     1     -10.718  16.988  68.135  1.00  0.00    -0.374 A  
HETATM   28  C   UNL     1     -10.755  15.938  65.580  1.00  0.00    -0.386 A  
HETATM   29  O   UNL     1     -10.728  17.543  69.381  1.00  0.00    -0.383 OA 
HETATM   30  C   UNL     1     -10.522  17.833  67.055  1.00  0.00    -0.324 A  
HETATM   31  H   UNL     1     -10.591  18.475  69.503  1.00  0.00     0.000 HD 
HETATM   32  C   UNL     1     -10.523  17.303  65.772  1.00  0.00    -0.237 A  
HETATM   33  C   UNL     1     -10.918  15.618  67.955  1.00  0.00    -0.319 A  
ENDBRANCH   8  26
TORSDOF 4
ENDMDL
MODEL       48
REMARK 921   NORMALIZED FREE ENERGY PREDICTED BY IDOCK:   -5.96 KCAL/MOL
REMARK 922        TOTAL FREE ENERGY PREDICTED BY IDOCK:   -7.96 KCAL/MOL
REMARK 923 INTER-LIGAND FREE ENERGY PREDICTED BY IDOCK:   -7.05 KCAL/MOL
REMARK 924 INTRA-LIGAND FREE ENERGY PREDICTED BY IDOCK:   -0.91 KCAL/MOL
REMARK 927      BINDING AFFINITY PREDICTED BY RF-SCORE:    0.00 PKD
ROOT
HETATM    1  C   UNL     1      -7.948   7.486  69.417  1.00  0.00    -0.123 C  
HETATM    2  C   UNL     1      -8.788   7.533  70.717  1.00  0.00    -0.148 C  
HETATM    3  C   UNL     1      -9.295   8.984  70.892  1.00  0.00    -0.264 C  
HETATM    4  N   UNL     1     -10.232   9.335  69.816  1.00  0.00    -0.199 NA 
HETATM    5  C   UNL     1     -10.645   6.508  72.162  1.00  0.00    -0.240 C  
HETATM    6  C   UNL     1     -11.406   8.460  69.840  1.00  0.00     0.067 C  
HETATM    7  C   UNL     1     -11.031   6.985  69.713  1.00  0.00    -0.283 C  
HETATM    8  C   UNL     1      -9.987   6.506  70.756  1.00  0.00    -0.205 C  
ENDROOT
BRANCH   4   9
HETATM    9  C   UNL     1     -10.588  10.759  69.861  1.00  0.00    -0.076 C  
HETATM   10  C   UNL     1     -10.822  11.395  68.476  1.00  0.00    -0.251 C  
HETATM   11  C   UNL     1     -11.242  12.847  68.653  1.00  0.00    -0.281 C  
HETATM   12  N   UNL     1     -10.295  13.709  69.175  1.00  0.00    -0.432 N  
HETATM   13  O   UNL     1     -12.366  13.223  68.346  1.00  0.00    -0.158 OA 
HETATM   14  C   UNL     1      -9.614  11.252  67.530  1.00  0.00    -0.181 C  
HETATM   15  H   UNL     1      -9.351  13.386  69.389  1.00  0.00     0.000 HD 
BRANCH  14  16
HETATM   16  C   UNL     1      -9.942  11.674  66.114  1.00  0.00    -0.252 A  
HETATM   17  C   UNL     1     -10.645  11.107  63.859  1.00  0.00    -0.431 A  
HETATM   18  C   UNL     1     -10.269  10.714  65.145  1.00  0.00    -0.368 A  
HETATM   19  C   UNL     1      -9.980  13.030  65.762  1.00  0.00    -0.260 A  
HETATM   20  C   UNL     1     -10.703  12.460  63.529  1.00  0.00    -0.473 A  
HETATM   21  C   UNL     1     -10.364  13.419  64.480  1.00  0.00    -0.394 A  
ENDBRANCH  14  16
BRANCH  12  22
HETATM   22  C   UNL     1     -10.690  15.102  69.414  1.00  0.00    -0.265 C  
HETATM   23  O   UNL     1      -8.841  15.500  67.925  1.00  0.00    -0.169 OA 
HETATM   24  O   UNL     1      -9.799  17.302  68.899  1.00  0.00    -0.290 OA 
HETATM   25  C   UNL     1      -9.746  16.091  68.745  1.00  0.00    -0.226 C  
ENDBRANCH  12  22
ENDBRANCH   4   9
BRANCH   8  26
HETATM   26  C   UNL     1      -9.576   5.035  70.495  1.00  0.00    -0.252 A  
HETATM   27  C   UNL     1      -8.698   2.894  71.258  1.00  0.00    -0.067 A  
HETATM   28  C   UNL     1      -9.673   4.467  69.207  1.00  0.00    -0.252 A  
HETATM   29  O   UNL     1      -8.180   2.102  72.242  1.00  0.00    -0.053 OA 
HETATM   30  C   UNL     1      -8.765   2.368  69.979  1.00  0.00    -0.121 A  
HETATM   31  H   UNL     1      -7.888   1.218  72.057  1.00  0.00     0.000 HD 
HETATM   32  C   UNL     1      -9.271   3.153  68.951  1.00  0.00    -0.226 A  
HETATM   33  C   UNL     1      -9.128   4.194  71.530  1.00  0.00    -0.175 A  
ENDBRANCH   8  26
TORSDOF 4
ENDMDL
MODEL       49
REMARK 921   NORMALIZED FREE ENERGY PREDICTED BY IDOCK:   -5.91 KCAL/MOL
REMARK 922        TOTAL FREE ENERGY PREDICTED BY IDOCK:   -7.89 KCAL/MOL
REMARK 923 INTER-LIGAND FREE ENERGY PREDICTED BY IDOCK:   -7.07 KCAL/MOL
REMARK 924 INTRA-LIGAND FREE ENERGY PREDICTED BY IDOCK:   -0.82 KCAL/MOL
REMARK 927      BINDING AFFINITY PREDICTED BY RF-SCORE:    0.00 PKD
ROOT
HETATM    1  C   UNL     1     -10.168   5.943  68.984  1.00  0.00    -0.261 C  
HETATM    2  C   UNL     1      -9.334   7.118  69.552  1.00  0.00    -0.148 C  
HETATM    3  C   UNL     1      -9.309   8.232  68.479  1.00  0.00    -0.138 C  
HETATM    4  N   UNL     1     -10.657   8.781  68.275  1.00  0.00    -0.184 NA 
HETATM    5  C   UNL     1      -8.849   8.718  71.499  1.00  0.00    -0.295 C  
HETATM    6  C   UNL     1     -11.170   9.378  69.510  1.00  0.00    -0.033 C  
HETATM    7  C   UNL     1     -11.208   8.380  70.663  1.00  0.00    -0.275 C  
HETATM    8  C   UNL     1      -9.852   7.675  70.936  1.00  0.00    -0.179 C  
ENDROOT
BRANCH   4   9
HETATM    9  C   UNL     1     -10.689   9.712  67.140  1.00  0.00    -0.188 C  
HETATM   10  C   UNL     1      -9.466  10.647  67.056  1.00  0.00    -0.187 C  
HETATM   11  C   UNL     1      -9.582  11.518  65.814  1.00  0.00    -0.235 C  
HETATM   12  N   UNL     1     -10.612  12.441  65.796  1.00  0.00    -0.250 N  
HETATM   13  O   UNL     1      -8.797  11.399  64.882  1.00  0.00     0.006 OA 
HETATM   14  C   UNL     1      -9.251  11.483  68.333  1.00  0.00    -0.190 C  
HETATM   15  H   UNL     1     -11.232  12.552  66.599  1.00  0.00     0.000 HD 
BRANCH  14  16
HETATM   16  C   UNL     1      -7.928  12.216  68.322  1.00  0.00    -0.163 A  
HETATM   17  C   UNL     1      -5.524  12.215  67.966  1.00  0.00    -0.060 A  
HETATM   18  C   UNL     1      -6.736  11.526  68.051  1.00  0.00    -0.059 A  
HETATM   19  C   UNL     1      -7.876  13.601  68.526  1.00  0.00    -0.131 A  
HETATM   20  C   UNL     1      -5.491  13.597  68.146  1.00  0.00    -0.114 A  
HETATM   21  C   UNL     1      -6.666  14.287  68.432  1.00  0.00    -0.104 A  
ENDBRANCH  14  16
BRANCH  12  22
HETATM   22  C   UNL     1     -10.786  13.254  64.587  1.00  0.00    -0.382 C  
HETATM   23  O   UNL     1     -13.051  12.475  64.828  1.00  0.00    -0.853 OA 
HETATM   24  O   UNL     1     -12.545  13.637  62.956  1.00  0.00    -0.729 OA 
HETATM   25  C   UNL     1     -12.195  13.148  64.019  1.00  0.00    -0.414 C  
ENDBRANCH  12  22
ENDBRANCH   4   9
BRANCH   8  26
HETATM   26  C   UNL     1      -9.996   6.601  72.042  1.00  0.00    -0.176 A  
HETATM   27  C   UNL     1      -9.045   5.182  73.781  1.00  0.00    -0.122 A  
HETATM   28  C   UNL     1     -11.244   6.006  72.325  1.00  0.00    -0.341 A  
HETATM   29  O   UNL     1      -7.972   4.729  74.492  1.00  0.00    -0.094 OA 
HETATM   30  C   UNL     1     -10.272   4.584  74.015  1.00  0.00    -0.253 A  
HETATM   31  H   UNL     1      -8.068   4.036  75.135  1.00  0.00     0.000 HD 
HETATM   32  C   UNL     1     -11.381   5.010  73.296  1.00  0.00    -0.393 A  
HETATM   33  C   UNL     1      -8.905   6.201  72.836  1.00  0.00    -0.125 A  
ENDBRANCH   8  26
TORSDOF 4
ENDMDL
MODEL       50
REMARK 921   NORMALIZED FREE ENERGY PREDICTED BY IDOCK:   -5.85 KCAL/MOL
REMARK 922        TOTAL FREE ENERGY PREDICTED BY IDOCK:   -7.82 KCAL/MOL
REMARK 923 INTER-LIGAND FREE ENERGY PREDICTED BY IDOCK:   -6.84 KCAL/MOL
REMARK 924 INTRA-LIGAND FREE ENERGY PREDICTED BY IDOCK:   -0.98 KCAL/MOL
REMARK 927      BINDING AFFINITY PREDICTED BY RF-SCORE:    0.00 PKD
ROOT
HETATM    1  C   UNL     1      -8.473  12.607  68.128  1.00  0.00    -0.177 C  
HETATM    2  C   UNL     1      -9.593  12.666  67.060  1.00  0.00    -0.219 C  
HETATM    3  C   UNL     1      -9.542  11.344  66.259  1.00  0.00    -0.213 C  
HETATM    4  N   UNL     1      -9.893  10.206  67.121  1.00  0.00    -0.179 NA 
HETATM    5  C   UNL     1     -12.049  13.142  66.487  1.00  0.00    -0.423 C  
HETATM    6  C   UNL     1     -11.255  10.347  67.642  1.00  0.00    -0.213 C  
HETATM    7  C   UNL     1     -11.443  11.643  68.427  1.00  0.00    -0.360 C  
HETATM    8  C   UNL     1     -11.038  12.921  67.644  1.00  0.00    -0.297 C  
ENDROOT
BRANCH   4   9
HETATM    9  C   UNL     1      -9.681   8.927  66.431  1.00  0.00    -0.262 C  
HETATM   10  C   UNL     1      -9.931   7.686  67.311  1.00  0.00    -0.273 C  
HETATM   11  C   UNL     1      -9.741   6.429  66.475  1.00  0.00    -0.129 C  
HETATM   12  N   UNL     1      -8.459   6.171  66.023  1.00  0.00    -0.135 N  
HETATM   13  O   UNL     1     -10.683   5.691  66.220  1.00  0.00    -0.213 OA 
HETATM   14  C   UNL     1      -9.072   7.667  68.591  1.00  0.00    -0.135 C  
HETATM   15  H   UNL     1      -7.679   6.777  66.279  1.00  0.00     0.000 HD 
BRANCH  14  16
HETATM   16  C   UNL     1      -9.492   6.571  69.546  1.00  0.00    -0.150 A  
HETATM   17  C   UNL     1     -10.963   5.758  71.301  1.00  0.00    -0.299 A  
HETATM   18  C   UNL     1     -10.523   6.792  70.471  1.00  0.00    -0.238 A  
HETATM   19  C   UNL     1      -8.899   5.303  69.485  1.00  0.00    -0.121 A  
HETATM   20  C   UNL     1     -10.381   4.494  71.212  1.00  0.00    -0.102 A  
HETATM   21  C   UNL     1      -9.346   4.270  70.309  1.00  0.00    -0.225 A  
ENDBRANCH  14  16
BRANCH  12  22
HETATM   22  C   UNL     1      -8.256   4.999  65.164  1.00  0.00    -0.131 C  
HETATM   23  O   UNL     1      -6.983   4.273  67.074  1.00  0.00    -0.060 OA 
HETATM   24  O   UNL     1      -6.895   2.988  65.216  1.00  0.00    -0.046 OA 
HETATM   25  C   UNL     1      -7.309   3.984  65.789  1.00  0.00    -0.076 C  
ENDBRANCH  12  22
ENDBRANCH   4   9
BRANCH   8  26
HETATM   26  C   UNL     1     -11.152  14.180  68.540  1.00  0.00    -0.276 A  
HETATM   27  C   UNL     1     -10.648  16.516  69.015  1.00  0.00    -0.324 A  
HETATM   28  C   UNL     1     -11.860  14.148  69.759  1.00  0.00    -0.381 A  
HETATM   29  O   UNL     1     -10.032  17.690  68.693  1.00  0.00    -0.329 OA 
HETATM   30  C   UNL     1     -11.316  16.452  70.227  1.00  0.00    -0.207 A  
HETATM   31  H   UNL     1     -10.071  18.440  69.274  1.00  0.00     0.000 HD 
HETATM   32  C   UNL     1     -11.939  15.266  70.594  1.00  0.00    -0.386 A  
HETATM   33  C   UNL     1     -10.592  15.413  68.160  1.00  0.00    -0.263 A  
ENDBRANCH   8  26
TORSDOF 4
ENDMDL
MODEL       51
REMARK 921   NORMALIZED FREE ENERGY PREDICTED BY IDOCK:   -5.83 KCAL/MOL
REMARK 922        TOTAL FREE ENERGY PREDICTED BY IDOCK:   -7.79 KCAL/MOL
REMARK 923 INTER-LIGAND FREE ENERGY PREDICTED BY IDOCK:   -6.89 KCAL/MOL
REMARK 924 INTRA-LIGAND FREE ENERGY PREDICTED BY IDOCK:   -0.90 KCAL/MOL
REMARK 927      BINDING AFFINITY PREDICTED BY RF-SCORE:    0.00 PKD
ROOT
HETATM    1  C   UNL     1     -11.895  11.012  68.418  1.00  0.00    -0.254 C  
HETATM    2  C   UNL     1     -10.396  11.381  68.297  1.00  0.00    -0.209 C  
HETATM    3  C   UNL     1      -9.620  10.516  69.318  1.00  0.00    -0.181 C  
HETATM    4  N   UNL     1      -9.697   9.094  68.952  1.00  0.00    -0.159 NA 
HETATM    5  C   UNL     1      -8.354  11.780  66.794  1.00  0.00    -0.165 C  
HETATM    6  C   UNL     1      -9.094   8.861  67.638  1.00  0.00    -0.134 C  
HETATM    7  C   UNL     1      -9.755   9.693  66.542  1.00  0.00    -0.272 C  
HETATM    8  C   UNL     1      -9.800  11.215  66.844  1.00  0.00    -0.223 C  
ENDROOT
BRANCH   4   9
HETATM    9  C   UNL     1      -9.119   8.241  69.998  1.00  0.00    -0.150 C  
HETATM   10  C   UNL     1      -8.809   6.802  69.540  1.00  0.00    -0.139 C  
HETATM   11  C   UNL     1      -8.162   6.037  70.685  1.00  0.00    -0.120 C  
HETATM   12  N   UNL     1      -8.953   5.789  71.792  1.00  0.00    -0.139 N  
HETATM   13  O   UNL     1      -6.998   5.664  70.619  1.00  0.00    -0.053 OA 
HETATM   14  C   UNL     1     -10.040   6.067  68.973  1.00  0.00    -0.223 C  
HETATM   15  H   UNL     1      -9.933   6.074  71.813  1.00  0.00     0.000 HD 
BRANCH  14  16
HETATM   16  C   UNL     1      -9.672   4.752  68.322  1.00  0.00    -0.200 A  
HETATM   17  C   UNL     1      -9.376   2.344  68.462  1.00  0.00    -0.252 A  
HETATM   18  C   UNL     1      -9.641   3.570  69.077  1.00  0.00    -0.143 A  
HETATM   19  C   UNL     1      -9.410   4.683  66.947  1.00  0.00    -0.150 A  
HETATM   20  C   UNL     1      -9.142   2.287  67.088  1.00  0.00    -0.149 A  
HETATM   21  C   UNL     1      -9.154   3.457  66.334  1.00  0.00    -0.166 A  
ENDBRANCH  14  16
BRANCH  12  22
HETATM   22  C   UNL     1      -8.339   5.106  72.937  1.00  0.00    -0.109 C  
HETATM   23  O   UNL     1     -10.235   3.656  72.625  1.00  0.00    -0.161 OA 
HETATM   24  O   UNL     1      -8.940   3.299  74.444  1.00  0.00    -0.085 OA 
HETATM   25  C   UNL     1      -9.184   3.942  73.434  1.00  0.00    -0.104 C  
ENDBRANCH  12  22
ENDBRANCH   4   9
BRANCH   8  26
HETATM   26  C   UNL     1     -10.580  11.977  65.744  1.00  0.00    -0.301 A  
HETATM   27  C   UNL     1     -11.952  12.009  63.731  1.00  0.00    -0.490 A  
HETATM   28  C   UNL     1     -10.616  13.388  65.717  1.00  0.00    -0.286 A  
HETATM   29  O   UNL     1     -12.592  11.359  62.716  1.00  0.00    -0.952 OA 
HETATM   30  C   UNL     1     -11.942  13.394  63.701  1.00  0.00    -0.504 A  
HETATM   31  H   UNL     1     -13.026  11.840  62.022  1.00  0.00     0.000 HD 
HETATM   32  C   UNL     1     -11.285  14.087  64.709  1.00  0.00    -0.375 A  
HETATM   33  C   UNL     1     -11.314  11.302  64.752  1.00  0.00    -0.043 A  
ENDBRANCH   8  26
TORSDOF 4
ENDMDL
MODEL       52
REMARK 921   NORMALIZED FREE ENERGY PREDICTED BY IDOCK:   -5.76 KCAL/MOL
REMARK 922        TOTAL FREE ENERGY PREDICTED BY IDOCK:   -7.71 KCAL/MOL
REMARK 923 INTER-LIGAND FREE ENERGY PREDICTED BY IDOCK:   -6.35 KCAL/MOL
REMARK 924 INTRA-LIGAND FREE ENERGY PREDICTED BY IDOCK:   -1.36 KCAL/MOL
REMARK 927      BINDING AFFINITY PREDICTED BY RF-SCORE:    0.00 PKD
ROOT
HETATM    1  C   UNL     1      -8.577  12.381  68.437  1.00  0.00    -0.129 C  
HETATM    2  C   UNL     1      -9.554  12.415  67.235  1.00  0.00    -0.199 C  
HETATM    3  C   UNL     1      -9.203  11.221  66.317  1.00  0.00    -0.200 C  
HETATM    4  N   UNL     1      -9.477   9.948  67.000  1.00  0.00    -0.156 NA 
HETATM    5  C   UNL     1     -11.965  12.611  66.378  1.00  0.00    -0.425 C  
HETATM    6  C   UNL     1     -10.898   9.833  67.338  1.00  0.00    -0.197 C  
HETATM    7  C   UNL     1     -11.378  10.984  68.218  1.00  0.00    -0.366 C  
HETATM    8  C   UNL     1     -11.081  12.392  67.636  1.00  0.00    -0.306 C  
ENDROOT
BRANCH   4   9
HETATM    9  C   UNL     1      -8.989   8.805  66.218  1.00  0.00    -0.173 C  
HETATM   10  C   UNL     1      -9.079   7.453  66.952  1.00  0.00    -0.164 C  
HETATM   11  C   UNL     1      -8.604   6.343  66.025  1.00  0.00    -0.147 C  
HETATM   12  N   UNL     1      -7.266   6.357  65.674  1.00  0.00    -0.072 N  
HETATM   13  O   UNL     1      -9.377   5.487  65.615  1.00  0.00    -0.140 OA 
HETATM   14  C   UNL     1      -8.331   7.442  68.299  1.00  0.00    -0.125 C  
HETATM   15  H   UNL     1      -6.629   7.056  66.056  1.00  0.00     0.000 HD 
BRANCH  14  16
HETATM   16  C   UNL     1      -8.620   6.194  69.105  1.00  0.00    -0.119 A  
HETATM   17  C   UNL     1      -7.836   4.208  70.263  1.00  0.00    -0.051 A  
HETATM   18  C   UNL     1      -7.582   5.319  69.456  1.00  0.00    -0.069 A  
HETATM   19  C   UNL     1      -9.917   5.923  69.561  1.00  0.00    -0.238 A  
HETATM   20  C   UNL     1      -9.126   3.963  70.731  1.00  0.00    -0.175 A  
HETATM   21  C   UNL     1     -10.166   4.818  70.374  1.00  0.00    -0.261 A  
ENDBRANCH  14  16
BRANCH  12  22
HETATM   22  C   UNL     1      -6.792   5.335  64.733  1.00  0.00    -0.049 C  
HETATM   23  O   UNL     1      -5.615   4.593  66.697  1.00  0.00    -0.013 OA 
HETATM   24  O   UNL     1      -5.136   3.558  64.744  1.00  0.00    -0.008 OA 
HETATM   25  C   UNL     1      -5.761   4.408  65.361  1.00  0.00    -0.018 C  
ENDBRANCH  12  22
ENDBRANCH   4   9
BRANCH   8  26
HETATM   26  C   UNL     1     -11.496  13.504  68.632  1.00  0.00    -0.343 A  
HETATM   27  C   UNL     1     -12.361  14.222  70.794  1.00  0.00    -0.357 A  
HETATM   28  C   UNL     1     -11.418  14.868  68.279  1.00  0.00    -0.343 A  
HETATM   29  O   UNL     1     -12.864  13.935  72.029  1.00  0.00    -0.326 OA 
HETATM   30  C   UNL     1     -12.314  15.553  70.412  1.00  0.00    -0.451 A  
HETATM   31  H   UNL     1     -13.159  14.625  72.611  1.00  0.00     0.000 HD 
HETATM   32  C   UNL     1     -11.823  15.879  69.155  1.00  0.00    -0.340 A  
HETATM   33  C   UNL     1     -11.928  13.208  69.937  1.00  0.00    -0.387 A  
ENDBRANCH   8  26
TORSDOF 4
ENDMDL
MODEL       53
REMARK 921   NORMALIZED FREE ENERGY PREDICTED BY IDOCK:   -5.74 KCAL/MOL
REMARK 922        TOTAL FREE ENERGY PREDICTED BY IDOCK:   -7.69 KCAL/MOL
REMARK 923 INTER-LIGAND FREE ENERGY PREDICTED BY IDOCK:   -6.83 KCAL/MOL
REMARK 924 INTRA-LIGAND FREE ENERGY PREDICTED BY IDOCK:   -0.86 KCAL/MOL
REMARK 927      BINDING AFFINITY PREDICTED BY RF-SCORE:    0.00 PKD
ROOT
HETATM    1  C   UNL     1      -8.454   8.050  66.893  1.00  0.00    -0.124 C  
HETATM    2  C   UNL     1      -8.074   8.049  68.394  1.00  0.00    -0.122 C  
HETATM    3  C   UNL     1      -8.425   9.443  68.964  1.00  0.00    -0.129 C  
HETATM    4  N   UNL     1      -9.879   9.660  68.936  1.00  0.00    -0.169 NA 
HETATM    5  C   UNL     1      -8.173   6.881  70.677  1.00  0.00    -0.120 C  
HETATM    6  C   UNL     1     -10.570   8.668  69.761  1.00  0.00    -0.224 C  
HETATM    7  C   UNL     1     -10.271   7.238  69.318  1.00  0.00    -0.193 C  
HETATM    8  C   UNL     1      -8.757   6.903  69.239  1.00  0.00    -0.135 C  
ENDROOT
BRANCH   4   9
HETATM    9  C   UNL     1     -10.221  11.040  69.306  1.00  0.00    -0.127 C  
HETATM   10  C   UNL     1     -10.863  11.858  68.168  1.00  0.00    -0.259 C  
HETATM   11  C   UNL     1     -11.227  13.242  68.686  1.00  0.00    -0.274 C  
HETATM   12  N   UNL     1     -10.176  14.070  69.037  1.00  0.00    -0.407 N  
HETATM   13  O   UNL     1     -12.395  13.594  68.783  1.00  0.00    -0.261 OA 
HETATM   14  C   UNL     1      -9.989  11.925  66.900  1.00  0.00    -0.219 C  
HETATM   15  H   UNL     1      -9.208  13.773  68.912  1.00  0.00     0.000 HD 
BRANCH  14  16
HETATM   16  C   UNL     1     -10.727  12.530  65.726  1.00  0.00    -0.299 A  
HETATM   17  C   UNL     1     -12.149  12.270  63.773  1.00  0.00    -0.624 A  
HETATM   18  C   UNL     1     -11.404  11.708  64.813  1.00  0.00    -0.270 A  
HETATM   19  C   UNL     1     -10.794  13.920  65.564  1.00  0.00    -0.306 A  
HETATM   20  C   UNL     1     -12.228  13.656  63.638  1.00  0.00    -0.376 A  
HETATM   21  C   UNL     1     -11.545  14.478  64.530  1.00  0.00    -0.385 A  
ENDBRANCH  14  16
BRANCH  12  22
HETATM   22  C   UNL     1     -10.498  15.388  69.596  1.00  0.00    -0.280 C  
HETATM   23  O   UNL     1      -9.275  16.108  67.652  1.00  0.00    -0.203 OA 
HETATM   24  O   UNL     1      -9.885  17.694  69.144  1.00  0.00    -0.248 OA 
HETATM   25  C   UNL     1      -9.860  16.521  68.805  1.00  0.00    -0.254 C  
ENDBRANCH  12  22
ENDBRANCH   4   9
BRANCH   8  26
HETATM   26  C   UNL     1      -8.532   5.476  68.679  1.00  0.00    -0.104 A  
HETATM   27  C   UNL     1      -7.176   3.837  67.490  1.00  0.00    -0.063 A  
HETATM   28  C   UNL     1      -9.515   4.474  68.816  1.00  0.00    -0.221 A  
HETATM   29  O   UNL     1      -6.048   3.502  66.800  1.00  0.00    -0.023 OA 
HETATM   30  C   UNL     1      -8.171   2.879  67.602  1.00  0.00    -0.087 A  
HETATM   31  H   UNL     1      -5.944   2.637  66.421  1.00  0.00     0.000 HD 
HETATM   32  C   UNL     1      -9.339   3.193  68.283  1.00  0.00    -0.246 A  
HETATM   33  C   UNL     1      -7.330   5.108  68.047  1.00  0.00    -0.075 A  
ENDBRANCH   8  26
TORSDOF 4
ENDMDL
MODEL       54
REMARK 921   NORMALIZED FREE ENERGY PREDICTED BY IDOCK:   -5.69 KCAL/MOL
REMARK 922        TOTAL FREE ENERGY PREDICTED BY IDOCK:   -7.62 KCAL/MOL
REMARK 923 INTER-LIGAND FREE ENERGY PREDICTED BY IDOCK:   -6.43 KCAL/MOL
REMARK 924 INTRA-LIGAND FREE ENERGY PREDICTED BY IDOCK:   -1.19 KCAL/MOL
REMARK 927      BINDING AFFINITY PREDICTED BY RF-SCORE:    0.00 PKD
ROOT
HETATM    1  C   UNL     1      -8.310  11.320  68.046  1.00  0.00    -0.136 C  
HETATM    2  C   UNL     1      -8.681  10.859  66.614  1.00  0.00    -0.156 C  
HETATM    3  C   UNL     1      -8.338   9.355  66.506  1.00  0.00    -0.119 C  
HETATM    4  N   UNL     1      -9.198   8.565  67.399  1.00  0.00    -0.139 NA 
HETATM    5  C   UNL     1     -10.400  10.799  64.711  1.00  0.00    -0.380 C  
HETATM    6  C   UNL     1     -10.608   8.716  67.034  1.00  0.00    -0.223 C  
HETATM    7  C   UNL     1     -11.061  10.174  67.066  1.00  0.00    -0.061 C  
HETATM    8  C   UNL     1     -10.184  11.128  66.212  1.00  0.00    -0.286 C  
ENDROOT
BRANCH   4   9
HETATM    9  C   UNL     1      -8.774   7.160  67.445  1.00  0.00    -0.120 C  
HETATM   10  C   UNL     1      -9.334   6.370  68.645  1.00  0.00    -0.124 C  
HETATM   11  C   UNL     1      -8.878   4.921  68.552  1.00  0.00    -0.102 C  
HETATM   12  N   UNL     1      -7.523   4.685  68.698  1.00  0.00    -0.064 N  
HETATM   13  O   UNL     1      -9.680   4.017  68.355  1.00  0.00    -0.143 OA 
HETATM   14  C   UNL     1      -8.982   7.002  70.006  1.00  0.00    -0.142 C  
HETATM   15  H   UNL     1      -6.876   5.447  68.900  1.00  0.00     0.000 HD 
BRANCH  14  16
HETATM   16  C   UNL     1      -9.726   6.350  71.150  1.00  0.00    -0.191 A  
HETATM   17  C   UNL     1      -9.711   5.032  73.191  1.00  0.00    -0.167 A  
HETATM   18  C   UNL     1      -9.038   5.571  72.093  1.00  0.00    -0.152 A  
HETATM   19  C   UNL     1     -11.101   6.557  71.319  1.00  0.00    -0.321 A  
HETATM   20  C   UNL     1     -11.075   5.266  73.361  1.00  0.00    -0.362 A  
HETATM   21  C   UNL     1     -11.769   6.024  72.421  1.00  0.00    -0.322 A  
ENDBRANCH  14  16
BRANCH  12  22
HETATM   22  C   UNL     1      -7.046   3.305  68.553  1.00  0.00    -0.050 C  
HETATM   23  O   UNL     1      -6.174   4.207  66.499  1.00  0.00    -0.030 OA 
HETATM   24  O   UNL     1      -5.991   1.976  66.815  1.00  0.00    -0.018 OA 
HETATM   25  C   UNL     1      -6.363   3.069  67.213  1.00  0.00    -0.036 C  
ENDBRANCH  12  22
ENDBRANCH   4   9
BRANCH   8  26
HETATM   26  C   UNL     1     -10.636  12.600  66.383  1.00  0.00    -0.272 A  
HETATM   27  C   UNL     1     -10.884  14.871  65.535  1.00  0.00    -0.356 A  
HETATM   28  C   UNL     1     -11.209  13.053  67.590  1.00  0.00    -0.315 A  
HETATM   29  O   UNL     1     -10.705  15.801  64.552  1.00  0.00    -0.755 OA 
HETATM   30  C   UNL     1     -11.408  15.304  66.742  1.00  0.00    -0.183 A  
HETATM   31  H   UNL     1     -10.944  16.710  64.688  1.00  0.00     0.000 HD 
HETATM   32  C   UNL     1     -11.588  14.387  67.769  1.00  0.00    -0.384 A  
HETATM   33  C   UNL     1     -10.533  13.534  65.336  1.00  0.00    -0.322 A  
ENDBRANCH   8  26
TORSDOF 4
ENDMDL
MODEL       55
REMARK 921   NORMALIZED FREE ENERGY PREDICTED BY IDOCK:   -5.62 KCAL/MOL
REMARK 922        TOTAL FREE ENERGY PREDICTED BY IDOCK:   -7.54 KCAL/MOL
REMARK 923 INTER-LIGAND FREE ENERGY PREDICTED BY IDOCK:   -6.65 KCAL/MOL
REMARK 924 INTRA-LIGAND FREE ENERGY PREDICTED BY IDOCK:   -0.89 KCAL/MOL
REMARK 927      BINDING AFFINITY PREDICTED BY RF-SCORE:    0.00 PKD
ROOT
HETATM    1  C   UNL     1     -10.532  16.417  69.574  1.00  0.00    -0.301 C  
HETATM    2  C   UNL     1      -9.368  15.834  68.735  1.00  0.00    -0.218 C  
HETATM    3  C   UNL     1      -9.408  14.296  68.891  1.00  0.00    -0.053 C  
HETATM    4  N   UNL     1     -10.630  13.747  68.286  1.00  0.00    -0.248 NA 
HETATM    5  C   UNL     1      -8.095  15.767  66.508  1.00  0.00    -0.231 C  
HETATM    6  C   UNL     1     -10.679  14.040  66.852  1.00  0.00    -0.285 C  
HETATM    7  C   UNL     1     -10.609  15.537  66.564  1.00  0.00    -0.307 C  
HETATM    8  C   UNL     1      -9.391  16.250  67.212  1.00  0.00    -0.231 C  
ENDROOT
BRANCH   4   9
HETATM    9  C   UNL     1     -10.775  12.315  68.576  1.00  0.00    -0.237 C  
HETATM   10  C   UNL     1      -9.505  11.485  68.301  1.00  0.00    -0.189 C  
HETATM   11  C   UNL     1      -9.756  10.036  68.695  1.00  0.00    -0.159 C  
HETATM   12  N   UNL     1     -10.687   9.340  67.944  1.00  0.00    -0.420 N  
HETATM   13  O   UNL     1      -9.159   9.522  69.632  1.00  0.00    -0.167 OA 
HETATM   14  C   UNL     1      -8.998  11.612  66.851  1.00  0.00    -0.191 C  
HETATM   15  H   UNL     1     -11.146   9.774  67.142  1.00  0.00     0.000 HD 
BRANCH  14  16
HETATM   16  C   UNL     1      -7.636  10.980  66.663  1.00  0.00    -0.146 A  
HETATM   17  C   UNL     1      -5.302  10.780  67.308  1.00  0.00    -0.042 A  
HETATM   18  C   UNL     1      -6.541  11.413  67.426  1.00  0.00    -0.090 A  
HETATM   19  C   UNL     1      -7.458   9.918  65.767  1.00  0.00    -0.110 A  
HETATM   20  C   UNL     1      -5.145   9.708  66.431  1.00  0.00    -0.042 A  
HETATM   21  C   UNL     1      -6.222   9.283  65.657  1.00  0.00    -0.063 A  
ENDBRANCH  14  16
BRANCH  12  22
HETATM   22  C   UNL     1     -10.994   7.960  68.337  1.00  0.00     0.209 C  
HETATM   23  O   UNL     1      -9.749   7.496  66.330  1.00  0.00    -0.184 OA 
HETATM   24  O   UNL     1     -10.758   5.751  67.356  1.00  0.00    -0.255 OA 
HETATM   25  C   UNL     1     -10.513   6.947  67.308  1.00  0.00    -0.287 C  
ENDBRANCH  12  22
ENDBRANCH   4   9
BRANCH   8  26
HETATM   26  C   UNL     1      -9.449  17.779  66.968  1.00  0.00    -0.271 A  
HETATM   27  C   UNL     1      -8.451  19.999  67.081  1.00  0.00    -0.334 A  
HETATM   28  C   UNL     1     -10.597  18.390  66.421  1.00  0.00    -0.342 A  
HETATM   29  O   UNL     1      -7.422  20.825  67.428  1.00  0.00    -0.344 OA 
HETATM   30  C   UNL     1      -9.602  20.582  66.579  1.00  0.00    -0.338 A  
HETATM   31  H   UNL     1      -7.489  21.766  67.317  1.00  0.00     0.000 HD 
HETATM   32  C   UNL     1     -10.675  19.772  66.231  1.00  0.00    -0.499 A  
HETATM   33  C   UNL     1      -8.352  18.616  67.244  1.00  0.00    -0.270 A  
ENDBRANCH   8  26
TORSDOF 4
ENDMDL
MODEL       56
REMARK 921   NORMALIZED FREE ENERGY PREDICTED BY IDOCK:   -5.61 KCAL/MOL
REMARK 922        TOTAL FREE ENERGY PREDICTED BY IDOCK:   -7.53 KCAL/MOL
REMARK 923 INTER-LIGAND FREE ENERGY PREDICTED BY IDOCK:   -6.29 KCAL/MOL
REMARK 924 INTRA-LIGAND FREE ENERGY PREDICTED BY IDOCK:   -1.24 KCAL/MOL
REMARK 927      BINDING AFFINITY PREDICTED BY RF-SCORE:    0.00 PKD
ROOT
HETATM    1  C   UNL     1      -9.987   8.295  66.492  1.00  0.00    -0.320 C  
HETATM    2  C   UNL     1      -8.449   8.183  66.354  1.00  0.00    -0.133 C  
HETATM    3  C   UNL     1      -7.877   9.620  66.338  1.00  0.00    -0.101 C  
HETATM    4  N   UNL     1      -8.099  10.276  67.635  1.00  0.00    -0.106 NA 
HETATM    5  C   UNL     1      -6.253   7.112  67.138  1.00  0.00    -0.049 C  
HETATM    6  C   UNL     1      -7.421   9.550  68.710  1.00  0.00    -0.075 C  
HETATM    7  C   UNL     1      -7.876   8.096  68.804  1.00  0.00    -0.113 C  
HETATM    8  C   UNL     1      -7.756   7.309  67.472  1.00  0.00    -0.111 C  
ENDROOT
BRANCH   4   9
HETATM    9  C   UNL     1      -7.724  11.695  67.587  1.00  0.00    -0.133 C  
HETATM   10  C   UNL     1      -8.700  12.631  68.326  1.00  0.00    -0.169 C  
HETATM   11  C   UNL     1      -8.177  14.059  68.260  1.00  0.00    -0.153 C  
HETATM   12  N   UNL     1      -8.148  14.653  67.011  1.00  0.00    -0.346 N  
HETATM   13  O   UNL     1      -7.802  14.643  69.268  1.00  0.00    -0.138 OA 
HETATM   14  C   UNL     1     -10.151  12.521  67.818  1.00  0.00    -0.218 C  
HETATM   15  H   UNL     1      -8.501  14.164  66.188  1.00  0.00     0.000 HD 
BRANCH  14  16
HETATM   16  C   UNL     1     -11.126  13.270  68.701  1.00  0.00    -0.301 A  
HETATM   17  C   UNL     1     -12.271  13.523  70.828  1.00  0.00    -0.417 A  
HETATM   18  C   UNL     1     -11.431  12.793  69.984  1.00  0.00    -0.082 A  
HETATM   19  C   UNL     1     -11.695  14.477  68.275  1.00  0.00    -0.368 A  
HETATM   20  C   UNL     1     -12.811  14.735  70.401  1.00  0.00    -0.323 A  
HETATM   21  C   UNL     1     -12.527  15.207  69.122  1.00  0.00     0.025 A  
ENDBRANCH  14  16
BRANCH  12  22
HETATM   22  C   UNL     1      -7.592  16.007  66.906  1.00  0.00    -0.233 C  
HETATM   23  O   UNL     1      -9.683  16.385  65.775  1.00  0.00    -0.440 OA 
HETATM   24  O   UNL     1      -8.176  18.071  65.766  1.00  0.00    -0.519 OA 
HETATM   25  C   UNL     1      -8.483  16.934  66.091  1.00  0.00    -0.246 C  
ENDBRANCH  12  22
ENDBRANCH   4   9
BRANCH   8  26
HETATM   26  C   UNL     1      -8.338   5.880  67.616  1.00  0.00    -0.104 A  
HETATM   27  C   UNL     1      -9.214   3.822  66.650  1.00  0.00    -0.174 A  
HETATM   28  C   UNL     1      -8.565   5.308  68.886  1.00  0.00    -0.091 A  
HETATM   29  O   UNL     1      -9.577   3.076  65.566  1.00  0.00    -0.327 OA 
HETATM   30  C   UNL     1      -9.465   3.295  67.906  1.00  0.00    -0.219 A  
HETATM   31  H   UNL     1      -9.976   2.221  65.671  1.00  0.00     0.000 HD 
HETATM   32  C   UNL     1      -9.123   4.035  69.030  1.00  0.00    -0.193 A  
HETATM   33  C   UNL     1      -8.626   5.079  66.496  1.00  0.00    -0.110 A  
ENDBRANCH   8  26
TORSDOF 4
ENDMDL
MODEL       57
REMARK 921   NORMALIZED FREE ENERGY PREDICTED BY IDOCK:   -5.59 KCAL/MOL
REMARK 922        TOTAL FREE ENERGY PREDICTED BY IDOCK:   -7.50 KCAL/MOL
REMARK 923 INTER-LIGAND FREE ENERGY PREDICTED BY IDOCK:   -6.19 KCAL/MOL
REMARK 924 INTRA-LIGAND FREE ENERGY PREDICTED BY IDOCK:   -1.31 KCAL/MOL
REMARK 927      BINDING AFFINITY PREDICTED BY RF-SCORE:    0.00 PKD
ROOT
HETATM    1  C   UNL     1      -9.721  15.154  65.627  1.00  0.00    -0.351 C  
HETATM    2  C   UNL     1      -9.882  15.461  67.137  1.00  0.00    -0.221 C  
HETATM    3  C   UNL     1     -10.115  14.116  67.863  1.00  0.00    -0.235 C  
HETATM    4  N   UNL     1      -8.919  13.266  67.769  1.00  0.00    -0.185 NA 
HETATM    5  C   UNL     1      -9.011  16.660  69.232  1.00  0.00    -0.052 C  
HETATM    6  C   UNL     1      -7.770  13.911  68.408  1.00  0.00    -0.139 C  
HETATM    7  C   UNL     1      -7.460  15.276  67.799  1.00  0.00    -0.178 C  
HETATM    8  C   UNL     1      -8.670  16.247  67.775  1.00  0.00    -0.182 C  
ENDROOT
BRANCH   4   9
HETATM    9  C   UNL     1      -9.177  11.920  68.296  1.00  0.00    -0.187 C  
HETATM   10  C   UNL     1      -8.473  10.791  67.517  1.00  0.00    -0.119 C  
HETATM   11  C   UNL     1      -8.764   9.457  68.190  1.00  0.00    -0.124 C  
HETATM   12  N   UNL     1     -10.075   9.016  68.154  1.00  0.00    -0.183 N  
HETATM   13  O   UNL     1      -7.875   8.815  68.733  1.00  0.00    -0.098 OA 
HETATM   14  C   UNL     1      -8.830  10.774  66.018  1.00  0.00    -0.192 C  
HETATM   15  H   UNL     1     -10.795   9.546  67.663  1.00  0.00     0.000 HD 
BRANCH  14  16
HETATM   16  C   UNL     1      -7.961   9.815  65.233  1.00  0.00    -0.123 A  
HETATM   17  C   UNL     1      -5.787   8.824  64.792  1.00  0.00    -0.063 A  
HETATM   18  C   UNL     1      -6.578   9.762  65.461  1.00  0.00    -0.085 A  
HETATM   19  C   UNL     1      -8.529   8.928  64.310  1.00  0.00    -0.165 A  
HETATM   20  C   UNL     1      -6.369   7.930  63.894  1.00  0.00    -0.062 A  
HETATM   21  C   UNL     1      -7.739   7.988  63.650  1.00  0.00    -0.136 A  
ENDBRANCH  14  16
BRANCH  12  22
HETATM   22  C   UNL     1     -10.397   7.763  68.846  1.00  0.00    -0.213 C  
HETATM   23  O   UNL     1     -10.155   6.892  66.615  1.00  0.00    -0.191 OA 
HETATM   24  O   UNL     1     -10.908   5.476  68.209  1.00  0.00    -0.153 OA 
HETATM   25  C   UNL     1     -10.530   6.591  67.884  1.00  0.00    -0.222 C  
ENDBRANCH  12  22
ENDBRANCH   4   9
BRANCH   8  26
HETATM   26  C   UNL     1      -8.310  17.566  67.046  1.00  0.00    -0.239 A  
HETATM   27  C   UNL     1      -8.831  19.852  66.381  1.00  0.00    -0.358 A  
HETATM   28  C   UNL     1      -7.105  17.696  66.324  1.00  0.00    -0.337 A  
HETATM   29  O   UNL     1      -9.678  20.921  66.361  1.00  0.00    -0.552 OA 
HETATM   30  C   UNL     1      -7.661  19.944  65.646  1.00  0.00    -0.242 A  
HETATM   31  H   UNL     1      -9.466  21.706  65.871  1.00  0.00     0.000 HD 
HETATM   32  C   UNL     1      -6.785  18.867  65.632  1.00  0.00    -0.310 A  
HETATM   33  C   UNL     1      -9.144  18.697  67.103  1.00  0.00    -0.294 A  
ENDBRANCH   8  26
TORSDOF 4
ENDMDL
MODEL       58
REMARK 921   NORMALIZED FREE ENERGY PREDICTED BY IDOCK:   -5.48 KCAL/MOL
REMARK 922        TOTAL FREE ENERGY PREDICTED BY IDOCK:   -7.37 KCAL/MOL
REMARK 923 INTER-LIGAND FREE ENERGY PREDICTED BY IDOCK:   -7.12 KCAL/MOL
REMARK 924 INTRA-LIGAND FREE ENERGY PREDICTED BY IDOCK:   -0.25 KCAL/MOL
REMARK 927      BINDING AFFINITY PREDICTED BY RF-SCORE:    0.00 PKD
ROOT
HETATM    1  C   UNL     1     -10.448  17.260  69.604  1.00  0.00     0.047 C  
HETATM    2  C   UNL     1      -9.620  16.284  68.732  1.00  0.00    -0.242 C  
HETATM    3  C   UNL     1      -9.881  14.853  69.258  1.00  0.00    -0.159 C  
HETATM    4  N   UNL     1     -11.283  14.471  69.037  1.00  0.00    -0.254 NA 
HETATM    5  C   UNL     1      -8.913  15.499  66.393  1.00  0.00    -0.359 C  
HETATM    6  C   UNL     1     -11.605  14.473  67.608  1.00  0.00    -0.378 C  
HETATM    7  C   UNL     1     -11.351  15.832  66.960  1.00  0.00     0.016 C  
HETATM    8  C   UNL     1      -9.916  16.381  67.184  1.00  0.00    -0.260 C  
ENDROOT
BRANCH   4   9
HETATM    9  C   UNL     1     -11.597  13.191  69.685  1.00  0.00    -0.253 C  
HETATM   10  C   UNL     1     -10.905  11.972  69.043  1.00  0.00    -0.223 C  
HETATM   11  C   UNL     1     -11.256  10.719  69.833  1.00  0.00    -0.300 C  
HETATM   12  N   UNL     1     -12.578  10.313  69.799  1.00  0.00    -0.539 N  
HETATM   13  O   UNL     1     -10.403  10.110  70.464  1.00  0.00    -0.232 OA 
HETATM   14  C   UNL     1     -11.218  11.817  67.541  1.00  0.00    -0.354 C  
HETATM   15  H   UNL     1     -13.267  10.811  69.235  1.00  0.00     0.000 HD 
BRANCH  14  16
HETATM   16  C   UNL     1     -10.357  10.762  66.882  1.00  0.00    -0.290 A  
HETATM   17  C   UNL     1      -8.294  10.123  65.770  1.00  0.00    -0.147 A  
HETATM   18  C   UNL     1      -9.124  11.108  66.310  1.00  0.00    -0.207 A  
HETATM   19  C   UNL     1     -10.749   9.417  66.882  1.00  0.00    -0.174 A  
HETATM   20  C   UNL     1      -8.685   8.785  65.798  1.00  0.00    -0.209 A  
HETATM   21  C   UNL     1      -9.915   8.435  66.349  1.00  0.00    -0.291 A  
ENDBRANCH  14  16
BRANCH  12  22
HETATM   22  C   UNL     1     -12.958   9.143  70.599  1.00  0.00     0.320 C  
HETATM   23  O   UNL     1     -13.522  10.865  72.184  1.00  0.00    -0.372 OA 
HETATM   24  O   UNL     1     -13.647   8.721  72.890  1.00  0.00    -0.294 OA 
HETATM   25  C   UNL     1     -13.399   9.526  72.005  1.00  0.00    -0.452 C  
ENDBRANCH  12  22
ENDBRANCH   4   9
BRANCH   8  26
HETATM   26  C   UNL     1      -9.769  17.806  66.594  1.00  0.00    -0.314 A  
HETATM   27  C   UNL     1      -8.442  19.792  66.110  1.00  0.00    -0.341 A  
HETATM   28  C   UNL     1     -10.866  18.470  66.004  1.00  0.00    -0.077 A  
HETATM   29  O   UNL     1      -7.268  20.484  66.178  1.00  0.00    -0.413 OA 
HETATM   30  C   UNL     1      -9.541  20.440  65.571  1.00  0.00     0.247 A  
HETATM   31  H   UNL     1      -7.205  21.375  65.855  1.00  0.00     0.000 HD 
HETATM   32  C   UNL     1     -10.755  19.770  65.502  1.00  0.00    -0.329 A  
HETATM   33  C   UNL     1      -8.535  18.482  66.585  1.00  0.00    -0.288 A  
ENDBRANCH   8  26
TORSDOF 4
ENDMDL
MODEL       59
REMARK 921   NORMALIZED FREE ENERGY PREDICTED BY IDOCK:   -5.44 KCAL/MOL
REMARK 922        TOTAL FREE ENERGY PREDICTED BY IDOCK:   -7.31 KCAL/MOL
REMARK 923 INTER-LIGAND FREE ENERGY PREDICTED BY IDOCK:   -6.38 KCAL/MOL
REMARK 924 INTRA-LIGAND FREE ENERGY PREDICTED BY IDOCK:   -0.94 KCAL/MOL
REMARK 927      BINDING AFFINITY PREDICTED BY RF-SCORE:    0.00 PKD
ROOT
HETATM    1  C   UNL     1      -7.140   7.195  67.169  1.00  0.00    -0.087 C  
HETATM    2  C   UNL     1      -8.183   7.011  68.298  1.00  0.00    -0.124 C  
HETATM    3  C   UNL     1      -8.373   8.384  68.985  1.00  0.00    -0.119 C  
HETATM    4  N   UNL     1      -8.980   9.346  68.054  1.00  0.00    -0.128 NA 
HETATM    5  C   UNL     1     -10.467   6.109  69.043  1.00  0.00    -0.305 C  
HETATM    6  C   UNL     1     -10.303   8.890  67.623  1.00  0.00    -0.251 C  
HETATM    7  C   UNL     1     -10.253   7.517  66.957  1.00  0.00    -0.368 C  
HETATM    8  C   UNL     1      -9.567   6.422  67.817  1.00  0.00    -0.123 C  
ENDROOT
BRANCH   4   9
HETATM    9  C   UNL     1      -9.007  10.698  68.626  1.00  0.00    -0.170 C  
HETATM   10  C   UNL     1      -9.907  11.689  67.861  1.00  0.00    -0.189 C  
HETATM   11  C   UNL     1      -9.902  13.031  68.578  1.00  0.00    -0.151 C  
HETATM   12  N   UNL     1      -8.706  13.726  68.588  1.00  0.00    -0.336 N  
HETATM   13  O   UNL     1     -10.912  13.465  69.117  1.00  0.00    -0.237 OA 
HETATM   14  C   UNL     1      -9.533  11.825  66.372  1.00  0.00    -0.234 C  
HETATM   15  H   UNL     1      -7.886  13.367  68.100  1.00  0.00     0.000 HD 
BRANCH  14  16
HETATM   16  C   UNL     1     -10.561  12.617  65.593  1.00  0.00    -0.299 A  
HETATM   17  C   UNL     1     -11.240  14.672  64.490  1.00  0.00    -0.290 A  
HETATM   18  C   UNL     1     -10.327  13.963  65.274  1.00  0.00    -0.396 A  
HETATM   19  C   UNL     1     -11.734  12.006  65.132  1.00  0.00    -0.315 A  
HETATM   20  C   UNL     1     -12.392  14.045  64.016  1.00  0.00    -0.341 A  
HETATM   21  C   UNL     1     -12.640  12.715  64.343  1.00  0.00    -0.470 A  
ENDBRANCH  14  16
BRANCH  12  22
HETATM   22  C   UNL     1      -8.655  14.995  69.323  1.00  0.00    -0.167 C  
HETATM   23  O   UNL     1      -6.439  15.030  68.384  1.00  0.00    -0.093 OA 
HETATM   24  O   UNL     1      -6.962  16.646  69.877  1.00  0.00     0.015 OA 
HETATM   25  C   UNL     1      -7.282  15.649  69.248  1.00  0.00    -0.198 C  
ENDBRANCH  12  22
ENDBRANCH   4   9
BRANCH   8  26
HETATM   26  C   UNL     1      -9.456   5.089  67.035  1.00  0.00    -0.150 A  
HETATM   27  C   UNL     1      -9.195   2.667  66.965  1.00  0.00    -0.113 A  
HETATM   28  C   UNL     1      -9.484   5.066  65.624  1.00  0.00    -0.153 A  
HETATM   29  O   UNL     1      -9.017   1.471  67.597  1.00  0.00    -0.107 OA 
HETATM   30  C   UNL     1      -9.185   2.671  65.580  1.00  0.00    -0.087 A  
HETATM   31  H   UNL     1      -8.903   0.668  67.103  1.00  0.00     0.000 HD 
HETATM   32  C   UNL     1      -9.348   3.874  64.906  1.00  0.00    -0.158 A  
HETATM   33  C   UNL     1      -9.363   3.848  67.691  1.00  0.00    -0.232 A  
ENDBRANCH   8  26
TORSDOF 4
ENDMDL
MODEL       60
REMARK 921   NORMALIZED FREE ENERGY PREDICTED BY IDOCK:   -5.43 KCAL/MOL
REMARK 922        TOTAL FREE ENERGY PREDICTED BY IDOCK:   -7.31 KCAL/MOL
REMARK 923 INTER-LIGAND FREE ENERGY PREDICTED BY IDOCK:   -5.98 KCAL/MOL
REMARK 924 INTRA-LIGAND FREE ENERGY PREDICTED BY IDOCK:   -1.33 KCAL/MOL
REMARK 927      BINDING AFFINITY PREDICTED BY RF-SCORE:    0.00 PKD
ROOT
HETATM    1  C   UNL     1      -6.999   9.928  67.815  1.00  0.00    -0.085 C  
HETATM    2  C   UNL     1      -8.123   8.912  68.136  1.00  0.00    -0.106 C  
HETATM    3  C   UNL     1      -9.299   9.701  68.758  1.00  0.00    -0.148 C  
HETATM    4  N   UNL     1      -9.882  10.621  67.771  1.00  0.00    -0.164 NA 
HETATM    5  C   UNL     1      -9.595   6.958  67.360  1.00  0.00    -0.163 C  
HETATM    6  C   UNL     1     -10.413   9.885  66.622  1.00  0.00    -0.169 C  
HETATM    7  C   UNL     1      -9.348   9.031  65.939  1.00  0.00    -0.306 C  
HETATM    8  C   UNL     1      -8.605   8.061  66.896  1.00  0.00    -0.130 C  
ENDROOT
BRANCH   4   9
HETATM    9  C   UNL     1     -10.880  11.504  68.387  1.00  0.00    -0.211 C  
HETATM   10  C   UNL     1     -10.652  13.004  68.113  1.00  0.00    -0.257 C  
HETATM   11  C   UNL     1     -11.777  13.809  68.747  1.00  0.00    -0.356 C  
HETATM   12  N   UNL     1     -11.841  13.806  70.129  1.00  0.00    -0.397 N  
HETATM   13  O   UNL     1     -12.581  14.424  68.059  1.00  0.00     0.086 OA 
HETATM   14  C   UNL     1      -9.262  13.498  68.561  1.00  0.00    -0.101 C  
HETATM   15  H   UNL     1     -11.139  13.320  70.687  1.00  0.00     0.000 HD 
BRANCH  14  16
HETATM   16  C   UNL     1      -8.972  14.903  68.079  1.00  0.00    -0.172 A  
HETATM   17  C   UNL     1      -8.602  16.470  66.260  1.00  0.00    -0.367 A  
HETATM   18  C   UNL     1      -8.795  15.163  66.712  1.00  0.00    -0.302 A  
HETATM   19  C   UNL     1      -8.930  15.974  68.982  1.00  0.00    -0.244 A  
HETATM   20  C   UNL     1      -8.588  17.530  67.167  1.00  0.00    -0.238 A  
HETATM   21  C   UNL     1      -8.746  17.279  68.527  1.00  0.00    -0.273 A  
ENDBRANCH  14  16
BRANCH  12  22
HETATM   22  C   UNL     1     -12.951  14.524  70.767  1.00  0.00    -0.343 C  
HETATM   23  O   UNL     1     -11.165  15.273  72.197  1.00  0.00    -0.420 OA 
HETATM   24  O   UNL     1     -13.275  15.840  72.782  1.00  0.00    -0.448 OA 
HETATM   25  C   UNL     1     -12.510  15.271  72.018  1.00  0.00    -0.354 C  
ENDBRANCH  12  22
ENDBRANCH   4   9
BRANCH   8  26
HETATM   26  C   UNL     1      -7.469   7.312  66.156  1.00  0.00    -0.083 A  
HETATM   27  C   UNL     1      -6.247   6.755  64.122  1.00  0.00    -0.035 A  
HETATM   28  C   UNL     1      -6.596   6.444  66.845  1.00  0.00    -0.055 A  
HETATM   29  O   UNL     1      -6.071   6.860  62.774  1.00  0.00    -0.038 OA 
HETATM   30  C   UNL     1      -5.426   5.878  64.812  1.00  0.00    -0.017 A  
HETATM   31  H   UNL     1      -5.400   6.358  62.326  1.00  0.00     0.000 HD 
HETATM   32  C   UNL     1      -5.590   5.734  66.183  1.00  0.00    -0.013 A  
HETATM   33  C   UNL     1      -7.233   7.493  64.781  1.00  0.00    -0.068 A  
ENDBRANCH   8  26
TORSDOF 4
ENDMDL
MODEL       61
REMARK 921   NORMALIZED FREE ENERGY PREDICTED BY IDOCK:   -5.40 KCAL/MOL
REMARK 922        TOTAL FREE ENERGY PREDICTED BY IDOCK:   -7.27 KCAL/MOL
REMARK 923 INTER-LIGAND FREE ENERGY PREDICTED BY IDOCK:   -6.92 KCAL/MOL
REMARK 924 INTRA-LIGAND FREE ENERGY PREDICTED BY IDOCK:   -0.35 KCAL/MOL
REMARK 927      BINDING AFFINITY PREDICTED BY RF-SCORE:    0.00 PKD
ROOT
HETATM    1  C   UNL     1     -10.130   8.406  66.763  1.00  0.00    -0.373 C  
HETATM    2  C   UNL     1      -9.320   9.002  65.586  1.00  0.00    -0.289 C  
HETATM    3  C   UNL     1      -9.463  10.541  65.655  1.00  0.00    -0.210 C  
HETATM    4  N   UNL     1      -8.819  11.064  66.868  1.00  0.00    -0.146 NA 
HETATM    5  C   UNL     1      -7.130   9.074  64.250  1.00  0.00    -0.090 C  
HETATM    6  C   UNL     1      -7.387  10.760  66.871  1.00  0.00    -0.119 C  
HETATM    7  C   UNL     1      -7.113   9.262  66.769  1.00  0.00    -0.082 C  
HETATM    8  C   UNL     1      -7.800   8.575  65.559  1.00  0.00    -0.104 C  
ENDROOT
BRANCH   4   9
HETATM    9  C   UNL     1      -9.094  12.496  67.044  1.00  0.00    -0.213 C  
HETATM   10  C   UNL     1      -9.910  12.832  68.308  1.00  0.00    -0.224 C  
HETATM   11  C   UNL     1     -10.077  14.341  68.413  1.00  0.00    -0.243 C  
HETATM   12  N   UNL     1     -10.848  14.950  67.440  1.00  0.00    -0.296 N  
HETATM   13  O   UNL     1      -9.551  14.974  69.319  1.00  0.00    -0.215 OA 
HETATM   14  C   UNL     1     -11.261  12.093  68.372  1.00  0.00    -0.314 C  
HETATM   15  H   UNL     1     -11.311  14.401  66.715  1.00  0.00     0.000 HD 
BRANCH  14  16
HETATM   16  C   UNL     1     -11.939  12.255  69.716  1.00  0.00    -0.365 A  
HETATM   17  C   UNL     1     -13.138  13.636  71.315  1.00  0.00    -0.357 A  
HETATM   18  C   UNL     1     -12.446  13.502  70.109  1.00  0.00    -0.276 A  
HETATM   19  C   UNL     1     -12.121  11.153  70.562  1.00  0.00    -0.474 A  
HETATM   20  C   UNL     1     -13.334  12.526  72.136  1.00  0.00    -0.540 A  
HETATM   21  C   UNL     1     -12.820  11.288  71.761  1.00  0.00    -0.466 A  
ENDBRANCH  14  16
BRANCH  12  22
HETATM   22  C   UNL     1     -10.978  16.411  67.480  1.00  0.00    -0.184 C  
HETATM   23  O   UNL     1      -8.828  16.269  66.406  1.00  0.00    -0.252 OA 
HETATM   24  O   UNL     1      -9.556  18.324  67.008  1.00  0.00    -0.275 OA 
HETATM   25  C   UNL     1      -9.732  17.115  66.962  1.00  0.00    -0.265 C  
ENDBRANCH  12  22
ENDBRANCH   4   9
BRANCH   8  26
HETATM   26  C   UNL     1      -7.568   7.043  65.584  1.00  0.00    -0.093 A  
HETATM   27  C   UNL     1      -7.997   4.802  64.728  1.00  0.00    -0.095 A  
HETATM   28  C   UNL     1      -6.709   6.450  66.533  1.00  0.00    -0.056 A  
HETATM   29  O   UNL     1      -8.645   3.959  63.874  1.00  0.00    -0.092 OA 
HETATM   30  C   UNL     1      -7.180   4.237  65.693  1.00  0.00    -0.072 A  
HETATM   31  H   UNL     1      -8.529   3.018  63.932  1.00  0.00     0.000 HD 
HETATM   32  C   UNL     1      -6.519   5.066  66.590  1.00  0.00    -0.041 A  
HETATM   33  C   UNL     1      -8.167   6.186  64.643  1.00  0.00    -0.094 A  
ENDBRANCH   8  26
TORSDOF 4
ENDMDL
MODEL       62
REMARK 921   NORMALIZED FREE ENERGY PREDICTED BY IDOCK:   -5.33 KCAL/MOL
REMARK 922        TOTAL FREE ENERGY PREDICTED BY IDOCK:   -7.18 KCAL/MOL
REMARK 923 INTER-LIGAND FREE ENERGY PREDICTED BY IDOCK:   -6.34 KCAL/MOL
REMARK 924 INTRA-LIGAND FREE ENERGY PREDICTED BY IDOCK:   -0.84 KCAL/MOL
REMARK 927      BINDING AFFINITY PREDICTED BY RF-SCORE:    0.00 PKD
ROOT
HETATM    1  C   UNL     1     -12.194  11.338  69.210  1.00  0.00    -0.290 C  
HETATM    2  C   UNL     1     -10.712  10.927  69.392  1.00  0.00    -0.265 C  
HETATM    3  C   UNL     1     -10.663   9.836  70.488  1.00  0.00    -0.317 C  
HETATM    4  N   UNL     1     -11.348   8.617  70.032  1.00  0.00    -0.099 NA 
HETATM    5  C   UNL     1      -8.489  10.221  68.322  1.00  0.00    -0.121 C  
HETATM    6  C   UNL     1     -10.695   8.067  68.842  1.00  0.00    -0.065 C  
HETATM    7  C   UNL     1     -10.647   9.070  67.692  1.00  0.00    -0.298 C  
HETATM    8  C   UNL     1     -10.006  10.433  68.069  1.00  0.00    -0.178 C  
ENDROOT
BRANCH   4   9
HETATM    9  C   UNL     1     -11.468   7.634  71.116  1.00  0.00    -0.275 C  
HETATM   10  C   UNL     1     -10.186   7.459  71.954  1.00  0.00    -0.213 C  
HETATM   11  C   UNL     1     -10.450   6.466  73.077  1.00  0.00    -0.230 C  
HETATM   12  N   UNL     1     -10.694   5.157  72.705  1.00  0.00    -0.226 N  
HETATM   13  O   UNL     1     -10.445   6.821  74.249  1.00  0.00    -0.338 OA 
HETATM   14  C   UNL     1      -8.957   7.067  71.110  1.00  0.00    -0.146 C  
HETATM   15  H   UNL     1     -10.656   4.873  71.726  1.00  0.00     0.000 HD 
BRANCH  14  16
HETATM   16  C   UNL     1      -7.672   7.124  71.908  1.00  0.00    -0.091 A  
HETATM   17  C   UNL     1      -6.161   8.331  73.379  1.00  0.00    -0.102 A  
HETATM   18  C   UNL     1      -7.307   8.300  72.581  1.00  0.00    -0.141 A  
HETATM   19  C   UNL     1      -6.857   5.992  72.034  1.00  0.00    -0.072 A  
HETATM   20  C   UNL     1      -5.372   7.189  73.515  1.00  0.00    -0.045 A  
HETATM   21  C   UNL     1      -5.718   6.023  72.838  1.00  0.00    -0.037 A  
ENDBRANCH  14  16
BRANCH  12  22
HETATM   22  C   UNL     1     -11.012   4.190  73.761  1.00  0.00    -0.251 C  
HETATM   23  O   UNL     1     -10.171   2.656  72.107  1.00  0.00    -0.161 OA 
HETATM   24  O   UNL     1     -11.088   1.771  73.975  1.00  0.00    -0.146 OA 
HETATM   25  C   UNL     1     -10.782   2.753  73.315  1.00  0.00    -0.175 C  
ENDBRANCH  12  22
ENDBRANCH   4   9
BRANCH   8  26
HETATM   26  C   UNL     1     -10.092  11.433  66.889  1.00  0.00    -0.245 A  
HETATM   27  C   UNL     1      -9.858  13.677  65.968  1.00  0.00    -0.276 A  
HETATM   28  C   UNL     1     -10.526  11.020  65.611  1.00  0.00    -0.293 A  
HETATM   29  O   UNL     1      -9.570  15.002  66.120  1.00  0.00    -0.277 OA 
HETATM   30  C   UNL     1     -10.324  13.258  64.732  1.00  0.00    -0.381 A  
HETATM   31  H   UNL     1      -9.673  15.612  65.400  1.00  0.00     0.000 HD 
HETATM   32  C   UNL     1     -10.643  11.919  64.548  1.00  0.00    -0.358 A  
HETATM   33  C   UNL     1      -9.707  12.779  67.026  1.00  0.00    -0.224 A  
ENDBRANCH   8  26
TORSDOF 4
ENDMDL
MODEL       63
REMARK 921   NORMALIZED FREE ENERGY PREDICTED BY IDOCK:   -5.16 KCAL/MOL
REMARK 922        TOTAL FREE ENERGY PREDICTED BY IDOCK:   -6.97 KCAL/MOL
REMARK 923 INTER-LIGAND FREE ENERGY PREDICTED BY IDOCK:   -6.29 KCAL/MOL
REMARK 924 INTRA-LIGAND FREE ENERGY PREDICTED BY IDOCK:   -0.68 KCAL/MOL
REMARK 927      BINDING AFFINITY PREDICTED BY RF-SCORE:    0.00 PKD
ROOT
HETATM    1  C   UNL     1      -9.802   9.994  65.084  1.00  0.00    -0.388 C  
HETATM    2  C   UNL     1     -10.485   9.921  66.472  1.00  0.00    -0.213 C  
HETATM    3  C   UNL     1     -10.033   8.603  67.144  1.00  0.00    -0.231 C  
HETATM    4  N   UNL     1      -8.591   8.637  67.427  1.00  0.00    -0.133 NA 
HETATM    5  C   UNL     1     -11.068  11.074  68.689  1.00  0.00    -0.294 C  
HETATM    6  C   UNL     1      -8.266   9.728  68.348  1.00  0.00    -0.105 C  
HETATM    7  C   UNL     1      -8.700  11.089  67.810  1.00  0.00    -0.130 C  
HETATM    8  C   UNL     1     -10.198  11.161  67.406  1.00  0.00    -0.221 C  
ENDROOT
BRANCH   4   9
HETATM    9  C   UNL     1      -8.107   7.334  67.901  1.00  0.00    -0.119 C  
HETATM   10  C   UNL     1      -9.022   6.664  68.946  1.00  0.00    -0.130 C  
HETATM   11  C   UNL     1      -8.452   5.301  69.314  1.00  0.00    -0.101 C  
HETATM   12  N   UNL     1      -7.244   5.294  69.987  1.00  0.00    -0.061 N  
HETATM   13  O   UNL     1      -9.042   4.270  69.022  1.00  0.00    -0.110 OA 
HETATM   14  C   UNL     1      -9.271   7.543  70.187  1.00  0.00    -0.154 C  
HETATM   15  H   UNL     1      -6.786   6.166  70.255  1.00  0.00     0.000 HD 
BRANCH  14  16
HETATM   16  C   UNL     1     -10.345   6.970  71.088  1.00  0.00    -0.222 A  
HETATM   17  C   UNL     1     -12.687   6.760  71.699  1.00  0.00    -0.360 A  
HETATM   18  C   UNL     1     -11.686   7.344  70.919  1.00  0.00    -0.325 A  
HETATM   19  C   UNL     1     -10.026   6.019  72.065  1.00  0.00    -0.195 A  
HETATM   20  C   UNL     1     -12.358   5.795  72.650  1.00  0.00     0.133 A  
HETATM   21  C   UNL     1     -11.027   5.431  72.836  1.00  0.00    -0.338 A  
ENDBRANCH  14  16
BRANCH  12  22
HETATM   22  C   UNL     1      -6.640   3.994  70.301  1.00  0.00    -0.032 C  
HETATM   23  O   UNL     1      -6.821   4.861  72.540  1.00  0.00    -0.063 OA 
HETATM   24  O   UNL     1      -5.715   2.907  72.267  1.00  0.00    -0.007 OA 
HETATM   25  C   UNL     1      -6.327   3.848  71.784  1.00  0.00    -0.015 C  
ENDBRANCH  12  22
ENDBRANCH   4   9
BRANCH   8  26
HETATM   26  C   UNL     1     -10.536  12.532  66.769  1.00  0.00    -0.253 A  
HETATM   27  C   UNL     1      -9.881  14.745  65.988  1.00  0.00    -0.324 A  
HETATM   28  C   UNL     1     -11.857  12.858  66.395  1.00  0.00    -0.478 A  
HETATM   29  O   UNL     1      -8.935  15.711  65.807  1.00  0.00    -0.349 OA 
HETATM   30  C   UNL     1     -11.191  15.059  65.664  1.00  0.00    -0.327 A  
HETATM   31  H   UNL     1      -9.165  16.564  65.459  1.00  0.00     0.000 HD 
HETATM   32  C   UNL     1     -12.181  14.104  65.852  1.00  0.00    -0.458 A  
HETATM   33  C   UNL     1      -9.543  13.491  66.500  1.00  0.00    -0.284 A  
ENDBRANCH   8  26
TORSDOF 4
ENDMDL
MODEL       64
REMARK 921   NORMALIZED FREE ENERGY PREDICTED BY IDOCK:   -5.15 KCAL/MOL
REMARK 922        TOTAL FREE ENERGY PREDICTED BY IDOCK:   -6.95 KCAL/MOL
REMARK 923 INTER-LIGAND FREE ENERGY PREDICTED BY IDOCK:   -6.46 KCAL/MOL
REMARK 924 INTRA-LIGAND FREE ENERGY PREDICTED BY IDOCK:   -0.49 KCAL/MOL
REMARK 927      BINDING AFFINITY PREDICTED BY RF-SCORE:    0.00 PKD
ROOT
HETATM    1  C   UNL     1     -11.148  11.616  66.312  1.00  0.00    -0.345 C  
HETATM    2  C   UNL     1     -11.516  10.993  67.681  1.00  0.00    -0.303 C  
HETATM    3  C   UNL     1     -11.144   9.493  67.625  1.00  0.00     0.061 C  
HETATM    4  N   UNL     1      -9.689   9.326  67.506  1.00  0.00    -0.152 NA 
HETATM    5  C   UNL     1     -11.412  11.118  70.242  1.00  0.00    -0.329 C  
HETATM    6  C   UNL     1      -9.002   9.900  68.665  1.00  0.00    -0.128 C  
HETATM    7  C   UNL     1      -9.321  11.382  68.852  1.00  0.00    -0.044 C  
HETATM    8  C   UNL     1     -10.839  11.698  68.921  1.00  0.00    -0.264 C  
ENDROOT
BRANCH   4   9
HETATM    9  C   UNL     1      -9.328   7.922  67.274  1.00  0.00    -0.148 C  
HETATM   10  C   UNL     1      -9.696   6.976  68.434  1.00  0.00    -0.139 C  
HETATM   11  C   UNL     1      -9.331   5.548  68.054  1.00  0.00    -0.110 C  
HETATM   12  N   UNL     1      -7.984   5.268  67.910  1.00  0.00    -0.095 N  
HETATM   13  O   UNL     1     -10.195   4.698  67.885  1.00  0.00    -0.071 OA 
HETATM   14  C   UNL     1      -9.073   7.395  69.780  1.00  0.00    -0.141 C  
HETATM   15  H   UNL     1      -7.277   5.979  68.094  1.00  0.00     0.000 HD 
BRANCH  14  16
HETATM   16  C   UNL     1      -9.626   6.595  70.940  1.00  0.00    -0.183 A  
HETATM   17  C   UNL     1     -11.514   5.876  72.290  1.00  0.00    -0.351 A  
HETATM   18  C   UNL     1     -10.988   6.671  71.269  1.00  0.00    -0.296 A  
HETATM   19  C   UNL     1      -8.802   5.727  71.667  1.00  0.00    -0.138 A  
HETATM   20  C   UNL     1     -10.687   4.997  72.989  1.00  0.00    -0.307 A  
HETATM   21  C   UNL     1      -9.331   4.929  72.681  1.00  0.00    -0.152 A  
ENDBRANCH  14  16
BRANCH  12  22
HETATM   22  C   UNL     1      -7.605   3.915  67.486  1.00  0.00    -0.068 C  
HETATM   23  O   UNL     1      -7.054   5.097  65.463  1.00  0.00    -0.064 OA 
HETATM   24  O   UNL     1      -6.926   2.840  65.417  1.00  0.00    -0.050 OA 
HETATM   25  C   UNL     1      -7.172   3.869  66.027  1.00  0.00    -0.068 C  
ENDBRANCH  12  22
ENDBRANCH   4   9
BRANCH   8  26
HETATM   26  C   UNL     1     -11.085  13.226  68.999  1.00  0.00    -0.291 A  
HETATM   27  C   UNL     1     -12.391  15.144  69.741  1.00  0.00    -0.242 A  
HETATM   28  C   UNL     1     -10.222  14.139  68.357  1.00  0.00    -0.247 A  
HETATM   29  O   UNL     1     -13.473  15.670  70.387  1.00  0.00    -0.804 OA 
HETATM   30  C   UNL     1     -11.554  16.020  69.071  1.00  0.00    -0.350 A  
HETATM   31  H   UNL     1     -13.637  16.606  70.386  1.00  0.00     0.000 HD 
HETATM   32  C   UNL     1     -10.454  15.517  68.389  1.00  0.00    -0.240 A  
HETATM   33  C   UNL     1     -12.149  13.769  69.742  1.00  0.00    -0.400 A  
ENDBRANCH   8  26
TORSDOF 4
ENDMDL
MODEL       65
REMARK 921   NORMALIZED FREE ENERGY PREDICTED BY IDOCK:   -5.14 KCAL/MOL
REMARK 922        TOTAL FREE ENERGY PREDICTED BY IDOCK:   -6.95 KCAL/MOL
REMARK 923 INTER-LIGAND FREE ENERGY PREDICTED BY IDOCK:   -5.79 KCAL/MOL
REMARK 924 INTRA-LIGAND FREE ENERGY PREDICTED BY IDOCK:   -1.16 KCAL/MOL
REMARK 927      BINDING AFFINITY PREDICTED BY RF-SCORE:    0.00 PKD
ROOT
HETATM    1  C   UNL     1      -8.626   8.226  66.457  1.00  0.00    -0.141 C  
HETATM    2  C   UNL     1      -7.466   8.207  67.484  1.00  0.00    -0.094 C  
HETATM    3  C   UNL     1      -7.168   9.674  67.875  1.00  0.00    -0.081 C  
HETATM    4  N   UNL     1      -8.309  10.258  68.595  1.00  0.00    -0.115 NA 
HETATM    5  C   UNL     1      -6.459   7.229  69.632  1.00  0.00    -0.036 C  
HETATM    6  C   UNL     1      -8.575   9.523  69.834  1.00  0.00    -0.204 C  
HETATM    7  C   UNL     1      -8.849   8.043  69.581  1.00  0.00    -0.141 C  
HETATM    8  C   UNL     1      -7.743   7.325  68.763  1.00  0.00    -0.119 C  
ENDROOT
BRANCH   4   9
HETATM    9  C   UNL     1      -8.120  11.696  68.820  1.00  0.00    -0.072 C  
HETATM   10  C   UNL     1      -9.148  12.589  68.098  1.00  0.00    -0.204 C  
HETATM   11  C   UNL     1      -8.889  14.046  68.454  1.00  0.00    -0.180 C  
HETATM   12  N   UNL     1      -7.705  14.596  67.998  1.00  0.00    -0.120 N  
HETATM   13  O   UNL     1      -9.696  14.689  69.113  1.00  0.00    -0.190 OA 
HETATM   14  C   UNL     1      -9.184  12.363  66.573  1.00  0.00    -0.215 C  
HETATM   15  H   UNL     1      -7.064  14.056  67.417  1.00  0.00     0.000 HD 
BRANCH  14  16
HETATM   16  C   UNL     1     -10.347  13.073  65.916  1.00  0.00    -0.296 A  
HETATM   17  C   UNL     1     -11.218  14.944  64.633  1.00  0.00    -0.349 A  
HETATM   18  C   UNL     1     -10.163  14.322  65.306  1.00  0.00    -0.408 A  
HETATM   19  C   UNL     1     -11.611  12.472  65.858  1.00  0.00    -0.454 A  
HETATM   20  C   UNL     1     -12.464  14.322  64.561  1.00  0.00    -0.357 A  
HETATM   21  C   UNL     1     -12.661  13.090  65.178  1.00  0.00    -0.530 A  
ENDBRANCH  14  16
BRANCH  12  22
HETATM   22  C   UNL     1      -7.400  15.981  68.377  1.00  0.00    -0.131 C  
HETATM   23  O   UNL     1      -5.867  14.855  69.853  1.00  0.00    -0.108 OA 
HETATM   24  O   UNL     1      -6.089  17.093  70.093  1.00  0.00    -0.201 OA 
HETATM   25  C   UNL     1      -6.404  16.057  69.526  1.00  0.00    -0.182 C  
ENDBRANCH  12  22
ENDBRANCH   4   9
BRANCH   8  26
HETATM   26  C   UNL     1      -8.143   5.860  68.454  1.00  0.00    -0.109 A  
HETATM   27  C   UNL     1      -7.852   3.782  67.214  1.00  0.00    -0.079 A  
HETATM   28  C   UNL     1      -9.218   5.239  69.124  1.00  0.00    -0.153 A  
HETATM   29  O   UNL     1      -7.221   3.049  66.251  1.00  0.00    -0.064 OA 
HETATM   30  C   UNL     1      -8.936   3.205  67.855  1.00  0.00    -0.191 A  
HETATM   31  H   UNL     1      -7.508   2.169  66.040  1.00  0.00     0.000 HD 
HETATM   32  C   UNL     1      -9.611   3.931  68.828  1.00  0.00    -0.187 A  
HETATM   33  C   UNL     1      -7.432   5.077  67.526  1.00  0.00    -0.083 A  
ENDBRANCH   8  26
TORSDOF 4
ENDMDL
MODEL       66
REMARK 921   NORMALIZED FREE ENERGY PREDICTED BY IDOCK:   -5.10 KCAL/MOL
REMARK 922        TOTAL FREE ENERGY PREDICTED BY IDOCK:   -6.89 KCAL/MOL
REMARK 923 INTER-LIGAND FREE ENERGY PREDICTED BY IDOCK:   -7.89 KCAL/MOL
REMARK 924 INTRA-LIGAND FREE ENERGY PREDICTED BY IDOCK:    1.00 KCAL/MOL
REMARK 927      BINDING AFFINITY PREDICTED BY RF-SCORE:    0.00 PKD
ROOT
HETATM    1  C   UNL     1     -10.608  14.198  67.979  1.00  0.00    -0.241 C  
HETATM    2  C   UNL     1     -11.037  15.397  67.099  1.00  0.00    -0.291 C  
HETATM    3  C   UNL     1     -10.413  16.672  67.712  1.00  0.00    -0.316 C  
HETATM    4  N   UNL     1      -8.947  16.627  67.612  1.00  0.00    -0.204 NA 
HETATM    5  C   UNL     1     -11.286  16.415  64.756  1.00  0.00    -0.219 C  
HETATM    6  C   UNL     1      -8.522  16.566  66.211  1.00  0.00    -0.328 C  
HETATM    7  C   UNL     1      -9.109  15.361  65.481  1.00  0.00     0.350 C  
HETATM    8  C   UNL     1     -10.655  15.256  65.573  1.00  0.00    -0.390 C  
ENDROOT
BRANCH   4   9
HETATM    9  C   UNL     1      -8.326  17.740  68.342  1.00  0.00    -0.295 C  
HETATM   10  C   UNL     1      -7.604  18.761  67.442  1.00  0.00    -0.239 C  
HETATM   11  C   UNL     1      -7.057  19.893  68.301  1.00  0.00    -0.301 C  
HETATM   12  N   UNL     1      -6.045  19.567  69.185  1.00  0.00    -0.259 N  
HETATM   13  O   UNL     1      -7.500  21.030  68.206  1.00  0.00     0.151 OA 
HETATM   14  C   UNL     1      -6.513  18.126  66.556  1.00  0.00    -0.235 C  
HETATM   15  H   UNL     1      -5.662  18.623  69.222  1.00  0.00     0.000 HD 
BRANCH  14  16
HETATM   16  C   UNL     1      -5.979  19.094  65.523  1.00  0.00    -0.235 A  
HETATM   17  C   UNL     1      -5.297  19.572  63.241  1.00  0.00    -0.340 A  
HETATM   18  C   UNL     1      -5.718  18.663  64.214  1.00  0.00    -0.068 A  
HETATM   19  C   UNL     1      -5.789  20.446  65.840  1.00  0.00    -0.216 A  
HETATM   20  C   UNL     1      -5.136  20.919  63.563  1.00  0.00    -0.233 A  
HETATM   21  C   UNL     1      -5.377  21.352  64.864  1.00  0.00    -0.101 A  
ENDBRANCH  14  16
BRANCH  12  22
HETATM   22  C   UNL     1      -5.539  20.624  70.069  1.00  0.00    -0.332 C  
HETATM   23  O   UNL     1      -5.649  18.832  71.672  1.00  0.00    -0.205 OA 
HETATM   24  O   UNL     1      -5.148  20.895  72.451  1.00  0.00    -0.394 OA 
HETATM   25  C   UNL     1      -5.430  20.161  71.515  1.00  0.00    -0.375 C  
ENDBRANCH  12  22
ENDBRANCH   4   9
BRANCH   8  26
HETATM   26  C   UNL     1     -11.164  13.954  64.906  1.00  0.00    -0.356 A  
HETATM   27  C   UNL     1     -10.774  11.905  63.645  1.00  0.00    -0.442 A  
HETATM   28  C   UNL     1     -12.534  13.616  64.914  1.00  0.00    -0.423 A  
HETATM   29  O   UNL     1      -9.936  11.059  62.980  1.00  0.00    -0.418 OA 
HETATM   30  C   UNL     1     -12.128  11.613  63.631  1.00  0.00    -0.359 A  
HETATM   31  H   UNL     1     -10.269  10.288  62.535  1.00  0.00     0.000 HD 
HETATM   32  C   UNL     1     -13.011  12.463  64.284  1.00  0.00    -0.257 A  
HETATM   33  C   UNL     1     -10.285  13.037  64.300  1.00  0.00    -0.316 A  
ENDBRANCH   8  26
TORSDOF 4
ENDMDL
MODEL       67
REMARK 921   NORMALIZED FREE ENERGY PREDICTED BY IDOCK:   -5.08 KCAL/MOL
REMARK 922        TOTAL FREE ENERGY PREDICTED BY IDOCK:   -6.87 KCAL/MOL
REMARK 923 INTER-LIGAND FREE ENERGY PREDICTED BY IDOCK:   -5.59 KCAL/MOL
REMARK 924 INTRA-LIGAND FREE ENERGY PREDICTED BY IDOCK:   -1.28 KCAL/MOL
REMARK 927      BINDING AFFINITY PREDICTED BY RF-SCORE:    0.00 PKD
ROOT
HETATM    1  C   UNL     1      -7.721  11.404  66.760  1.00  0.00    -0.150 C  
HETATM    2  C   UNL     1      -9.046  11.614  65.987  1.00  0.00    -0.188 C  
HETATM    3  C   UNL     1      -9.630  10.215  65.677  1.00  0.00    -0.243 C  
HETATM    4  N   UNL     1     -10.014   9.531  66.920  1.00  0.00    -0.201 NA 
HETATM    5  C   UNL     1     -11.310  12.809  65.807  1.00  0.00    -0.357 C  
HETATM    6  C   UNL     1     -11.047  10.285  67.633  1.00  0.00    -0.251 C  
HETATM    7  C   UNL     1     -10.601  11.706  67.965  1.00  0.00    -0.232 C  
HETATM    8  C   UNL     1     -10.103  12.516  66.738  1.00  0.00    -0.233 C  
ENDROOT
BRANCH   4   9
HETATM    9  C   UNL     1     -10.405   8.138  66.665  1.00  0.00    -0.213 C  
HETATM   10  C   UNL     1      -9.557   7.096  67.420  1.00  0.00    -0.168 C  
HETATM   11  C   UNL     1     -10.093   5.702  67.125  1.00  0.00    -0.183 C  
HETATM   12  N   UNL     1      -9.962   5.248  65.825  1.00  0.00    -0.365 N  
HETATM   13  O   UNL     1     -10.613   5.025  68.003  1.00  0.00    -0.028 OA 
HETATM   14  C   UNL     1      -8.049   7.211  67.125  1.00  0.00    -0.114 C  
HETATM   15  H   UNL     1      -9.491   5.810  65.117  1.00  0.00     0.000 HD 
BRANCH  14  16
HETATM   16  C   UNL     1      -7.218   6.340  68.042  1.00  0.00    -0.087 A  
HETATM   17  C   UNL     1      -6.508   5.717  70.280  1.00  0.00    -0.032 A  
HETATM   18  C   UNL     1      -7.214   6.567  69.426  1.00  0.00    -0.086 A  
HETATM   19  C   UNL     1      -6.484   5.261  67.531  1.00  0.00    -0.052 A  
HETATM   20  C   UNL     1      -5.803   4.631  69.762  1.00  0.00    -0.017 A  
HETATM   21  C   UNL     1      -5.787   4.409  68.387  1.00  0.00    -0.025 A  
ENDBRANCH  14  16
BRANCH  12  22
HETATM   22  C   UNL     1     -10.523   3.932  65.497  1.00  0.00     0.166 C  
HETATM   23  O   UNL     1      -9.553   4.456  63.357  1.00  0.00    -0.122 OA 
HETATM   24  O   UNL     1     -10.829   2.594  63.493  1.00  0.00    -0.224 OA 
HETATM   25  C   UNL     1     -10.342   3.579  64.028  1.00  0.00    -0.242 C  
ENDBRANCH  12  22
ENDBRANCH   4   9
BRANCH   8  26
HETATM   26  C   UNL     1      -9.565  13.903  67.169  1.00  0.00    -0.247 A  
HETATM   27  C   UNL     1      -8.960  16.210  66.667  1.00  0.00    -0.255 A  
HETATM   28  C   UNL     1      -9.143  14.145  68.493  1.00  0.00    -0.176 A  
HETATM   29  O   UNL     1      -8.824  17.239  65.781  1.00  0.00    -0.530 OA 
HETATM   30  C   UNL     1      -8.515  16.413  67.963  1.00  0.00    -0.183 A  
HETATM   31  H   UNL     1      -8.449  18.069  66.049  1.00  0.00     0.000 HD 
HETATM   32  C   UNL     1      -8.623  15.381  68.885  1.00  0.00    -0.207 A  
HETATM   33  C   UNL     1      -9.512  14.989  66.275  1.00  0.00    -0.342 A  
ENDBRANCH   8  26
TORSDOF 4
ENDMDL
MODEL       68
REMARK 921   NORMALIZED FREE ENERGY PREDICTED BY IDOCK:   -5.04 KCAL/MOL
REMARK 922        TOTAL FREE ENERGY PREDICTED BY IDOCK:   -6.82 KCAL/MOL
REMARK 923 INTER-LIGAND FREE ENERGY PREDICTED BY IDOCK:   -6.65 KCAL/MOL
REMARK 924 INTRA-LIGAND FREE ENERGY PREDICTED BY IDOCK:   -0.17 KCAL/MOL
REMARK 927      BINDING AFFINITY PREDICTED BY RF-SCORE:    0.00 PKD
ROOT
HETATM    1  C   UNL     1      -5.889   7.810  67.448  1.00  0.00    -0.037 C  
HETATM    2  C   UNL     1      -7.379   7.711  67.855  1.00  0.00    -0.102 C  
HETATM    3  C   UNL     1      -8.033   9.082  67.563  1.00  0.00    -0.101 C  
HETATM    4  N   UNL     1      -8.047   9.348  66.117  1.00  0.00    -0.110 NA 
HETATM    5  C   UNL     1      -9.595   6.419  67.759  1.00  0.00    -0.123 C  
HETATM    6  C   UNL     1      -8.829   8.333  65.407  1.00  0.00    -0.073 C  
HETATM    7  C   UNL     1      -8.301   6.922  65.649  1.00  0.00    -0.147 C  
HETATM    8  C   UNL     1      -8.172   6.543  67.149  1.00  0.00    -0.113 C  
ENDROOT
BRANCH   4   9
HETATM    9  C   UNL     1      -8.501  10.715  65.829  1.00  0.00    -0.178 C  
HETATM   10  C   UNL     1      -9.331  11.355  66.958  1.00  0.00    -0.183 C  
HETATM   11  C   UNL     1      -9.690  12.783  66.572  1.00  0.00    -0.255 C  
HETATM   12  N   UNL     1     -10.549  12.940  65.500  1.00  0.00    -0.275 N  
HETATM   13  O   UNL     1      -9.233  13.738  67.187  1.00  0.00    -0.223 OA 
HETATM   14  C   UNL     1     -10.574  10.529  67.342  1.00  0.00    -0.313 C  
HETATM   15  H   UNL     1     -10.950  12.131  65.025  1.00  0.00     0.000 HD 
BRANCH  14  16
HETATM   16  C   UNL     1     -11.244  11.049  68.595  1.00  0.00    -0.322 A  
HETATM   17  C   UNL     1     -11.790  10.797  70.949  1.00  0.00    -0.400 A  
HETATM   18  C   UNL     1     -11.240  10.285  69.772  1.00  0.00    -0.339 A  
HETATM   19  C   UNL     1     -11.828  12.322  68.618  1.00  0.00    -0.354 A  
HETATM   20  C   UNL     1     -12.346  12.075  70.964  1.00  0.00    -0.340 A  
HETATM   21  C   UNL     1     -12.370  12.834  69.797  1.00  0.00    -0.096 A  
ENDBRANCH  14  16
BRANCH  12  22
HETATM   22  C   UNL     1     -10.866  14.306  65.067  1.00  0.00    -0.403 C  
HETATM   23  O   UNL     1     -12.971  13.263  64.542  1.00  0.00    -0.670 OA 
HETATM   24  O   UNL     1     -12.680  15.406  63.885  1.00  0.00    -0.695 OA 
HETATM   25  C   UNL     1     -12.244  14.403  64.428  1.00  0.00    -0.458 C  
ENDBRANCH  12  22
ENDBRANCH   4   9
BRANCH   8  26
HETATM   26  C   UNL     1      -7.528   5.143  67.315  1.00  0.00    -0.083 A  
HETATM   27  C   UNL     1      -6.449   3.164  66.389  1.00  0.00    -0.032 A  
HETATM   28  C   UNL     1      -7.449   4.521  68.579  1.00  0.00    -0.064 A  
HETATM   29  O   UNL     1      -5.979   2.454  65.323  1.00  0.00    -0.017 OA 
HETATM   30  C   UNL     1      -6.417   2.555  67.633  1.00  0.00    -0.032 A  
HETATM   31  H   UNL     1      -5.630   1.578  65.433  1.00  0.00     0.000 HD 
HETATM   32  C   UNL     1      -6.903   3.243  68.736  1.00  0.00    -0.045 A  
HETATM   33  C   UNL     1      -6.962   4.453  66.228  1.00  0.00    -0.066 A  
ENDBRANCH   8  26
TORSDOF 4
ENDMDL
MODEL       69
REMARK 921   NORMALIZED FREE ENERGY PREDICTED BY IDOCK:   -5.04 KCAL/MOL
REMARK 922        TOTAL FREE ENERGY PREDICTED BY IDOCK:   -6.82 KCAL/MOL
REMARK 923 INTER-LIGAND FREE ENERGY PREDICTED BY IDOCK:   -6.98 KCAL/MOL
REMARK 924 INTRA-LIGAND FREE ENERGY PREDICTED BY IDOCK:    0.16 KCAL/MOL
REMARK 927      BINDING AFFINITY PREDICTED BY RF-SCORE:    0.00 PKD
ROOT
HETATM    1  C   UNL     1      -9.243   7.328  67.395  1.00  0.00    -0.140 C  
HETATM    2  C   UNL     1      -9.061   7.519  65.869  1.00  0.00    -0.086 C  
HETATM    3  C   UNL     1      -9.190   9.031  65.571  1.00  0.00    -0.198 C  
HETATM    4  N   UNL     1      -8.081   9.774  66.186  1.00  0.00    -0.108 NA 
HETATM    5  C   UNL     1      -7.708   7.021  63.746  1.00  0.00    -0.111 C  
HETATM    6  C   UNL     1      -6.794   9.333  65.643  1.00  0.00    -0.074 C  
HETATM    7  C   UNL     1      -6.564   7.837  65.844  1.00  0.00    -0.046 C  
HETATM    8  C   UNL     1      -7.708   6.942  65.296  1.00  0.00    -0.110 C  
ENDROOT
BRANCH   4   9
HETATM    9  C   UNL     1      -8.277  11.224  66.066  1.00  0.00    -0.045 C  
HETATM   10  C   UNL     1      -9.159  11.836  67.172  1.00  0.00    -0.175 C  
HETATM   11  C   UNL     1      -9.239  13.343  66.978  1.00  0.00    -0.242 C  
HETATM   12  N   UNL     1      -9.898  13.790  65.847  1.00  0.00    -0.419 N  
HETATM   13  O   UNL     1      -8.739  14.113  67.789  1.00  0.00    -0.163 OA 
HETATM   14  C   UNL     1     -10.555  11.188  67.264  1.00  0.00    -0.279 C  
HETATM   15  H   UNL     1     -10.341  13.135  65.204  1.00  0.00     0.000 HD 
BRANCH  14  16
HETATM   16  C   UNL     1     -11.315  11.638  68.492  1.00  0.00    -0.332 A  
HETATM   17  C   UNL     1     -12.066  11.234  70.767  1.00  0.00    -0.450 A  
HETATM   18  C   UNL     1     -11.430  10.792  69.605  1.00  0.00    -0.376 A  
HETATM   19  C   UNL     1     -11.869  12.923  68.560  1.00  0.00    -0.350 A  
HETATM   20  C   UNL     1     -12.590  12.525  70.830  1.00  0.00    -0.331 A  
HETATM   21  C   UNL     1     -12.496  13.365  69.724  1.00  0.00    -0.112 A  
ENDBRANCH  14  16
BRANCH  12  22
HETATM   22  C   UNL     1      -9.938  15.236  65.602  1.00  0.00    -0.364 C  
HETATM   23  O   UNL     1     -12.011  14.631  64.539  1.00  0.00    -0.444 OA 
HETATM   24  O   UNL     1     -11.315  16.771  64.317  1.00  0.00    -1.170 OA 
HETATM   25  C   UNL     1     -11.134  15.643  64.752  1.00  0.00    -0.412 C  
ENDBRANCH  12  22
ENDBRANCH   4   9
BRANCH   8  26
HETATM   26  C   UNL     1      -7.456   5.451  65.634  1.00  0.00    -0.081 A  
HETATM   27  C   UNL     1      -7.181   3.641  67.243  1.00  0.00    -0.063 A  
HETATM   28  C   UNL     1      -7.234   4.499  64.617  1.00  0.00    -0.063 A  
HETATM   29  O   UNL     1      -7.114   3.193  68.530  1.00  0.00    -0.048 OA 
HETATM   30  C   UNL     1      -6.927   2.731  66.230  1.00  0.00    -0.052 A  
HETATM   31  H   UNL     1      -6.913   2.285  68.723  1.00  0.00     0.000 HD 
HETATM   32  C   UNL     1      -6.970   3.158  64.910  1.00  0.00    -0.053 A  
HETATM   33  C   UNL     1      -7.478   4.976  66.958  1.00  0.00    -0.087 A  
ENDBRANCH   8  26
TORSDOF 4
ENDMDL
MODEL       70
REMARK 921   NORMALIZED FREE ENERGY PREDICTED BY IDOCK:   -4.97 KCAL/MOL
REMARK 922        TOTAL FREE ENERGY PREDICTED BY IDOCK:   -6.73 KCAL/MOL
REMARK 923 INTER-LIGAND FREE ENERGY PREDICTED BY IDOCK:   -5.49 KCAL/MOL
REMARK 924 INTRA-LIGAND FREE ENERGY PREDICTED BY IDOCK:   -1.24 KCAL/MOL
REMARK 927      BINDING AFFINITY PREDICTED BY RF-SCORE:    0.00 PKD
ROOT
HETATM    1  C   UNL     1      -7.500   7.006  69.251  1.00  0.00    -0.094 C  
HETATM    2  C   UNL     1      -8.050   6.319  70.525  1.00  0.00    -0.113 C  
HETATM    3  C   UNL     1      -9.124   7.253  71.130  1.00  0.00    -0.152 C  
HETATM    4  N   UNL     1     -10.278   7.366  70.226  1.00  0.00    -0.198 NA 
HETATM    5  C   UNL     1      -8.983   4.206  71.644  1.00  0.00    -0.160 C  
HETATM    6  C   UNL     1     -10.906   6.060  70.017  1.00  0.00    -0.359 C  
HETATM    7  C   UNL     1      -9.929   5.032  69.452  1.00  0.00    -0.290 C  
HETATM    8  C   UNL     1      -8.630   4.870  70.286  1.00  0.00    -0.111 C  
ENDROOT
BRANCH   4   9
HETATM    9  C   UNL     1     -11.228   8.382  70.696  1.00  0.00    -0.255 C  
HETATM   10  C   UNL     1     -11.401   9.576  69.737  1.00  0.00    -0.117 C  
HETATM   11  C   UNL     1     -12.450  10.526  70.299  1.00  0.00    -0.271 C  
HETATM   12  N   UNL     1     -12.128  11.183  71.473  1.00  0.00    -0.023 N  
HETATM   13  O   UNL     1     -13.522  10.691  69.732  1.00  0.00     0.213 OA 
HETATM   14  C   UNL     1     -10.077  10.297  69.420  1.00  0.00    -0.255 C  
HETATM   15  H   UNL     1     -11.214  11.062  71.909  1.00  0.00     0.000 HD 
BRANCH  14  16
HETATM   16  C   UNL     1     -10.229  11.313  68.308  1.00  0.00    -0.198 A  
HETATM   17  C   UNL     1     -11.175  11.963  66.167  1.00  0.00    -0.387 A  
HETATM   18  C   UNL     1     -10.970  11.001  67.159  1.00  0.00    -0.344 A  
HETATM   19  C   UNL     1      -9.681  12.596  68.432  1.00  0.00    -0.187 A  
HETATM   20  C   UNL     1     -10.646  13.244  66.315  1.00  0.00    -0.294 A  
HETATM   21  C   UNL     1      -9.894  13.557  67.444  1.00  0.00    -0.227 A  
ENDBRANCH  14  16
BRANCH  12  22
HETATM   22  C   UNL     1     -13.142  12.058  72.071  1.00  0.00    -0.351 C  
HETATM   23  O   UNL     1     -12.014  13.690  70.707  1.00  0.00    -0.311 OA 
HETATM   24  O   UNL     1     -13.603  14.443  72.129  1.00  0.00    -0.360 OA 
HETATM   25  C   UNL     1     -12.957  13.514  71.666  1.00  0.00    -0.359 C  
ENDBRANCH  12  22
ENDBRANCH   4   9
BRANCH   8  26
HETATM   26  C   UNL     1      -7.644   3.895  69.594  1.00  0.00    -0.052 A  
HETATM   27  C   UNL     1      -7.042   2.411  67.756  1.00  0.00    -0.048 A  
HETATM   28  C   UNL     1      -6.412   3.555  70.191  1.00  0.00    -0.032 A  
HETATM   29  O   UNL     1      -7.339   1.803  66.572  1.00  0.00    -0.054 OA 
HETATM   30  C   UNL     1      -5.855   2.061  68.379  1.00  0.00    -0.023 A  
HETATM   31  H   UNL     1      -6.746   1.171  66.183  1.00  0.00     0.000 HD 
HETATM   32  C   UNL     1      -5.530   2.649  69.595  1.00  0.00    -0.016 A  
HETATM   33  C   UNL     1      -7.913   3.340  68.329  1.00  0.00    -0.065 A  
ENDBRANCH   8  26
TORSDOF 4
ENDMDL
MODEL       71
REMARK 921   NORMALIZED FREE ENERGY PREDICTED BY IDOCK:   -4.95 KCAL/MOL
REMARK 922        TOTAL FREE ENERGY PREDICTED BY IDOCK:   -6.71 KCAL/MOL
REMARK 923 INTER-LIGAND FREE ENERGY PREDICTED BY IDOCK:   -5.37 KCAL/MOL
REMARK 924 INTRA-LIGAND FREE ENERGY PREDICTED BY IDOCK:   -1.34 KCAL/MOL
REMARK 927      BINDING AFFINITY PREDICTED BY RF-SCORE:    0.00 PKD
ROOT
HETATM    1  C   UNL     1      -7.042   7.932  68.378  1.00  0.00    -0.081 C  
HETATM    2  C   UNL     1      -8.166   7.070  69.005  1.00  0.00    -0.125 C  
HETATM    3  C   UNL     1      -9.182   8.035  69.659  1.00  0.00    -0.152 C  
HETATM    4  N   UNL     1      -9.850   8.852  68.635  1.00  0.00    -0.163 NA 
HETATM    5  C   UNL     1      -9.857   5.157  68.752  1.00  0.00    -0.235 C  
HETATM    6  C   UNL     1     -10.594   8.007  67.698  1.00  0.00    -0.194 C  
HETATM    7  C   UNL     1      -9.700   6.979  67.010  1.00  0.00    -0.216 C  
HETATM    8  C   UNL     1      -8.883   6.095  67.990  1.00  0.00    -0.111 C  
ENDROOT
BRANCH   4   9
HETATM    9  C   UNL     1     -10.687   9.894  69.244  1.00  0.00    -0.224 C  
HETATM   10  C   UNL     1     -10.953  11.105  68.328  1.00  0.00    -0.278 C  
HETATM   11  C   UNL     1     -11.875  12.083  69.041  1.00  0.00    -0.315 C  
HETATM   12  N   UNL     1     -11.365  12.714  70.161  1.00  0.00    -0.468 N  
HETATM   13  O   UNL     1     -13.011  12.292  68.635  1.00  0.00     1.146 OA 
HETATM   14  C   UNL     1      -9.662  11.784  67.829  1.00  0.00    -0.185 C  
HETATM   15  H   UNL     1     -10.403  12.557  70.461  1.00  0.00     0.000 HD 
BRANCH  14  16
HETATM   16  C   UNL     1      -9.936  12.817  66.758  1.00  0.00    -0.237 A  
HETATM   17  C   UNL     1     -11.129  13.510  64.758  1.00  0.00    -0.368 A  
HETATM   18  C   UNL     1     -10.817  12.532  65.704  1.00  0.00    -0.311 A  
HETATM   19  C   UNL     1      -9.359  14.092  66.830  1.00  0.00    -0.289 A  
HETATM   20  C   UNL     1     -10.567  14.783  64.856  1.00  0.00    -0.431 A  
HETATM   21  C   UNL     1      -9.678  15.069  65.888  1.00  0.00    -0.376 A  
ENDBRANCH  14  16
BRANCH  12  22
HETATM   22  C   UNL     1     -12.252  13.617  70.904  1.00  0.00    -0.328 C  
HETATM   23  O   UNL     1     -10.856  15.269  69.848  1.00  0.00    -0.249 OA 
HETATM   24  O   UNL     1     -12.350  15.997  71.382  1.00  0.00    -0.440 OA 
HETATM   25  C   UNL     1     -11.839  15.076  70.762  1.00  0.00    -0.320 C  
ENDBRANCH  12  22
ENDBRANCH   4   9
BRANCH   8  26
HETATM   26  C   UNL     1      -7.921   5.156  67.221  1.00  0.00    -0.100 A  
HETATM   27  C   UNL     1      -7.023   4.253  65.142  1.00  0.00    -0.058 A  
HETATM   28  C   UNL     1      -7.046   4.285  67.905  1.00  0.00    -0.060 A  
HETATM   29  O   UNL     1      -7.013   4.188  63.780  1.00  0.00    -0.043 OA 
HETATM   30  C   UNL     1      -6.201   3.379  65.834  1.00  0.00    -0.031 A  
HETATM   31  H   UNL     1      -6.452   3.574  63.322  1.00  0.00     0.000 HD 
HETATM   32  C   UNL     1      -6.199   3.407  67.222  1.00  0.00    -0.035 A  
HETATM   33  C   UNL     1      -7.848   5.157  65.816  1.00  0.00    -0.095 A  
ENDBRANCH   8  26
TORSDOF 4
ENDMDL
MODEL       72
REMARK 921   NORMALIZED FREE ENERGY PREDICTED BY IDOCK:   -4.91 KCAL/MOL
REMARK 922        TOTAL FREE ENERGY PREDICTED BY IDOCK:   -6.66 KCAL/MOL
REMARK 923 INTER-LIGAND FREE ENERGY PREDICTED BY IDOCK:   -6.22 KCAL/MOL
REMARK 924 INTRA-LIGAND FREE ENERGY PREDICTED BY IDOCK:   -0.44 KCAL/MOL
REMARK 927      BINDING AFFINITY PREDICTED BY RF-SCORE:    0.00 PKD
ROOT
HETATM    1  C   UNL     1      -7.921   6.700  70.741  1.00  0.00    -0.111 C  
HETATM    2  C   UNL     1      -8.476   6.887  72.174  1.00  0.00    -0.114 C  
HETATM    3  C   UNL     1      -9.255   8.223  72.200  1.00  0.00    -0.222 C  
HETATM    4  N   UNL     1     -10.441   8.145  71.336  1.00  0.00    -0.207 NA 
HETATM    5  C   UNL     1      -9.727   5.898  74.184  1.00  0.00    -0.191 C  
HETATM    6  C   UNL     1     -11.356   7.099  71.801  1.00  0.00    -0.252 C  
HETATM    7  C   UNL     1     -10.687   5.728  71.855  1.00  0.00    -0.297 C  
HETATM    8  C   UNL     1      -9.376   5.696  72.686  1.00  0.00    -0.148 C  
ENDROOT
BRANCH   4   9
HETATM    9  C   UNL     1     -11.097   9.452  71.207  1.00  0.00    -0.376 C  
HETATM   10  C   UNL     1     -11.232   9.950  69.755  1.00  0.00    -0.279 C  
HETATM   11  C   UNL     1     -11.977  11.277  69.744  1.00  0.00    -0.360 C  
HETATM   12  N   UNL     1     -11.335  12.355  70.327  1.00  0.00    -0.384 N  
HETATM   13  O   UNL     1     -13.090  11.374  69.243  1.00  0.00     0.437 OA 
HETATM   14  C   UNL     1      -9.883  10.036  69.014  1.00  0.00    -0.203 C  
HETATM   15  H   UNL     1     -10.392  12.263  70.704  1.00  0.00     0.000 HD 
BRANCH  14  16
HETATM   16  C   UNL     1     -10.058  10.303  67.535  1.00  0.00    -0.239 A  
HETATM   17  C   UNL     1     -10.685  11.798  65.725  1.00  0.00    -0.328 A  
HETATM   18  C   UNL     1     -10.594  11.521  67.091  1.00  0.00    -0.273 A  
HETATM   19  C   UNL     1      -9.638   9.363  66.584  1.00  0.00    -0.250 A  
HETATM   20  C   UNL     1     -10.240  10.864  64.791  1.00  0.00    -0.398 A  
HETATM   21  C   UNL     1      -9.723   9.645  65.222  1.00  0.00    -0.330 A  
ENDBRANCH  14  16
BRANCH  12  22
HETATM   22  C   UNL     1     -12.053  13.633  70.386  1.00  0.00    -0.351 C  
HETATM   23  O   UNL     1     -10.263  14.290  68.916  1.00  0.00    -0.235 OA 
HETATM   24  O   UNL     1     -11.664  15.912  69.639  1.00  0.00    -0.333 OA 
HETATM   25  C   UNL     1     -11.325  14.738  69.632  1.00  0.00    -0.283 C  
ENDBRANCH  12  22
ENDBRANCH   4   9
BRANCH   8  26
HETATM   26  C   UNL     1      -8.700   4.304  72.603  1.00  0.00    -0.110 A  
HETATM   27  C   UNL     1      -8.143   2.268  71.385  1.00  0.00    -0.050 A  
HETATM   28  C   UNL     1      -8.022   3.754  73.711  1.00  0.00    -0.086 A  
HETATM   29  O   UNL     1      -8.215   1.495  70.264  1.00  0.00    -0.041 OA 
HETATM   30  C   UNL     1      -7.515   1.731  72.497  1.00  0.00    -0.035 A  
HETATM   31  H   UNL     1      -7.836   0.624  70.243  1.00  0.00     0.000 HD 
HETATM   32  C   UNL     1      -7.439   2.485  73.661  1.00  0.00    -0.045 A  
HETATM   33  C   UNL     1      -8.699   3.549  71.416  1.00  0.00    -0.125 A  
ENDBRANCH   8  26
TORSDOF 4
ENDMDL
MODEL       73
REMARK 921   NORMALIZED FREE ENERGY PREDICTED BY IDOCK:   -4.79 KCAL/MOL
REMARK 922        TOTAL FREE ENERGY PREDICTED BY IDOCK:   -6.52 KCAL/MOL
REMARK 923 INTER-LIGAND FREE ENERGY PREDICTED BY IDOCK:   -6.65 KCAL/MOL
REMARK 924 INTRA-LIGAND FREE ENERGY PREDICTED BY IDOCK:    0.13 KCAL/MOL
REMARK 927      BINDING AFFINITY PREDICTED BY RF-SCORE:    0.00 PKD
ROOT
HETATM    1  C   UNL     1     -10.155   7.538  67.639  1.00  0.00    -0.243 C  
HETATM    2  C   UNL     1      -8.636   7.616  67.930  1.00  0.00    -0.122 C  
HETATM    3  C   UNL     1      -8.231   9.108  67.894  1.00  0.00    -0.112 C  
HETATM    4  N   UNL     1      -8.871   9.842  68.995  1.00  0.00    -0.146 NA 
HETATM    5  C   UNL     1      -6.648   6.915  69.394  1.00  0.00    -0.048 C  
HETATM    6  C   UNL     1      -8.449   9.309  70.292  1.00  0.00    -0.203 C  
HETATM    7  C   UNL     1      -8.762   7.822  70.436  1.00  0.00    -0.139 C  
HETATM    8  C   UNL     1      -8.197   6.942  69.289  1.00  0.00    -0.125 C  
ENDROOT
BRANCH   4   9
HETATM    9  C   UNL     1      -8.643  11.288  68.877  1.00  0.00    -0.051 C  
HETATM   10  C   UNL     1      -9.545  11.987  67.841  1.00  0.00    -0.196 C  
HETATM   11  C   UNL     1      -9.261  13.483  67.853  1.00  0.00    -0.211 C  
HETATM   12  N   UNL     1      -8.011  13.881  67.416  1.00  0.00    -0.220 N  
HETATM   13  O   UNL     1     -10.105  14.283  68.234  1.00  0.00    -0.225 OA 
HETATM   14  C   UNL     1      -9.426  11.386  66.427  1.00  0.00    -0.224 C  
HETATM   15  H   UNL     1      -7.335  13.202  67.066  1.00  0.00     0.000 HD 
BRANCH  14  16
HETATM   16  C   UNL     1     -10.478  11.927  65.483  1.00  0.00    -0.309 A  
HETATM   17  C   UNL     1     -11.356  12.179  63.232  1.00  0.00    -0.410 A  
HETATM   18  C   UNL     1     -10.349  11.747  64.098  1.00  0.00    -0.376 A  
HETATM   19  C   UNL     1     -11.622  12.566  65.979  1.00  0.00    -0.456 A  
HETATM   20  C   UNL     1     -12.501  12.791  63.741  1.00  0.00    -0.474 A  
HETATM   21  C   UNL     1     -12.629  12.989  65.113  1.00  0.00    -0.530 A  
ENDBRANCH  14  16
BRANCH  12  22
HETATM   22  C   UNL     1      -7.687  15.311  67.473  1.00  0.00    -0.176 C  
HETATM   23  O   UNL     1      -7.145  14.727  69.744  1.00  0.00    -0.171 OA 
HETATM   24  O   UNL     1      -7.094  16.920  69.194  1.00  0.00    -0.228 OA 
HETATM   25  C   UNL     1      -7.291  15.757  68.873  1.00  0.00    -0.162 C  
ENDBRANCH  12  22
ENDBRANCH   4   9
BRANCH   8  26
HETATM   26  C   UNL     1      -8.648   5.468  69.445  1.00  0.00    -0.104 A  
HETATM   27  C   UNL     1      -9.381   3.592  70.817  1.00  0.00    -0.155 A  
HETATM   28  C   UNL     1      -8.718   4.603  68.333  1.00  0.00    -0.111 A  
HETATM   29  O   UNL     1      -9.681   3.054  72.034  1.00  0.00    -0.138 OA 
HETATM   30  C   UNL     1      -9.405   2.750  69.718  1.00  0.00    -0.199 A  
HETATM   31  H   UNL     1      -9.910   2.136  72.121  1.00  0.00     0.000 HD 
HETATM   32  C   UNL     1      -9.088   3.262  68.466  1.00  0.00    -0.210 A  
HETATM   33  C   UNL     1      -9.044   4.941  70.688  1.00  0.00    -0.174 A  
ENDBRANCH   8  26
TORSDOF 4
ENDMDL
MODEL       74
REMARK 921   NORMALIZED FREE ENERGY PREDICTED BY IDOCK:   -4.69 KCAL/MOL
REMARK 922        TOTAL FREE ENERGY PREDICTED BY IDOCK:   -6.40 KCAL/MOL
REMARK 923 INTER-LIGAND FREE ENERGY PREDICTED BY IDOCK:   -5.45 KCAL/MOL
REMARK 924 INTRA-LIGAND FREE ENERGY PREDICTED BY IDOCK:   -0.94 KCAL/MOL
REMARK 927      BINDING AFFINITY PREDICTED BY RF-SCORE:    0.00 PKD
ROOT
HETATM    1  C   UNL     1      -9.544   9.616  64.984  1.00  0.00    -0.284 C  
HETATM    2  C   UNL     1      -8.002   9.484  65.014  1.00  0.00    -0.119 C  
HETATM    3  C   UNL     1      -7.431  10.821  65.541  1.00  0.00     0.007 C  
HETATM    4  N   UNL     1      -7.825  11.033  66.942  1.00  0.00    -0.133 NA 
HETATM    5  C   UNL     1      -5.934   8.118  65.679  1.00  0.00    -0.041 C  
HETATM    6  C   UNL     1      -7.300   9.967  67.798  1.00  0.00    -0.089 C  
HETATM    7  C   UNL     1      -7.766   8.584  67.353  1.00  0.00    -0.098 C  
HETATM    8  C   UNL     1      -7.468   8.265  65.863  1.00  0.00    -0.081 C  
ENDROOT
BRANCH   4   9
HETATM    9  C   UNL     1      -7.445  12.372  67.408  1.00  0.00    -0.157 C  
HETATM   10  C   UNL     1      -8.474  13.029  68.349  1.00  0.00    -0.118 C  
HETATM   11  C   UNL     1      -7.945  14.379  68.811  1.00  0.00    -0.133 C  
HETATM   12  N   UNL     1      -7.816  15.360  67.845  1.00  0.00    -0.127 N  
HETATM   13  O   UNL     1      -7.650  14.575  69.983  1.00  0.00     0.114 OA 
HETATM   14  C   UNL     1      -9.881  13.140  67.728  1.00  0.00    -0.228 C  
HETATM   15  H   UNL     1      -8.105  15.190  66.881  1.00  0.00     0.000 HD 
BRANCH  14  16
HETATM   16  C   UNL     1     -10.921  13.571  68.739  1.00  0.00    -0.291 A  
HETATM   17  C   UNL     1     -12.228  13.121  70.737  1.00  0.00    -0.375 A  
HETATM   18  C   UNL     1     -11.325  12.697  69.759  1.00  0.00    -0.108 A  
HETATM   19  C   UNL     1     -11.455  14.866  68.707  1.00  0.00    -0.328 A  
HETATM   20  C   UNL     1     -12.733  14.420  70.707  1.00  0.00    -0.427 A  
HETATM   21  C   UNL     1     -12.350  15.289  69.689  1.00  0.00    -0.245 A  
ENDBRANCH  14  16
BRANCH  12  22
HETATM   22  C   UNL     1      -7.252  16.653  68.249  1.00  0.00    -0.169 C  
HETATM   23  O   UNL     1      -9.581  17.152  68.592  1.00  0.00    -0.264 OA 
HETATM   24  O   UNL     1      -8.109  18.854  68.814  1.00  0.00    -0.344 OA 
HETATM   25  C   UNL     1      -8.330  17.678  68.571  1.00  0.00    -0.291 C  
ENDBRANCH  12  22
ENDBRANCH   4   9
BRANCH   8  26
HETATM   26  C   UNL     1      -8.066   6.894  65.458  1.00  0.00    -0.132 A  
HETATM   27  C   UNL     1      -9.447   4.942  65.929  1.00  0.00    -0.164 A  
HETATM   28  C   UNL     1      -7.752   6.297  64.219  1.00  0.00    -0.107 A  
HETATM   29  O   UNL     1     -10.258   4.232  66.766  1.00  0.00    -0.284 OA 
HETATM   30  C   UNL     1      -9.094   4.356  64.725  1.00  0.00    -0.152 A  
HETATM   31  H   UNL     1     -10.580   3.372  66.523  1.00  0.00     0.000 HD 
HETATM   32  C   UNL     1      -8.256   5.044  63.858  1.00  0.00    -0.125 A  
HETATM   33  C   UNL     1      -8.974   6.207  66.285  1.00  0.00    -0.162 A  
ENDBRANCH   8  26
TORSDOF 4
ENDMDL
MODEL       75
REMARK 921   NORMALIZED FREE ENERGY PREDICTED BY IDOCK:   -4.67 KCAL/MOL
REMARK 922        TOTAL FREE ENERGY PREDICTED BY IDOCK:   -6.37 KCAL/MOL
REMARK 923 INTER-LIGAND FREE ENERGY PREDICTED BY IDOCK:   -6.14 KCAL/MOL
REMARK 924 INTRA-LIGAND FREE ENERGY PREDICTED BY IDOCK:   -0.24 KCAL/MOL
REMARK 927      BINDING AFFINITY PREDICTED BY RF-SCORE:    0.00 PKD
ROOT
HETATM    1  C   UNL     1     -11.839  11.317  68.643  1.00  0.00    -0.369 C  
HETATM    2  C   UNL     1     -10.337  10.950  68.547  1.00  0.00    -0.203 C  
HETATM    3  C   UNL     1     -10.146   9.587  69.252  1.00  0.00    -0.198 C  
HETATM    4  N   UNL     1     -10.849   8.525  68.518  1.00  0.00    -0.014 NA 
HETATM    5  C   UNL     1      -8.229  10.716  67.104  1.00  0.00    -0.121 C  
HETATM    6  C   UNL     1     -10.318   8.390  67.159  1.00  0.00    -0.311 C  
HETATM    7  C   UNL     1     -10.416   9.692  66.368  1.00  0.00    -0.181 C  
HETATM    8  C   UNL     1      -9.768  10.912  67.075  1.00  0.00    -0.203 C  
ENDROOT
BRANCH   4   9
HETATM    9  C   UNL     1     -10.829   7.258  69.260  1.00  0.00    -0.159 C  
HETATM   10  C   UNL     1      -9.884   7.255  70.478  1.00  0.00    -0.183 C  
HETATM   11  C   UNL     1      -9.995   5.918  71.198  1.00  0.00    -0.189 C  
HETATM   12  N   UNL     1      -9.539   4.805  70.516  1.00  0.00    -0.171 N  
HETATM   13  O   UNL     1     -10.466   5.845  72.325  1.00  0.00    -0.194 OA 
HETATM   14  C   UNL     1      -8.426   7.599  70.116  1.00  0.00    -0.138 C  
HETATM   15  H   UNL     1      -9.113   4.892  69.593  1.00  0.00     0.000 HD 
BRANCH  14  16
HETATM   16  C   UNL     1      -7.567   7.815  71.342  1.00  0.00    -0.081 A  
HETATM   17  C   UNL     1      -5.374   8.056  72.360  1.00  0.00    -0.036 A  
HETATM   18  C   UNL     1      -6.168   7.781  71.244  1.00  0.00    -0.035 A  
HETATM   19  C   UNL     1      -8.151   8.108  72.582  1.00  0.00    -0.215 A  
HETATM   20  C   UNL     1      -5.968   8.370  73.582  1.00  0.00    -0.113 A  
HETATM   21  C   UNL     1      -7.356   8.390  73.692  1.00  0.00    -0.131 A  
ENDBRANCH  14  16
BRANCH  12  22
HETATM   22  C   UNL     1      -9.688   3.495  71.160  1.00  0.00    -0.167 C  
HETATM   23  O   UNL     1      -7.292   3.514  70.929  1.00  0.00    -0.037 OA 
HETATM   24  O   UNL     1      -8.251   1.604  71.668  1.00  0.00    -0.040 OA 
HETATM   25  C   UNL     1      -8.363   2.756  71.277  1.00  0.00    -0.062 C  
ENDBRANCH  12  22
ENDBRANCH   4   9
BRANCH   8  26
HETATM   26  C   UNL     1     -10.004  12.212  66.266  1.00  0.00    -0.249 A  
HETATM   27  C   UNL     1     -10.978  13.408  64.379  1.00  0.00    -0.395 A  
HETATM   28  C   UNL     1      -9.422  13.435  66.662  1.00  0.00    -0.264 A  
HETATM   29  O   UNL     1     -11.711  13.420  63.228  1.00  0.00    -0.716 OA 
HETATM   30  C   UNL     1     -10.365  14.589  64.764  1.00  0.00    -0.319 A  
HETATM   31  H   UNL     1     -11.808  14.215  62.717  1.00  0.00     0.000 HD 
HETATM   32  C   UNL     1      -9.598  14.607  65.921  1.00  0.00    -0.303 A  
HETATM   33  C   UNL     1     -10.835  12.240  65.131  1.00  0.00    -0.340 A  
ENDBRANCH   8  26
TORSDOF 4
ENDMDL
MODEL       76
REMARK 921   NORMALIZED FREE ENERGY PREDICTED BY IDOCK:   -4.62 KCAL/MOL
REMARK 922        TOTAL FREE ENERGY PREDICTED BY IDOCK:   -6.31 KCAL/MOL
REMARK 923 INTER-LIGAND FREE ENERGY PREDICTED BY IDOCK:   -6.19 KCAL/MOL
REMARK 924 INTRA-LIGAND FREE ENERGY PREDICTED BY IDOCK:   -0.12 KCAL/MOL
REMARK 927      BINDING AFFINITY PREDICTED BY RF-SCORE:    0.00 PKD
ROOT
HETATM    1  C   UNL     1     -11.492  12.204  69.015  1.00  0.00    -0.351 C  
HETATM    2  C   UNL     1     -10.063  12.179  68.420  1.00  0.00    -0.210 C  
HETATM    3  C   UNL     1      -9.250  11.125  69.209  1.00  0.00     0.163 C  
HETATM    4  N   UNL     1      -9.788   9.778  68.975  1.00  0.00    -0.173 NA 
HETATM    5  C   UNL     1      -8.556  12.067  66.346  1.00  0.00    -0.037 C  
HETATM    6  C   UNL     1      -9.701   9.421  67.557  1.00  0.00    -0.157 C  
HETATM    7  C   UNL     1     -10.439  10.415  66.664  1.00  0.00    -0.279 C  
HETATM    8  C   UNL     1     -10.007  11.892  66.869  1.00  0.00    -0.219 C  
ENDROOT
BRANCH   4   9
HETATM    9  C   UNL     1      -9.146   8.786  69.847  1.00  0.00    -0.157 C  
HETATM   10  C   UNL     1      -8.816   7.452  69.150  1.00  0.00    -0.136 C  
HETATM   11  C   UNL     1      -8.103   6.533  70.132  1.00  0.00    -0.121 C  
HETATM   12  N   UNL     1      -8.842   6.083  71.211  1.00  0.00    -0.136 N  
HETATM   13  O   UNL     1      -6.933   6.215  69.966  1.00  0.00    -0.065 OA 
HETATM   14  C   UNL     1     -10.047   6.777  68.514  1.00  0.00    -0.166 C  
HETATM   15  H   UNL     1      -9.828   6.327  71.311  1.00  0.00     0.000 HD 
BRANCH  14  16
HETATM   16  C   UNL     1      -9.669   5.597  67.645  1.00  0.00    -0.135 A  
HETATM   17  C   UNL     1      -9.206   4.663  65.450  1.00  0.00    -0.155 A  
HETATM   18  C   UNL     1      -9.628   5.729  66.249  1.00  0.00    -0.159 A  
HETATM   19  C   UNL     1      -9.301   4.374  68.220  1.00  0.00    -0.199 A  
HETATM   20  C   UNL     1      -8.818   3.459  66.038  1.00  0.00    -0.136 A  
HETATM   21  C   UNL     1      -8.872   3.315  67.421  1.00  0.00    -0.155 A  
ENDBRANCH  14  16
BRANCH  12  22
HETATM   22  C   UNL     1      -8.165   5.245  72.207  1.00  0.00    -0.118 C  
HETATM   23  O   UNL     1      -8.794   7.073  73.640  1.00  0.00    -0.132 OA 
HETATM   24  O   UNL     1      -7.461   5.472  74.520  1.00  0.00    -0.084 OA 
HETATM   25  C   UNL     1      -8.081   5.921  73.568  1.00  0.00    -0.111 C  
ENDBRANCH  12  22
ENDBRANCH   4   9
BRANCH   8  26
HETATM   26  C   UNL     1     -10.874  12.848  66.012  1.00  0.00    -0.300 A  
HETATM   27  C   UNL     1     -11.184  14.934  64.790  1.00  0.00    -0.386 A  
HETATM   28  C   UNL     1     -12.205  12.523  65.674  1.00  0.00    -0.403 A  
HETATM   29  O   UNL     1     -10.722  16.146  64.369  1.00  0.00    -0.829 OA 
HETATM   30  C   UNL     1     -12.501  14.612  64.503  1.00  0.00    -0.312 A  
HETATM   31  H   UNL     1     -11.280  16.742  63.885  1.00  0.00     0.000 HD 
HETATM   32  C   UNL     1     -13.009  13.393  64.932  1.00  0.00    -0.177 A  
HETATM   33  C   UNL     1     -10.364  14.056  65.502  1.00  0.00    -0.354 A  
ENDBRANCH   8  26
TORSDOF 4
ENDMDL
MODEL       77
REMARK 921   NORMALIZED FREE ENERGY PREDICTED BY IDOCK:   -4.56 KCAL/MOL
REMARK 922        TOTAL FREE ENERGY PREDICTED BY IDOCK:   -6.23 KCAL/MOL
REMARK 923 INTER-LIGAND FREE ENERGY PREDICTED BY IDOCK:   -6.33 KCAL/MOL
REMARK 924 INTRA-LIGAND FREE ENERGY PREDICTED BY IDOCK:    0.10 KCAL/MOL
REMARK 927      BINDING AFFINITY PREDICTED BY RF-SCORE:    0.00 PKD
ROOT
HETATM    1  C   UNL     1     -10.228  12.414  64.280  1.00  0.00    -0.358 C  
HETATM    2  C   UNL     1     -10.586  11.846  65.676  1.00  0.00    -0.311 C  
HETATM    3  C   UNL     1     -10.252  10.336  65.662  1.00  0.00    -0.231 C  
HETATM    4  N   UNL     1      -8.803  10.130  65.523  1.00  0.00    -0.160 NA 
HETATM    5  C   UNL     1     -10.432  12.051  68.229  1.00  0.00    -0.218 C  
HETATM    6  C   UNL     1      -8.081  10.724  66.651  1.00  0.00    -0.142 C  
HETATM    7  C   UNL     1      -8.361  12.218  66.794  1.00  0.00    -0.087 C  
HETATM    8  C   UNL     1      -9.869  12.574  66.880  1.00  0.00    -0.229 C  
ENDROOT
BRANCH   4   9
HETATM    9  C   UNL     1      -8.480   8.710  65.331  1.00  0.00    -0.172 C  
HETATM   10  C   UNL     1      -9.074   7.777  66.405  1.00  0.00    -0.216 C  
HETATM   11  C   UNL     1      -8.725   6.334  66.068  1.00  0.00    -0.151 C  
HETATM   12  N   UNL     1      -7.389   5.986  66.135  1.00  0.00    -0.079 N  
HETATM   13  O   UNL     1      -9.593   5.531  65.753  1.00  0.00    -0.121 OA 
HETATM   14  C   UNL     1      -8.652   8.155  67.839  1.00  0.00    -0.132 C  
HETATM   15  H   UNL     1      -6.684   6.659  66.437  1.00  0.00     0.000 HD 
BRANCH  14  16
HETATM   16  C   UNL     1      -9.421   7.378  68.886  1.00  0.00    -0.144 A  
HETATM   17  C   UNL     1     -11.469   6.301  69.624  1.00  0.00    -0.425 A  
HETATM   18  C   UNL     1     -10.779   7.083  68.695  1.00  0.00    -0.225 A  
HETATM   19  C   UNL     1      -8.778   6.896  70.033  1.00  0.00    -0.142 A  
HETATM   20  C   UNL     1     -10.811   5.805  70.749  1.00  0.00    -0.330 A  
HETATM   21  C   UNL     1      -9.468   6.109  70.955  1.00  0.00    -0.187 A  
ENDBRANCH  14  16
BRANCH  12  22
HETATM   22  C   UNL     1      -7.015   4.618  65.756  1.00  0.00    -0.063 C  
HETATM   23  O   UNL     1      -6.286   5.757  63.765  1.00  0.00    -0.024 OA 
HETATM   24  O   UNL     1      -6.215   3.496  63.756  1.00  0.00    -0.018 OA 
HETATM   25  C   UNL     1      -6.477   4.540  64.334  1.00  0.00    -0.038 C  
ENDBRANCH  12  22
ENDBRANCH   4   9
BRANCH   8  26
HETATM   26  C   UNL     1     -10.077  14.109  66.911  1.00  0.00    -0.258 A  
HETATM   27  C   UNL     1     -10.482  16.186  68.120  1.00  0.00    -0.279 A  
HETATM   28  C   UNL     1     -10.083  14.871  65.724  1.00  0.00    -0.367 A  
HETATM   29  O   UNL     1     -10.718  16.859  69.283  1.00  0.00    -0.335 OA 
HETATM   30  C   UNL     1     -10.523  16.908  66.939  1.00  0.00    -0.271 A  
HETATM   31  H   UNL     1     -10.890  17.793  69.283  1.00  0.00     0.000 HD 
HETATM   32  C   UNL     1     -10.305  16.250  65.736  1.00  0.00    -0.393 A  
HETATM   33  C   UNL     1     -10.228  14.813  68.120  1.00  0.00    -0.228 A  
ENDBRANCH   8  26
TORSDOF 4
ENDMDL
MODEL       78
REMARK 921   NORMALIZED FREE ENERGY PREDICTED BY IDOCK:   -4.55 KCAL/MOL
REMARK 922        TOTAL FREE ENERGY PREDICTED BY IDOCK:   -6.22 KCAL/MOL
REMARK 923 INTER-LIGAND FREE ENERGY PREDICTED BY IDOCK:   -5.62 KCAL/MOL
REMARK 924 INTRA-LIGAND FREE ENERGY PREDICTED BY IDOCK:   -0.59 KCAL/MOL
REMARK 927      BINDING AFFINITY PREDICTED BY RF-SCORE:    0.00 PKD
ROOT
HETATM    1  C   UNL     1      -7.147   7.652  70.097  1.00  0.00    -0.059 C  
HETATM    2  C   UNL     1      -8.377   7.747  71.032  1.00  0.00    -0.114 C  
HETATM    3  C   UNL     1      -9.116   9.064  70.695  1.00  0.00    -0.235 C  
HETATM    4  N   UNL     1      -9.671   9.010  69.335  1.00  0.00    -0.166 NA 
HETATM    5  C   UNL     1     -10.448   6.622  72.048  1.00  0.00    -0.227 C  
HETATM    6  C   UNL     1     -10.643   7.922  69.211  1.00  0.00    -0.188 C  
HETATM    7  C   UNL     1     -10.039   6.564  69.557  1.00  0.00    -0.203 C  
HETATM    8  C   UNL     1      -9.356   6.511  70.950  1.00  0.00    -0.165 C  
ENDROOT
BRANCH   4   9
HETATM    9  C   UNL     1     -10.222  10.310  68.930  1.00  0.00    -0.205 C  
HETATM   10  C   UNL     1     -10.356  10.491  67.405  1.00  0.00    -0.269 C  
HETATM   11  C   UNL     1     -10.991  11.843  67.113  1.00  0.00    -0.269 C  
HETATM   12  N   UNL     1     -10.248  12.963  67.441  1.00  0.00    -0.228 N  
HETATM   13  O   UNL     1     -12.105  11.924  66.613  1.00  0.00    -0.587 OA 
HETATM   14  C   UNL     1      -9.025  10.300  66.651  1.00  0.00    -0.156 C  
HETATM   15  H   UNL     1      -9.305  12.875  67.820  1.00  0.00     0.000 HD 
BRANCH  14  16
HETATM   16  C   UNL     1      -9.218  10.254  65.151  1.00  0.00    -0.252 A  
HETATM   17  C   UNL     1      -9.653  11.393  63.049  1.00  0.00    -0.397 A  
HETATM   18  C   UNL     1      -9.549  11.419  64.442  1.00  0.00    -0.216 A  
HETATM   19  C   UNL     1      -9.016   9.064  64.441  1.00  0.00    -0.034 A  
HETATM   20  C   UNL     1      -9.424  10.207  62.352  1.00  0.00    -0.244 A  
HETATM   21  C   UNL     1      -9.112   9.043  63.050  1.00  0.00     0.251 A  
ENDBRANCH  14  16
BRANCH  12  22
HETATM   22  C   UNL     1     -10.858  14.280  67.226  1.00  0.00    -0.284 C  
HETATM   23  O   UNL     1     -10.944  14.229  69.631  1.00  0.00    -0.214 OA 
HETATM   24  O   UNL     1     -11.976  15.951  68.589  1.00  0.00    -0.338 OA 
HETATM   25  C   UNL     1     -11.332  14.914  68.526  1.00  0.00    -0.298 C  
ENDBRANCH  12  22
ENDBRANCH   4   9
BRANCH   8  26
HETATM   26  C   UNL     1      -8.673   5.140  71.182  1.00  0.00    -0.139 A  
HETATM   27  C   UNL     1      -8.008   3.304  72.640  1.00  0.00    -0.068 A  
HETATM   28  C   UNL     1      -8.040   4.451  70.127  1.00  0.00    -0.059 A  
HETATM   29  O   UNL     1      -7.945   2.729  73.876  1.00  0.00    -0.058 OA 
HETATM   30  C   UNL     1      -7.358   2.664  71.599  1.00  0.00    -0.040 A  
HETATM   31  H   UNL     1      -7.482   1.911  74.013  1.00  0.00     0.000 HD 
HETATM   32  C   UNL     1      -7.389   3.231  70.332  1.00  0.00    -0.040 A  
HETATM   33  C   UNL     1      -8.689   4.507  72.439  1.00  0.00    -0.124 A  
ENDBRANCH   8  26
TORSDOF 4
ENDMDL
MODEL       79
REMARK 921   NORMALIZED FREE ENERGY PREDICTED BY IDOCK:   -4.50 KCAL/MOL
REMARK 922        TOTAL FREE ENERGY PREDICTED BY IDOCK:   -6.16 KCAL/MOL
REMARK 923 INTER-LIGAND FREE ENERGY PREDICTED BY IDOCK:   -5.94 KCAL/MOL
REMARK 924 INTRA-LIGAND FREE ENERGY PREDICTED BY IDOCK:   -0.22 KCAL/MOL
REMARK 927      BINDING AFFINITY PREDICTED BY RF-SCORE:    0.00 PKD
ROOT
HETATM    1  C   UNL     1     -10.395  11.918  67.669  1.00  0.00    -0.217 C  
HETATM    2  C   UNL     1     -11.508  10.953  68.147  1.00  0.00    -0.368 C  
HETATM    3  C   UNL     1     -11.092   9.522  67.734  1.00  0.00     0.034 C  
HETATM    4  N   UNL     1      -9.884   9.106  68.461  1.00  0.00    -0.159 NA 
HETATM    5  C   UNL     1     -13.059  10.163  70.033  1.00  0.00     0.349 C  
HETATM    6  C   UNL     1     -10.125   9.088  69.905  1.00  0.00    -0.201 C  
HETATM    7  C   UNL     1     -10.581  10.446  70.433  1.00  0.00    -0.107 C  
HETATM    8  C   UNL     1     -11.816  11.029  69.694  1.00  0.00    -0.414 C  
ENDROOT
BRANCH   4   9
HETATM    9  C   UNL     1      -9.371   7.825  67.958  1.00  0.00    -0.141 C  
HETATM   10  C   UNL     1      -8.362   7.960  66.800  1.00  0.00    -0.120 C  
HETATM   11  C   UNL     1      -7.858   6.579  66.407  1.00  0.00    -0.104 C  
HETATM   12  N   UNL     1      -8.782   5.717  65.844  1.00  0.00    -0.143 N  
HETATM   13  O   UNL     1      -6.691   6.257  66.586  1.00  0.00    -0.056 OA 
HETATM   14  C   UNL     1      -8.924   8.737  65.593  1.00  0.00    -0.248 C  
HETATM   15  H   UNL     1      -9.741   6.017  65.667  1.00  0.00     0.000 HD 
BRANCH  14  16
HETATM   16  C   UNL     1      -7.855   9.057  64.570  1.00  0.00    -0.123 A  
HETATM   17  C   UNL     1      -6.890   8.733  62.364  1.00  0.00    -0.094 A  
HETATM   18  C   UNL     1      -7.829   8.386  63.338  1.00  0.00    -0.152 A  
HETATM   19  C   UNL     1      -6.911  10.063  64.813  1.00  0.00    -0.137 A  
HETATM   20  C   UNL     1      -5.972   9.754  62.609  1.00  0.00    -0.102 A  
HETATM   21  C   UNL     1      -5.980  10.413  63.835  1.00  0.00    -0.104 A  
ENDBRANCH  14  16
BRANCH  12  22
HETATM   22  C   UNL     1      -8.340   4.358  65.511  1.00  0.00    -0.114 C  
HETATM   23  O   UNL     1      -9.781   3.825  67.364  1.00  0.00    -0.197 OA 
HETATM   24  O   UNL     1      -8.545   2.145  66.491  1.00  0.00    -0.100 OA 
HETATM   25  C   UNL     1      -8.872   3.322  66.491  1.00  0.00    -0.142 C  
ENDBRANCH  12  22
ENDBRANCH   4   9
BRANCH   8  26
HETATM   26  C   UNL     1     -12.150  12.452  70.209  1.00  0.00    -0.377 A  
HETATM   27  C   UNL     1     -13.332  13.954  71.720  1.00  0.00    -0.381 A  
HETATM   28  C   UNL     1     -11.590  13.597  69.606  1.00  0.00    -0.342 A  
HETATM   29  O   UNL     1     -14.215  14.165  72.738  1.00  0.00    -0.556 OA 
HETATM   30  C   UNL     1     -12.801  15.066  71.088  1.00  0.00    -0.441 A  
HETATM   31  H   UNL     1     -14.446  15.044  73.012  1.00  0.00     0.000 HD 
HETATM   32  C   UNL     1     -11.912  14.887  70.037  1.00  0.00    -0.377 A  
HETATM   33  C   UNL     1     -12.990  12.661  71.317  1.00  0.00    -0.306 A  
ENDBRANCH   8  26
TORSDOF 4
ENDMDL
MODEL       80
REMARK 921   NORMALIZED FREE ENERGY PREDICTED BY IDOCK:   -4.50 KCAL/MOL
REMARK 922        TOTAL FREE ENERGY PREDICTED BY IDOCK:   -6.15 KCAL/MOL
REMARK 923 INTER-LIGAND FREE ENERGY PREDICTED BY IDOCK:   -5.44 KCAL/MOL
REMARK 924 INTRA-LIGAND FREE ENERGY PREDICTED BY IDOCK:   -0.71 KCAL/MOL
REMARK 927      BINDING AFFINITY PREDICTED BY RF-SCORE:    0.00 PKD
ROOT
HETATM    1  C   UNL     1      -9.078   9.072  71.301  1.00  0.00    -0.302 C  
HETATM    2  C   UNL     1      -9.217   9.540  69.831  1.00  0.00    -0.242 C  
HETATM    3  C   UNL     1      -8.408   8.558  68.951  1.00  0.00    -0.118 C  
HETATM    4  N   UNL     1      -9.012   7.218  68.986  1.00  0.00    -0.135 NA 
HETATM    5  C   UNL     1     -10.739  10.306  67.912  1.00  0.00    -0.310 C  
HETATM    6  C   UNL     1     -10.378   7.248  68.460  1.00  0.00    -0.189 C  
HETATM    7  C   UNL     1     -11.273   8.218  69.228  1.00  0.00     0.277 C  
HETATM    8  C   UNL     1     -10.708   9.660  69.324  1.00  0.00    -0.246 C  
ENDROOT
BRANCH   4   9
HETATM    9  C   UNL     1      -8.165   6.233  68.303  1.00  0.00    -0.115 C  
HETATM   10  C   UNL     1      -7.613   6.708  66.945  1.00  0.00    -0.095 C  
HETATM   11  C   UNL     1      -6.706   5.632  66.365  1.00  0.00    -0.057 C  
HETATM   12  N   UNL     1      -7.309   4.443  65.996  1.00  0.00    -0.076 N  
HETATM   13  O   UNL     1      -5.503   5.819  66.237  1.00  0.00    -0.012 OA 
HETATM   14  C   UNL     1      -8.716   7.131  65.955  1.00  0.00    -0.162 C  
HETATM   15  H   UNL     1      -8.319   4.320  66.074  1.00  0.00     0.000 HD 
BRANCH  14  16
HETATM   16  C   UNL     1      -8.153   7.806  64.723  1.00  0.00    -0.131 A  
HETATM   17  C   UNL     1      -7.552   7.728  62.370  1.00  0.00    -0.112 A  
HETATM   18  C   UNL     1      -8.000   7.087  63.528  1.00  0.00    -0.070 A  
HETATM   19  C   UNL     1      -7.827   9.168  64.740  1.00  0.00    -0.119 A  
HETATM   20  C   UNL     1      -7.256   9.090  62.394  1.00  0.00    -0.097 A  
HETATM   21  C   UNL     1      -7.388   9.807  63.581  1.00  0.00    -0.121 A  
ENDBRANCH  14  16
BRANCH  12  22
HETATM   22  C   UNL     1      -6.452   3.365  65.490  1.00  0.00    -0.032 C  
HETATM   23  O   UNL     1      -8.312   3.082  63.989  1.00  0.00    -0.085 OA 
HETATM   24  O   UNL     1      -6.667   1.533  63.910  1.00  0.00    -0.021 OA 
HETATM   25  C   UNL     1      -7.133   2.551  64.399  1.00  0.00    -0.049 C  
ENDBRANCH  12  22
ENDBRANCH   4   9
BRANCH   8  26
HETATM   26  C   UNL     1     -11.613  10.554  70.208  1.00  0.00    -0.417 A  
HETATM   27  C   UNL     1     -12.454  12.740  70.880  1.00  0.00    -0.283 A  
HETATM   28  C   UNL     1     -12.437   9.997  71.208  1.00  0.00    -0.494 A  
HETATM   29  O   UNL     1     -12.458  14.100  70.767  1.00  0.00    -0.321 OA 
HETATM   30  C   UNL     1     -13.225  12.176  71.882  1.00  0.00    -0.474 A  
HETATM   31  H   UNL     1     -12.982  14.639  71.347  1.00  0.00     0.000 HD 
HETATM   32  C   UNL     1     -13.230  10.796  72.037  1.00  0.00    -0.466 A  
HETATM   33  C   UNL     1     -11.683  11.948  70.027  1.00  0.00    -0.366 A  
ENDBRANCH   8  26
TORSDOF 4
ENDMDL
MODEL       81
REMARK 921   NORMALIZED FREE ENERGY PREDICTED BY IDOCK:   -4.47 KCAL/MOL
REMARK 922        TOTAL FREE ENERGY PREDICTED BY IDOCK:   -6.12 KCAL/MOL
REMARK 923 INTER-LIGAND FREE ENERGY PREDICTED BY IDOCK:   -5.61 KCAL/MOL
REMARK 924 INTRA-LIGAND FREE ENERGY PREDICTED BY IDOCK:   -0.51 KCAL/MOL
REMARK 927      BINDING AFFINITY PREDICTED BY RF-SCORE:    0.00 PKD
ROOT
HETATM    1  C   UNL     1     -10.960  11.799  68.633  1.00  0.00    -0.269 C  
HETATM    2  C   UNL     1      -9.451  11.820  68.288  1.00  0.00    -0.193 C  
HETATM    3  C   UNL     1      -9.024  10.366  67.981  1.00  0.00    -0.129 C  
HETATM    4  N   UNL     1      -9.690   9.879  66.764  1.00  0.00    -0.182 NA 
HETATM    5  C   UNL     1      -7.524  12.869  66.956  1.00  0.00     0.096 C  
HETATM    6  C   UNL     1      -9.319  10.694  65.605  1.00  0.00    -0.201 C  
HETATM    7  C   UNL     1      -9.659  12.169  65.803  1.00  0.00    -0.209 C  
HETATM    8  C   UNL     1      -9.068  12.786  67.099  1.00  0.00    -0.219 C  
ENDROOT
BRANCH   4   9
HETATM    9  C   UNL     1      -9.437   8.448  66.552  1.00  0.00    -0.220 C  
HETATM   10  C   UNL     1     -10.032   7.534  67.642  1.00  0.00    -0.219 C  
HETATM   11  C   UNL     1      -9.760   6.080  67.283  1.00  0.00    -0.125 C  
HETATM   12  N   UNL     1      -8.438   5.673  67.299  1.00  0.00    -0.107 N  
HETATM   13  O   UNL     1     -10.674   5.318  66.996  1.00  0.00    -0.229 OA 
HETATM   14  C   UNL     1      -9.542   7.883  69.061  1.00  0.00    -0.155 C  
HETATM   15  H   UNL     1      -7.694   6.312  67.579  1.00  0.00     0.000 HD 
BRANCH  14  16
HETATM   16  C   UNL     1     -10.305   7.133  70.131  1.00  0.00    -0.218 A  
HETATM   17  C   UNL     1     -10.339   5.548  71.972  1.00  0.00    -0.265 A  
HETATM   18  C   UNL     1      -9.655   6.185  70.935  1.00  0.00    -0.193 A  
HETATM   19  C   UNL     1     -11.657   7.411  70.373  1.00  0.00    -0.210 A  
HETATM   20  C   UNL     1     -11.678   5.853  72.218  1.00  0.00    -0.309 A  
HETATM   21  C   UNL     1     -12.336   6.780  71.414  1.00  0.00    -0.403 A  
ENDBRANCH  14  16
BRANCH  12  22
HETATM   22  C   UNL     1      -8.139   4.293  66.899  1.00  0.00    -0.101 C  
HETATM   23  O   UNL     1      -7.544   4.133  69.226  1.00  0.00    -0.054 OA 
HETATM   24  O   UNL     1      -7.088   2.351  67.911  1.00  0.00    -0.047 OA 
HETATM   25  C   UNL     1      -7.529   3.483  68.035  1.00  0.00    -0.061 C  
ENDBRANCH  12  22
ENDBRANCH   4   9
BRANCH   8  26
HETATM   26  C   UNL     1      -9.545  14.248  67.286  1.00  0.00    -0.232 A  
HETATM   27  C   UNL     1      -9.294  16.470  68.254  1.00  0.00    -0.217 A  
HETATM   28  C   UNL     1     -10.723  14.718  66.667  1.00  0.00    -0.309 A  
HETATM   29  O   UNL     1      -8.631  17.350  69.059  1.00  0.00    -0.189 OA 
HETATM   30  C   UNL     1     -10.474  16.899  67.669  1.00  0.00    -0.332 A  
HETATM   31  H   UNL     1      -8.961  18.229  69.202  1.00  0.00     0.000 HD 
HETATM   32  C   UNL     1     -11.183  16.023  66.857  1.00  0.00     0.065 A  
HETATM   33  C   UNL     1      -8.809  15.178  68.043  1.00  0.00    -0.170 A  
ENDBRANCH   8  26
TORSDOF 4
ENDMDL
MODEL       82
REMARK 921   NORMALIZED FREE ENERGY PREDICTED BY IDOCK:   -4.41 KCAL/MOL
REMARK 922        TOTAL FREE ENERGY PREDICTED BY IDOCK:   -6.05 KCAL/MOL
REMARK 923 INTER-LIGAND FREE ENERGY PREDICTED BY IDOCK:   -5.98 KCAL/MOL
REMARK 924 INTRA-LIGAND FREE ENERGY PREDICTED BY IDOCK:   -0.07 KCAL/MOL
REMARK 927      BINDING AFFINITY PREDICTED BY RF-SCORE:    0.00 PKD
ROOT
HETATM    1  C   UNL     1      -8.990  10.235  65.326  1.00  0.00    -0.214 C  
HETATM    2  C   UNL     1      -9.970  10.181  66.524  1.00  0.00    -0.283 C  
HETATM    3  C   UNL     1      -9.286   9.368  67.648  1.00  0.00    -0.127 C  
HETATM    4  N   UNL     1      -8.102  10.079  68.152  1.00  0.00    -0.107 NA 
HETATM    5  C   UNL     1     -11.545  11.427  68.123  1.00  0.00    -0.364 C  
HETATM    6  C   UNL     1      -8.475  11.376  68.720  1.00  0.00    -0.089 C  
HETATM    7  C   UNL     1      -9.198  12.264  67.710  1.00  0.00    -0.191 C  
HETATM    8  C   UNL     1     -10.434  11.596  67.051  1.00  0.00    -0.258 C  
ENDROOT
BRANCH   4   9
HETATM    9  C   UNL     1      -7.339   9.249  69.092  1.00  0.00    -0.071 C  
HETATM   10  C   UNL     1      -7.487   7.732  68.860  1.00  0.00    -0.095 C  
HETATM   11  C   UNL     1      -6.608   6.982  69.850  1.00  0.00    -0.044 C  
HETATM   12  N   UNL     1      -6.958   7.074  71.185  1.00  0.00    -0.061 N  
HETATM   13  O   UNL     1      -5.641   6.334  69.472  1.00  0.00    -0.012 OA 
HETATM   14  C   UNL     1      -8.951   7.252  68.904  1.00  0.00    -0.133 C  
HETATM   15  H   UNL     1      -7.790   7.586  71.476  1.00  0.00     0.000 HD 
BRANCH  14  16
HETATM   16  C   UNL     1      -9.096   5.815  68.450  1.00  0.00    -0.118 A  
HETATM   17  C   UNL     1      -9.579   3.488  68.952  1.00  0.00    -0.140 A  
HETATM   18  C   UNL     1      -9.369   4.801  69.379  1.00  0.00    -0.197 A  
HETATM   19  C   UNL     1      -9.016   5.484  67.091  1.00  0.00    -0.112 A  
HETATM   20  C   UNL     1      -9.521   3.176  67.594  1.00  0.00    -0.202 A  
HETATM   21  C   UNL     1      -9.234   4.174  66.666  1.00  0.00    -0.164 A  
ENDBRANCH  14  16
BRANCH  12  22
HETATM   22  C   UNL     1      -6.094   6.411  72.169  1.00  0.00    -0.038 C  
HETATM   23  O   UNL     1      -8.195   5.425  72.809  1.00  0.00    -0.109 OA 
HETATM   24  O   UNL     1      -6.403   4.998  74.120  1.00  0.00    -0.058 OA 
HETATM   25  C   UNL     1      -6.886   5.550  73.143  1.00  0.00    -0.079 C  
ENDBRANCH  12  22
ENDBRANCH   4   9
BRANCH   8  26
HETATM   26  C   UNL     1     -11.047  12.512  65.962  1.00  0.00    -0.329 A  
HETATM   27  C   UNL     1     -11.119  14.613  64.730  1.00  0.00    -0.384 A  
HETATM   28  C   UNL     1     -12.151  12.092  65.190  1.00  0.00    -0.285 A  
HETATM   29  O   UNL     1     -10.655  15.876  64.504  1.00  0.00    -0.745 OA 
HETATM   30  C   UNL     1     -12.227  14.197  64.012  1.00  0.00    -0.369 A  
HETATM   31  H   UNL     1     -11.070  16.444  63.866  1.00  0.00     0.000 HD 
HETATM   32  C   UNL     1     -12.735  12.923  64.230  1.00  0.00    -0.286 A  
HETATM   33  C   UNL     1     -10.508  13.778  65.668  1.00  0.00    -0.312 A  
ENDBRANCH   8  26
TORSDOF 4
ENDMDL
MODEL       83
REMARK 921   NORMALIZED FREE ENERGY PREDICTED BY IDOCK:   -4.37 KCAL/MOL
REMARK 922        TOTAL FREE ENERGY PREDICTED BY IDOCK:   -6.00 KCAL/MOL
REMARK 923 INTER-LIGAND FREE ENERGY PREDICTED BY IDOCK:   -5.71 KCAL/MOL
REMARK 924 INTRA-LIGAND FREE ENERGY PREDICTED BY IDOCK:   -0.29 KCAL/MOL
REMARK 927      BINDING AFFINITY PREDICTED BY RF-SCORE:    0.00 PKD
ROOT
HETATM    1  C   UNL     1     -12.576  13.967  66.738  1.00  0.00    -0.103 C  
HETATM    2  C   UNL     1     -12.127  14.294  68.184  1.00  0.00    -0.275 C  
HETATM    3  C   UNL     1     -12.211  12.986  69.004  1.00  0.00    -0.044 C  
HETATM    4  N   UNL     1     -11.233  12.005  68.511  1.00  0.00    -0.233 NA 
HETATM    5  C   UNL     1     -10.414  15.391  69.749  1.00  0.00    -0.303 C  
HETATM    6  C   UNL     1      -9.868  12.516  68.647  1.00  0.00    -0.075 C  
HETATM    7  C   UNL     1      -9.667  13.835  67.905  1.00  0.00    -0.229 C  
HETATM    8  C   UNL     1     -10.689  14.938  68.289  1.00  0.00    -0.249 C  
ENDROOT
BRANCH   4   9
HETATM    9  C   UNL     1     -11.414  10.698  69.156  1.00  0.00    -0.280 C  
HETATM   10  C   UNL     1     -10.099  10.018  69.585  1.00  0.00    -0.263 C  
HETATM   11  C   UNL     1     -10.416   8.708  70.292  1.00  0.00    -0.210 C  
HETATM   12  N   UNL     1     -10.984   7.709  69.524  1.00  0.00    -0.415 N  
HETATM   13  O   UNL     1     -10.177   8.558  71.483  1.00  0.00    -0.208 OA 
HETATM   14  C   UNL     1      -9.109   9.823  68.420  1.00  0.00    -0.123 C  
HETATM   15  H   UNL     1     -11.140   7.839  68.524  1.00  0.00     0.000 HD 
BRANCH  14  16
HETATM   16  C   UNL     1      -7.746   9.369  68.897  1.00  0.00    -0.076 A  
HETATM   17  C   UNL     1      -5.799   7.938  68.649  1.00  0.00    -0.035 A  
HETATM   18  C   UNL     1      -7.088   8.307  68.259  1.00  0.00    -0.081 A  
HETATM   19  C   UNL     1      -7.097  10.036  69.944  1.00  0.00    -0.130 A  
HETATM   20  C   UNL     1      -5.154   8.626  69.676  1.00  0.00    -0.030 A  
HETATM   21  C   UNL     1      -5.806   9.670  70.326  1.00  0.00    -0.051 A  
ENDBRANCH  14  16
BRANCH  12  22
HETATM   22  C   UNL     1     -11.357   6.456  70.191  1.00  0.00    -0.420 C  
HETATM   23  O   UNL     1      -9.153   5.831  69.452  1.00  0.00    -0.124 OA 
HETATM   24  O   UNL     1     -10.432   4.218  70.388  1.00  0.00     0.116 OA 
HETATM   25  C   UNL     1     -10.296   5.377  70.025  1.00  0.00    -0.296 C  
ENDBRANCH  12  22
ENDBRANCH   4   9
BRANCH   8  26
HETATM   26  C   UNL     1     -10.492  16.205  67.420  1.00  0.00    -0.310 A  
HETATM   27  C   UNL     1     -10.409  18.627  67.160  1.00  0.00    -0.401 A  
HETATM   28  C   UNL     1     -10.236  16.109  66.036  1.00  0.00    -0.374 A  
HETATM   29  O   UNL     1     -10.524  19.884  67.678  1.00  0.00    -0.410 OA 
HETATM   30  C   UNL     1     -10.197  18.510  65.796  1.00  0.00    -0.127 A  
HETATM   31  H   UNL     1     -10.448  20.651  67.123  1.00  0.00     0.000 HD 
HETATM   32  C   UNL     1     -10.092  17.245  65.234  1.00  0.00     0.433 A  
HETATM   33  C   UNL     1     -10.521  17.498  67.974  1.00  0.00    -0.387 A  
ENDBRANCH   8  26
TORSDOF 4
ENDMDL
MODEL       84
REMARK 921   NORMALIZED FREE ENERGY PREDICTED BY IDOCK:   -4.29 KCAL/MOL
REMARK 922        TOTAL FREE ENERGY PREDICTED BY IDOCK:   -5.90 KCAL/MOL
REMARK 923 INTER-LIGAND FREE ENERGY PREDICTED BY IDOCK:   -5.25 KCAL/MOL
REMARK 924 INTRA-LIGAND FREE ENERGY PREDICTED BY IDOCK:   -0.65 KCAL/MOL
REMARK 927      BINDING AFFINITY PREDICTED BY RF-SCORE:    0.00 PKD
ROOT
HETATM    1  C   UNL     1      -8.868   9.212  68.246  1.00  0.00    -0.129 C  
HETATM    2  C   UNL     1      -8.661   9.107  69.777  1.00  0.00    -0.144 C  
HETATM    3  C   UNL     1      -9.292  10.364  70.419  1.00  0.00     0.813 C  
HETATM    4  N   UNL     1     -10.750  10.364  70.227  1.00  0.00    -0.253 NA 
HETATM    5  C   UNL     1      -8.823   7.699  71.917  1.00  0.00    -0.143 C  
HETATM    6  C   UNL     1     -11.360   9.197  70.868  1.00  0.00    -0.295 C  
HETATM    7  C   UNL     1     -10.788   7.883  70.341  1.00  0.00    -0.244 C  
HETATM    8  C   UNL     1      -9.241   7.788  70.424  1.00  0.00    -0.156 C  
ENDROOT
BRANCH   4   9
HETATM    9  C   UNL     1     -11.348  11.629  70.672  1.00  0.00     0.718 C  
HETATM   10  C   UNL     1     -11.481  12.690  69.561  1.00  0.00    -0.294 C  
HETATM   11  C   UNL     1     -12.165  13.927  70.124  1.00  0.00    -0.358 C  
HETATM   12  N   UNL     1     -11.468  14.642  71.080  1.00  0.00    -0.524 N  
HETATM   13  O   UNL     1     -13.279  14.262  69.743  1.00  0.00     0.354 OA 
HETATM   14  C   UNL     1     -10.139  13.028  68.881  1.00  0.00     0.031 C  
HETATM   15  H   UNL     1     -10.524  14.369  71.357  1.00  0.00     0.000 HD 
BRANCH  14  16
HETATM   16  C   UNL     1     -10.323  13.891  67.651  1.00  0.00    -0.242 A  
HETATM   17  C   UNL     1      -9.626  15.767  66.274  1.00  0.00    -0.343 A  
HETATM   18  C   UNL     1      -9.509  15.015  67.445  1.00  0.00    -0.202 A  
HETATM   19  C   UNL     1     -11.267  13.551  66.674  1.00  0.00    -0.328 A  
HETATM   20  C   UNL     1     -10.552  15.403  65.297  1.00  0.00    -0.450 A  
HETATM   21  C   UNL     1     -11.376  14.299  65.502  1.00  0.00    -0.325 A  
ENDBRANCH  14  16
BRANCH  12  22
HETATM   22  C   UNL     1     -12.127  15.805  71.686  1.00  0.00    -0.452 C  
HETATM   23  O   UNL     1     -13.125  14.080  73.036  1.00  0.00    -0.500 OA 
HETATM   24  O   UNL     1     -13.906  16.186  73.294  1.00  0.00    -0.559 OA 
HETATM   25  C   UNL     1     -13.149  15.404  72.740  1.00  0.00    -0.466 C  
ENDBRANCH  12  22
ENDBRANCH   4   9
BRANCH   8  26
HETATM   26  C   UNL     1      -8.729   6.479  69.773  1.00  0.00    -0.143 A  
HETATM   27  C   UNL     1      -6.944   5.129  68.807  1.00  0.00    -0.053 A  
HETATM   28  C   UNL     1      -9.603   5.404  69.506  1.00  0.00    -0.205 A  
HETATM   29  O   UNL     1      -5.646   4.975  68.418  1.00  0.00    -0.014 OA 
HETATM   30  C   UNL     1      -7.828   4.102  68.519  1.00  0.00    -0.073 A  
HETATM   31  H   UNL     1      -5.356   4.186  67.977  1.00  0.00     0.000 HD 
HETATM   32  C   UNL     1      -9.161   4.233  68.886  1.00  0.00    -0.183 A  
HETATM   33  C   UNL     1      -7.371   6.289  69.456  1.00  0.00    -0.084 A  
ENDBRANCH   8  26
TORSDOF 4
ENDMDL
MODEL       85
REMARK 921   NORMALIZED FREE ENERGY PREDICTED BY IDOCK:   -4.25 KCAL/MOL
REMARK 922        TOTAL FREE ENERGY PREDICTED BY IDOCK:   -5.85 KCAL/MOL
REMARK 923 INTER-LIGAND FREE ENERGY PREDICTED BY IDOCK:   -6.72 KCAL/MOL
REMARK 924 INTRA-LIGAND FREE ENERGY PREDICTED BY IDOCK:    0.87 KCAL/MOL
REMARK 927      BINDING AFFINITY PREDICTED BY RF-SCORE:    0.00 PKD
ROOT
HETATM    1  C   UNL     1     -12.009  16.263  68.624  1.00  0.00     0.183 C  
HETATM    2  C   UNL     1     -10.779  15.856  69.470  1.00  0.00    -0.288 C  
HETATM    3  C   UNL     1     -11.198  14.657  70.353  1.00  0.00    -0.124 C  
HETATM    4  N   UNL     1     -11.497  13.483  69.520  1.00  0.00    -0.272 NA 
HETATM    5  C   UNL     1      -8.276  15.297  69.567  1.00  0.00    -0.188 C  
HETATM    6  C   UNL     1     -10.316  13.070  68.758  1.00  0.00    -0.129 C  
HETATM    7  C   UNL     1      -9.781  14.189  67.869  1.00  0.00    -0.224 C  
HETATM    8  C   UNL     1      -9.490  15.513  68.624  1.00  0.00    -0.204 C  
ENDROOT
BRANCH   4   9
HETATM    9  C   UNL     1     -12.064  12.390  70.319  1.00  0.00    -0.297 C  
HETATM   10  C   UNL     1     -11.340  11.040  70.147  1.00  0.00    -0.335 C  
HETATM   11  C   UNL     1     -11.976  10.006  71.066  1.00  0.00    -0.376 C  
HETATM   12  N   UNL     1     -13.278   9.638  70.780  1.00  0.00    -0.589 N  
HETATM   13  O   UNL     1     -11.356   9.532  72.009  1.00  0.00    -0.236 OA 
HETATM   14  C   UNL     1     -11.289  10.561  68.683  1.00  0.00    -0.315 C  
HETATM   15  H   UNL     1     -13.765  10.016  69.967  1.00  0.00     0.000 HD 
BRANCH  14  16
HETATM   16  C   UNL     1     -10.383   9.362  68.505  1.00  0.00    -0.236 A  
HETATM   17  C   UNL     1      -9.867   7.260  67.400  1.00  0.00    -0.206 A  
HETATM   18  C   UNL     1     -10.737   8.330  67.623  1.00  0.00    -0.195 A  
HETATM   19  C   UNL     1      -9.153   9.289  69.172  1.00  0.00    -0.145 A  
HETATM   20  C   UNL     1      -8.635   7.213  68.052  1.00  0.00    -0.128 A  
HETATM   21  C   UNL     1      -8.283   8.224  68.942  1.00  0.00    -0.116 A  
ENDBRANCH  14  16
BRANCH  12  22
HETATM   22  C   UNL     1     -13.938   8.689  71.684  1.00  0.00    -0.401 C  
HETATM   23  O   UNL     1     -12.574   7.132  70.456  1.00  0.00    -0.148 OA 
HETATM   24  O   UNL     1     -14.078   6.275  71.912  1.00  0.00     0.118 OA 
HETATM   25  C   UNL     1     -13.565   7.246  71.375  1.00  0.00    -0.311 C  
ENDBRANCH  12  22
ENDBRANCH   4   9
BRANCH   8  26
HETATM   26  C   UNL     1      -9.057  16.630  67.641  1.00  0.00    -0.207 A  
HETATM   27  C   UNL     1      -7.393  17.692  66.213  1.00  0.00    -0.310 A  
HETATM   28  C   UNL     1      -9.942  17.667  67.277  1.00  0.00    -0.322 A  
HETATM   29  O   UNL     1      -6.130  17.753  65.699  1.00  0.00    -0.184 OA 
HETATM   30  C   UNL     1      -8.265  18.721  65.899  1.00  0.00     0.031 A  
HETATM   31  H   UNL     1      -5.864  18.469  65.135  1.00  0.00     0.000 HD 
HETATM   32  C   UNL     1      -9.552  18.700  66.420  1.00  0.00    -0.338 A  
HETATM   33  C   UNL     1      -7.784  16.639  67.042  1.00  0.00    -0.235 A  
ENDBRANCH   8  26
TORSDOF 4
ENDMDL
MODEL       86
REMARK 921   NORMALIZED FREE ENERGY PREDICTED BY IDOCK:   -4.18 KCAL/MOL
REMARK 922        TOTAL FREE ENERGY PREDICTED BY IDOCK:   -5.77 KCAL/MOL
REMARK 923 INTER-LIGAND FREE ENERGY PREDICTED BY IDOCK:   -5.08 KCAL/MOL
REMARK 924 INTRA-LIGAND FREE ENERGY PREDICTED BY IDOCK:   -0.69 KCAL/MOL
REMARK 927      BINDING AFFINITY PREDICTED BY RF-SCORE:    0.00 PKD
ROOT
HETATM    1  C   UNL     1      -8.557  13.662  69.300  1.00  0.00     0.635 C  
HETATM    2  C   UNL     1      -9.680  13.527  68.242  1.00  0.00    -0.224 C  
HETATM    3  C   UNL     1      -9.168  12.571  67.140  1.00  0.00    -0.205 C  
HETATM    4  N   UNL     1      -8.983  11.215  67.679  1.00  0.00    -0.139 NA 
HETATM    5  C   UNL     1     -12.157  13.110  67.719  1.00  0.00    -0.262 C  
HETATM    6  C   UNL     1     -10.251  10.673  68.171  1.00  0.00    -0.168 C  
HETATM    7  C   UNL     1     -10.881  11.555  69.246  1.00  0.00    -0.217 C  
HETATM    8  C   UNL     1     -11.065  13.037  68.820  1.00  0.00    -0.311 C  
ENDROOT
BRANCH   4   9
HETATM    9  C   UNL     1      -8.333  10.334  66.701  1.00  0.00    -0.125 C  
HETATM   10  C   UNL     1      -8.503   8.831  66.994  1.00  0.00    -0.109 C  
HETATM   11  C   UNL     1      -7.843   8.023  65.886  1.00  0.00    -0.099 C  
HETATM   12  N   UNL     1      -6.466   8.112  65.788  1.00  0.00    -0.051 N  
HETATM   13  O   UNL     1      -8.507   7.333  65.124  1.00  0.00    -0.115 OA 
HETATM   14  C   UNL     1      -7.994   8.423  68.391  1.00  0.00    -0.118 C  
HETATM   15  H   UNL     1      -5.926   8.661  66.457  1.00  0.00     0.000 HD 
BRANCH  14  16
HETATM   16  C   UNL     1      -8.376   7.003  68.748  1.00  0.00    -0.122 A  
HETATM   17  C   UNL     1      -7.732   4.737  69.344  1.00  0.00    -0.063 A  
HETATM   18  C   UNL     1      -7.385   6.029  68.941  1.00  0.00    -0.085 A  
HETATM   19  C   UNL     1      -9.718   6.652  68.945  1.00  0.00    -0.136 A  
HETATM   20  C   UNL     1      -9.070   4.408  69.562  1.00  0.00    -0.175 A  
HETATM   21  C   UNL     1     -10.061   5.364  69.355  1.00  0.00    -0.304 A  
ENDBRANCH  14  16
BRANCH  12  22
HETATM   22  C   UNL     1      -5.807   7.392  64.692  1.00  0.00    -0.037 C  
HETATM   23  O   UNL     1      -6.049   9.536  63.624  1.00  0.00    -0.089 OA 
HETATM   24  O   UNL     1      -5.286   7.823  62.359  1.00  0.00    -0.056 OA 
HETATM   25  C   UNL     1      -5.689   8.241  63.434  1.00  0.00    -0.067 C  
ENDBRANCH  12  22
ENDBRANCH   4   9
BRANCH   8  26
HETATM   26  C   UNL     1     -11.604  13.890  69.996  1.00  0.00    -0.282 A  
HETATM   27  C   UNL     1     -11.699  15.973  71.256  1.00  0.00    -0.461 A  
HETATM   28  C   UNL     1     -12.502  13.349  70.940  1.00  0.00    -0.439 A  
HETATM   29  O   UNL     1     -11.294  17.260  71.460  1.00  0.00    -0.045 OA 
HETATM   30  C   UNL     1     -12.549  15.410  72.193  1.00  0.00    -0.449 A  
HETATM   31  H   UNL     1     -11.596  17.756  72.212  1.00  0.00     0.000 HD 
HETATM   32  C   UNL     1     -12.967  14.097  72.025  1.00  0.00    -0.444 A  
HETATM   33  C   UNL     1     -11.255  15.244  70.151  1.00  0.00    -0.313 A  
ENDBRANCH   8  26
TORSDOF 4
ENDMDL
MODEL       87
REMARK 921   NORMALIZED FREE ENERGY PREDICTED BY IDOCK:   -4.14 KCAL/MOL
REMARK 922        TOTAL FREE ENERGY PREDICTED BY IDOCK:   -5.71 KCAL/MOL
REMARK 923 INTER-LIGAND FREE ENERGY PREDICTED BY IDOCK:   -5.39 KCAL/MOL
REMARK 924 INTRA-LIGAND FREE ENERGY PREDICTED BY IDOCK:   -0.32 KCAL/MOL
REMARK 927      BINDING AFFINITY PREDICTED BY RF-SCORE:    0.00 PKD
ROOT
HETATM    1  C   UNL     1      -9.855   9.925  70.441  1.00  0.00    -0.185 C  
HETATM    2  C   UNL     1      -9.249  10.386  69.093  1.00  0.00    -0.202 C  
HETATM    3  C   UNL     1      -8.596   9.150  68.430  1.00  0.00    -0.129 C  
HETATM    4  N   UNL     1      -9.619   8.156  68.073  1.00  0.00    -0.153 NA 
HETATM    5  C   UNL     1      -9.539  11.655  66.882  1.00  0.00    -0.199 C  
HETATM    6  C   UNL     1     -10.572   8.712  67.110  1.00  0.00    -0.234 C  
HETATM    7  C   UNL     1     -11.260   9.969  67.637  1.00  0.00    -0.099 C  
HETATM    8  C   UNL     1     -10.281  11.074  68.116  1.00  0.00    -0.201 C  
ENDROOT
BRANCH   4   9
HETATM    9  C   UNL     1      -9.009   6.905  67.606  1.00  0.00    -0.116 C  
HETATM   10  C   UNL     1      -9.151   5.727  68.590  1.00  0.00    -0.116 C  
HETATM   11  C   UNL     1      -8.538   4.478  67.973  1.00  0.00    -0.102 C  
HETATM   12  N   UNL     1      -7.169   4.488  67.781  1.00  0.00    -0.065 N  
HETATM   13  O   UNL     1      -9.233   3.518  67.665  1.00  0.00    -0.155 OA 
HETATM   14  C   UNL     1      -8.572   6.028  69.986  1.00  0.00    -0.131 C  
HETATM   15  H   UNL     1      -6.602   5.282  68.079  1.00  0.00     0.000 HD 
BRANCH  14  16
HETATM   16  C   UNL     1      -8.924   4.957  70.995  1.00  0.00    -0.168 A  
HETATM   17  C   UNL     1     -10.346   4.141  72.788  1.00  0.00    -0.243 A  
HETATM   18  C   UNL     1      -9.971   5.158  71.907  1.00  0.00    -0.239 A  
HETATM   19  C   UNL     1      -8.249   3.730  71.000  1.00  0.00    -0.077 A  
HETATM   20  C   UNL     1      -9.682   2.915  72.765  1.00  0.00    -0.182 A  
HETATM   21  C   UNL     1      -8.631   2.713  71.875  1.00  0.00    -0.097 A  
ENDBRANCH  14  16
BRANCH  12  22
HETATM   22  C   UNL     1      -6.557   3.322  67.133  1.00  0.00    -0.038 C  
HETATM   23  O   UNL     1      -6.816   4.721  65.191  1.00  0.00    -0.054 OA 
HETATM   24  O   UNL     1      -6.116   2.597  64.857  1.00  0.00    -0.018 OA 
HETATM   25  C   UNL     1      -6.475   3.480  65.621  1.00  0.00    -0.033 C  
ENDBRANCH  12  22
ENDBRANCH   4   9
BRANCH   8  26
HETATM   26  C   UNL     1     -11.049  12.267  68.736  1.00  0.00    -0.295 A  
HETATM   27  C   UNL     1     -11.615  14.636  68.815  1.00  0.00    -0.317 A  
HETATM   28  C   UNL     1     -11.898  12.090  69.850  1.00  0.00    -0.405 A  
HETATM   29  O   UNL     1     -11.469  15.910  68.349  1.00  0.00    -0.365 OA 
HETATM   30  C   UNL     1     -12.412  14.446  69.932  1.00  0.00    -0.311 A  
HETATM   31  H   UNL     1     -11.910  16.639  68.770  1.00  0.00     0.000 HD 
HETATM   32  C   UNL     1     -12.568  13.164  70.442  1.00  0.00    -0.186 A  
HETATM   33  C   UNL     1     -10.968  13.564  68.197  1.00  0.00    -0.275 A  
ENDBRANCH   8  26
TORSDOF 4
ENDMDL
MODEL       88
REMARK 921   NORMALIZED FREE ENERGY PREDICTED BY IDOCK:   -4.09 KCAL/MOL
REMARK 922        TOTAL FREE ENERGY PREDICTED BY IDOCK:   -5.65 KCAL/MOL
REMARK 923 INTER-LIGAND FREE ENERGY PREDICTED BY IDOCK:   -6.15 KCAL/MOL
REMARK 924 INTRA-LIGAND FREE ENERGY PREDICTED BY IDOCK:    0.50 KCAL/MOL
REMARK 927      BINDING AFFINITY PREDICTED BY RF-SCORE:    0.00 PKD
ROOT
HETATM    1  C   UNL     1     -10.096  12.141  67.921  1.00  0.00    -0.199 C  
HETATM    2  C   UNL     1     -11.299  11.208  68.208  1.00  0.00    -0.365 C  
HETATM    3  C   UNL     1     -10.887   9.777  67.792  1.00  0.00    -0.246 C  
HETATM    4  N   UNL     1      -9.802   9.282  68.652  1.00  0.00    -0.158 NA 
HETATM    5  C   UNL     1     -13.115  10.417  69.839  1.00  0.00     0.390 C  
HETATM    6  C   UNL     1     -10.233   9.220  70.051  1.00  0.00    -0.215 C  
HETATM    7  C   UNL     1     -10.703  10.576  70.572  1.00  0.00     0.045 C  
HETATM    8  C   UNL     1     -11.806  11.240  69.703  1.00  0.00    -0.430 C  
ENDROOT
BRANCH   4   9
HETATM    9  C   UNL     1      -9.277   8.000  68.166  1.00  0.00    -0.133 C  
HETATM   10  C   UNL     1      -9.453   6.830  69.154  1.00  0.00    -0.141 C  
HETATM   11  C   UNL     1      -8.929   5.550  68.519  1.00  0.00    -0.110 C  
HETATM   12  N   UNL     1      -7.568   5.485  68.284  1.00  0.00    -0.080 N  
HETATM   13  O   UNL     1      -9.685   4.630  68.233  1.00  0.00    -0.147 OA 
HETATM   14  C   UNL     1      -8.816   7.097  70.532  1.00  0.00    -0.154 C  
HETATM   15  H   UNL     1      -6.949   6.246  68.565  1.00  0.00     0.000 HD 
BRANCH  14  16
HETATM   16  C   UNL     1      -9.194   6.045  71.552  1.00  0.00    -0.151 A  
HETATM   17  C   UNL     1     -10.881   4.934  72.903  1.00  0.00    -0.313 A  
HETATM   18  C   UNL     1     -10.513   5.952  72.020  1.00  0.00    -0.259 A  
HETATM   19  C   UNL     1      -8.250   5.113  72.003  1.00  0.00    -0.117 A  
HETATM   20  C   UNL     1      -9.936   3.998  73.324  1.00  0.00    -0.190 A  
HETATM   21  C   UNL     1      -8.621   4.093  72.878  1.00  0.00    -0.100 A  
ENDBRANCH  14  16
BRANCH  12  22
HETATM   22  C   UNL     1      -7.041   4.289  67.617  1.00  0.00    -0.064 C  
HETATM   23  O   UNL     1      -7.017   5.791  65.737  1.00  0.00    -0.065 OA 
HETATM   24  O   UNL     1      -6.527   3.619  65.340  1.00  0.00    -0.031 OA 
HETATM   25  C   UNL     1      -6.841   4.503  66.123  1.00  0.00    -0.058 C  
ENDBRANCH  12  22
ENDBRANCH   4   9
BRANCH   8  26
HETATM   26  C   UNL     1     -12.150  12.656  70.230  1.00  0.00    -0.372 A  
HETATM   27  C   UNL     1     -13.105  14.134  71.916  1.00  0.00    -0.375 A  
HETATM   28  C   UNL     1     -11.847  13.810  69.477  1.00  0.00    -0.394 A  
HETATM   29  O   UNL     1     -13.758  14.326  73.098  1.00  0.00    -0.534 OA 
HETATM   30  C   UNL     1     -12.834  15.251  71.142  1.00  0.00    -0.494 A  
HETATM   31  H   UNL     1     -14.005  15.197  73.387  1.00  0.00     0.000 HD 
HETATM   32  C   UNL     1     -12.186  15.090  69.925  1.00  0.00    -0.351 A  
HETATM   33  C   UNL     1     -12.741  12.855  71.492  1.00  0.00    -0.339 A  
ENDBRANCH   8  26
TORSDOF 4
ENDMDL
MODEL       89
REMARK 921   NORMALIZED FREE ENERGY PREDICTED BY IDOCK:   -4.00 KCAL/MOL
REMARK 922        TOTAL FREE ENERGY PREDICTED BY IDOCK:   -5.54 KCAL/MOL
REMARK 923 INTER-LIGAND FREE ENERGY PREDICTED BY IDOCK:   -5.75 KCAL/MOL
REMARK 924 INTRA-LIGAND FREE ENERGY PREDICTED BY IDOCK:    0.21 KCAL/MOL
REMARK 927      BINDING AFFINITY PREDICTED BY RF-SCORE:    0.00 PKD
ROOT
HETATM    1  C   UNL     1      -7.162   9.058  69.281  1.00  0.00    -0.065 C  
HETATM    2  C   UNL     1      -8.459   9.494  70.007  1.00  0.00    -0.210 C  
HETATM    3  C   UNL     1      -9.210  10.471  69.073  1.00  0.00    -0.185 C  
HETATM    4  N   UNL     1      -9.663   9.778  67.858  1.00  0.00    -0.143 NA 
HETATM    5  C   UNL     1     -10.564   8.829  71.315  1.00  0.00    -0.332 C  
HETATM    6  C   UNL     1     -10.592   8.696  68.191  1.00  0.00    -0.133 C  
HETATM    7  C   UNL     1      -9.976   7.677  69.146  1.00  0.00    -0.181 C  
HETATM    8  C   UNL     1      -9.394   8.298  70.444  1.00  0.00    -0.162 C  
ENDROOT
BRANCH   4   9
HETATM    9  C   UNL     1     -10.220  10.721  66.880  1.00  0.00    -0.227 C  
HETATM   10  C   UNL     1      -9.671  12.156  67.003  1.00  0.00    -0.208 C  
HETATM   11  C   UNL     1     -10.273  13.022  65.905  1.00  0.00    -0.292 C  
HETATM   12  N   UNL     1     -11.634  13.260  65.977  1.00  0.00    -0.335 N  
HETATM   13  O   UNL     1      -9.578  13.479  65.007  1.00  0.00     0.029 OA 
HETATM   14  C   UNL     1      -9.878  12.768  68.403  1.00  0.00    -0.196 C  
HETATM   15  H   UNL     1     -12.190  12.903  66.755  1.00  0.00     0.000 HD 
BRANCH  14  16
HETATM   16  C   UNL     1      -9.136  14.076  68.572  1.00  0.00    -0.163 A  
HETATM   17  C   UNL     1      -9.131  16.431  69.168  1.00  0.00    -0.202 A  
HETATM   18  C   UNL     1      -9.826  15.241  68.937  1.00  0.00    -0.221 A  
HETATM   19  C   UNL     1      -7.744  14.132  68.421  1.00  0.00    -0.140 A  
HETATM   20  C   UNL     1      -7.743  16.467  69.039  1.00  0.00    -0.228 A  
HETATM   21  C   UNL     1      -7.053  15.319  68.660  1.00  0.00    -0.116 A  
ENDBRANCH  14  16
BRANCH  12  22
HETATM   22  C   UNL     1     -12.253  14.040  64.900  1.00  0.00    -0.437 C  
HETATM   23  O   UNL     1     -12.242  11.887  63.825  1.00  0.00    -0.458 OA 
HETATM   24  O   UNL     1     -12.876  13.666  62.582  1.00  0.00    -0.117 OA 
HETATM   25  C   UNL     1     -12.485  13.209  63.646  1.00  0.00    -0.292 C  
ENDBRANCH  12  22
ENDBRANCH   4   9
BRANCH   8  26
HETATM   26  C   UNL     1      -8.690   7.222  71.308  1.00  0.00    -0.127 A  
HETATM   27  C   UNL     1      -8.064   4.908  71.746  1.00  0.00    -0.113 A  
HETATM   28  C   UNL     1      -8.030   7.563  72.508  1.00  0.00    -0.121 A  
HETATM   29  O   UNL     1      -8.093   3.584  71.416  1.00  0.00    -0.059 OA 
HETATM   30  C   UNL     1      -7.456   5.260  72.940  1.00  0.00    -0.096 A  
HETATM   31  H   UNL     1      -7.698   2.930  71.980  1.00  0.00     0.000 HD 
HETATM   32  C   UNL     1      -7.423   6.596  73.314  1.00  0.00    -0.084 A  
HETATM   33  C   UNL     1      -8.644   5.871  70.918  1.00  0.00    -0.131 A  
ENDBRANCH   8  26
TORSDOF 4
ENDMDL
MODEL       90
REMARK 921   NORMALIZED FREE ENERGY PREDICTED BY IDOCK:   -3.92 KCAL/MOL
REMARK 922        TOTAL FREE ENERGY PREDICTED BY IDOCK:   -5.44 KCAL/MOL
REMARK 923 INTER-LIGAND FREE ENERGY PREDICTED BY IDOCK:   -5.44 KCAL/MOL
REMARK 924 INTRA-LIGAND FREE ENERGY PREDICTED BY IDOCK:   -0.00 KCAL/MOL
REMARK 927      BINDING AFFINITY PREDICTED BY RF-SCORE:    0.00 PKD
ROOT
HETATM    1  C   UNL     1      -7.598   9.918  65.993  1.00  0.00    -0.106 C  
HETATM    2  C   UNL     1      -7.975   9.261  67.343  1.00  0.00    -0.106 C  
HETATM    3  C   UNL     1      -8.975  10.203  68.055  1.00  0.00    -0.125 C  
HETATM    4  N   UNL     1     -10.234  10.282  67.301  1.00  0.00    -0.206 NA 
HETATM    5  C   UNL     1      -8.735   7.172  68.625  1.00  0.00    -0.127 C  
HETATM    6  C   UNL     1     -10.869   8.965  67.207  1.00  0.00    -0.014 C  
HETATM    7  C   UNL     1      -9.959   7.930  66.550  1.00  0.00    -0.267 C  
HETATM    8  C   UNL     1      -8.563   7.802  67.216  1.00  0.00    -0.128 C  
ENDROOT
BRANCH   4   9
HETATM    9  C   UNL     1     -11.130  11.302  67.861  1.00  0.00    -0.267 C  
HETATM   10  C   UNL     1     -10.695  12.752  67.570  1.00  0.00    -0.247 C  
HETATM   11  C   UNL     1     -11.727  13.712  68.144  1.00  0.00    -0.357 C  
HETATM   12  N   UNL     1     -11.843  13.749  69.522  1.00  0.00    -0.318 N  
HETATM   13  O   UNL     1     -12.417  14.411  67.413  1.00  0.00    -0.184 OA 
HETATM   14  C   UNL     1      -9.270  13.069  68.064  1.00  0.00    -0.212 C  
HETATM   15  H   UNL     1     -11.232  13.188  70.116  1.00  0.00     0.000 HD 
BRANCH  14  16
HETATM   16  C   UNL     1      -8.779  14.413  67.570  1.00  0.00    -0.203 A  
HETATM   17  C   UNL     1      -7.317  16.338  67.812  1.00  0.00    -0.149 A  
HETATM   18  C   UNL     1      -7.827  15.135  68.305  1.00  0.00    -0.124 A  
HETATM   19  C   UNL     1      -9.224  14.931  66.346  1.00  0.00    -0.317 A  
HETATM   20  C   UNL     1      -7.750  16.830  66.581  1.00  0.00    -0.308 A  
HETATM   21  C   UNL     1      -8.707  16.128  65.853  1.00  0.00    -0.126 A  
ENDBRANCH  14  16
BRANCH  12  22
HETATM   22  C   UNL     1     -12.871  14.621  70.102  1.00  0.00    -0.135 C  
HETATM   23  O   UNL     1     -11.163  14.912  71.774  1.00  0.00    -0.257 OA 
HETATM   24  O   UNL     1     -13.188  15.832  72.184  1.00  0.00    -0.452 OA 
HETATM   25  C   UNL     1     -12.455  15.181  71.455  1.00  0.00    -0.350 C  
ENDBRANCH  12  22
ENDBRANCH   4   9
BRANCH   8  26
HETATM   26  C   UNL     1      -7.661   6.817  66.431  1.00  0.00    -0.089 A  
HETATM   27  C   UNL     1      -6.225   4.850  66.330  1.00  0.00    -0.035 A  
HETATM   28  C   UNL     1      -7.408   6.996  65.054  1.00  0.00    -0.083 A  
HETATM   29  O   UNL     1      -5.598   3.802  66.939  1.00  0.00    -0.020 OA 
HETATM   30  C   UNL     1      -5.959   5.068  64.989  1.00  0.00    -0.025 A  
HETATM   31  H   UNL     1      -5.010   3.235  66.455  1.00  0.00     0.000 HD 
HETATM   32  C   UNL     1      -6.567   6.136  64.343  1.00  0.00    -0.034 A  
HETATM   33  C   UNL     1      -7.089   5.685  67.041  1.00  0.00    -0.070 A  
ENDBRANCH   8  26
TORSDOF 4
ENDMDL
MODEL       91
REMARK 921   NORMALIZED FREE ENERGY PREDICTED BY IDOCK:   -3.92 KCAL/MOL
REMARK 922        TOTAL FREE ENERGY PREDICTED BY IDOCK:   -5.44 KCAL/MOL
REMARK 923 INTER-LIGAND FREE ENERGY PREDICTED BY IDOCK:   -5.44 KCAL/MOL
REMARK 924 INTRA-LIGAND FREE ENERGY PREDICTED BY IDOCK:    0.00 KCAL/MOL
REMARK 927      BINDING AFFINITY PREDICTED BY RF-SCORE:    0.00 PKD
ROOT
HETATM    1  C   UNL     1     -10.886  16.642  68.196  1.00  0.00    -0.348 C  
HETATM    2  C   UNL     1      -9.631  16.302  69.037  1.00  0.00    -0.257 C  
HETATM    3  C   UNL     1      -9.808  14.863  69.577  1.00  0.00    -0.059 C  
HETATM    4  N   UNL     1      -9.805  13.894  68.472  1.00  0.00    -0.227 NA 
HETATM    5  C   UNL     1      -7.073  16.264  69.234  1.00  0.00    -0.222 C  
HETATM    6  C   UNL     1      -8.533  13.932  67.748  1.00  0.00    -0.183 C  
HETATM    7  C   UNL     1      -8.224  15.320  67.194  1.00  0.00    -0.250 C  
HETATM    8  C   UNL     1      -8.265  16.450  68.258  1.00  0.00    -0.177 C  
ENDROOT
BRANCH   4   9
HETATM    9  C   UNL     1     -10.148  12.545  68.942  1.00  0.00     0.052 C  
HETATM   10  C   UNL     1      -9.095  11.472  68.602  1.00  0.00    -0.124 C  
HETATM   11  C   UNL     1      -9.528  10.137  69.190  1.00  0.00    -0.206 C  
HETATM   12  N   UNL     1     -10.666   9.561  68.653  1.00  0.00    -0.323 N  
HETATM   13  O   UNL     1      -8.895   9.608  70.094  1.00  0.00    -0.213 OA 
HETATM   14  C   UNL     1      -8.795  11.371  67.094  1.00  0.00    -0.156 C  
HETATM   15  H   UNL     1     -11.158   9.998  67.873  1.00  0.00     0.000 HD 
BRANCH  14  16
HETATM   16  C   UNL     1      -7.605  10.483  66.804  1.00  0.00    -0.115 A  
HETATM   17  C   UNL     1      -6.538   8.768  65.454  1.00  0.00    -0.067 A  
HETATM   18  C   UNL     1      -7.661   9.535  65.772  1.00  0.00    -0.100 A  
HETATM   19  C   UNL     1      -6.411  10.631  67.523  1.00  0.00    -0.058 A  
HETATM   20  C   UNL     1      -5.349   8.942  66.161  1.00  0.00    -0.037 A  
HETATM   21  C   UNL     1      -5.289   9.869  67.198  1.00  0.00    -0.042 A  
ENDBRANCH  14  16
BRANCH  12  22
HETATM   22  C   UNL     1     -11.142   8.304  69.240  1.00  0.00     0.162 C  
HETATM   23  O   UNL     1     -12.219   9.839  70.749  1.00  0.00    -0.286 OA 
HETATM   24  O   UNL     1     -12.350   7.635  71.239  1.00  0.00    -0.314 OA 
HETATM   25  C   UNL     1     -11.951   8.531  70.510  1.00  0.00     0.061 C  
ENDBRANCH  12  22
ENDBRANCH   4   9
BRANCH   8  26
HETATM   26  C   UNL     1      -8.052  17.838  67.603  1.00  0.00    -0.223 A  
HETATM   27  C   UNL     1      -7.327  19.234  65.741  1.00  0.00    -0.235 A  
HETATM   28  C   UNL     1      -8.366  19.028  68.293  1.00  0.00    -0.369 A  
HETATM   29  O   UNL     1      -6.783  19.370  64.498  1.00  0.00    -0.327 OA 
HETATM   30  C   UNL     1      -7.606  20.389  66.452  1.00  0.00    -0.222 A  
HETATM   31  H   UNL     1      -6.614  20.228  64.128  1.00  0.00     0.000 HD 
HETATM   32  C   UNL     1      -8.144  20.286  67.727  1.00  0.00    -0.268 A  
HETATM   33  C   UNL     1      -7.576  17.972  66.286  1.00  0.00    -0.306 A  
ENDBRANCH   8  26
TORSDOF 4
ENDMDL
MODEL       92
REMARK 921   NORMALIZED FREE ENERGY PREDICTED BY IDOCK:   -3.88 KCAL/MOL
REMARK 922        TOTAL FREE ENERGY PREDICTED BY IDOCK:   -5.39 KCAL/MOL
REMARK 923 INTER-LIGAND FREE ENERGY PREDICTED BY IDOCK:   -5.09 KCAL/MOL
REMARK 924 INTRA-LIGAND FREE ENERGY PREDICTED BY IDOCK:   -0.30 KCAL/MOL
REMARK 927      BINDING AFFINITY PREDICTED BY RF-SCORE:    0.00 PKD
ROOT
HETATM    1  C   UNL     1      -7.764   9.728  64.876  1.00  0.00    -0.127 C  
HETATM    2  C   UNL     1      -7.585   8.959  66.208  1.00  0.00    -0.095 C  
HETATM    3  C   UNL     1      -8.487   9.640  67.263  1.00  0.00    -0.132 C  
HETATM    4  N   UNL     1      -9.905   9.476  66.912  1.00  0.00    -0.190 NA 
HETATM    5  C   UNL     1      -7.508   6.712  67.446  1.00  0.00    -0.096 C  
HETATM    6  C   UNL     1     -10.273   8.059  66.877  1.00  0.00    -0.315 C  
HETATM    7  C   UNL     1      -9.420   7.264  65.891  1.00  0.00     0.126 C  
HETATM    8  C   UNL     1      -7.891   7.413  66.115  1.00  0.00    -0.107 C  
ENDROOT
BRANCH   4   9
HETATM    9  C   UNL     1     -10.771  10.262  67.800  1.00  0.00    -0.275 C  
HETATM   10  C   UNL     1     -10.784  11.773  67.495  1.00  0.00    -0.262 C  
HETATM   11  C   UNL     1     -11.757  12.469  68.435  1.00  0.00    -0.328 C  
HETATM   12  N   UNL     1     -11.424  12.481  69.777  1.00  0.00    -0.492 N  
HETATM   13  O   UNL     1     -12.782  12.989  68.013  1.00  0.00     0.439 OA 
HETATM   14  C   UNL     1      -9.382  12.412  67.534  1.00  0.00    -0.181 C  
HETATM   15  H   UNL     1     -10.547  12.076  70.105  1.00  0.00     0.000 HD 
BRANCH  14  16
HETATM   16  C   UNL     1      -9.385  13.832  67.011  1.00  0.00    -0.250 A  
HETATM   17  C   UNL     1      -9.878  15.421  65.241  1.00  0.00    -0.239 A  
HETATM   18  C   UNL     1      -9.802  14.104  65.700  1.00  0.00    -0.278 A  
HETATM   19  C   UNL     1      -9.025  14.901  67.842  1.00  0.00    -0.177 A  
HETATM   20  C   UNL     1      -9.540  16.478  66.086  1.00  0.00    -0.344 A  
HETATM   21  C   UNL     1      -9.109  16.215  67.384  1.00  0.00    -0.203 A  
ENDBRANCH  14  16
BRANCH  12  22
HETATM   22  C   UNL     1     -12.373  13.092  70.715  1.00  0.00    -0.310 C  
HETATM   23  O   UNL     1     -12.417  10.842  71.570  1.00  0.00    -0.369 OA 
HETATM   24  O   UNL     1     -13.889  12.317  72.447  1.00  0.00    -0.269 OA 
HETATM   25  C   UNL     1     -12.988  12.069  71.660  1.00  0.00    -0.334 C  
ENDBRANCH  12  22
ENDBRANCH   4   9
BRANCH   8  26
HETATM   26  C   UNL     1      -7.093   6.670  65.013  1.00  0.00    -0.064 A  
HETATM   27  C   UNL     1      -6.620   4.676  63.694  1.00  0.00    -0.038 A  
HETATM   28  C   UNL     1      -6.052   7.310  64.308  1.00  0.00    -0.037 A  
HETATM   29  O   UNL     1      -6.852   3.366  63.393  1.00  0.00    -0.040 OA 
HETATM   30  C   UNL     1      -5.576   5.311  63.042  1.00  0.00    -0.014 A  
HETATM   31  H   UNL     1      -6.324   2.910  62.749  1.00  0.00     0.000 HD 
HETATM   32  C   UNL     1      -5.301   6.640  63.338  1.00  0.00    -0.027 A  
HETATM   33  C   UNL     1      -7.396   5.347  64.642  1.00  0.00    -0.064 A  
ENDBRANCH   8  26
TORSDOF 4
ENDMDL
MODEL       93
REMARK 921   NORMALIZED FREE ENERGY PREDICTED BY IDOCK:   -3.88 KCAL/MOL
REMARK 922        TOTAL FREE ENERGY PREDICTED BY IDOCK:   -5.39 KCAL/MOL
REMARK 923 INTER-LIGAND FREE ENERGY PREDICTED BY IDOCK:   -4.56 KCAL/MOL
REMARK 924 INTRA-LIGAND FREE ENERGY PREDICTED BY IDOCK:   -0.83 KCAL/MOL
REMARK 927      BINDING AFFINITY PREDICTED BY RF-SCORE:    0.00 PKD
ROOT
HETATM    1  C   UNL     1     -10.193  11.238  69.183  1.00  0.00    -0.123 C  
HETATM    2  C   UNL     1      -8.722  11.627  68.896  1.00  0.00     0.078 C  
HETATM    3  C   UNL     1      -7.842  10.400  69.234  1.00  0.00    -0.147 C  
HETATM    4  N   UNL     1      -8.132   9.290  68.315  1.00  0.00    -0.106 NA 
HETATM    5  C   UNL     1      -7.002  12.659  67.296  1.00  0.00    -0.104 C  
HETATM    6  C   UNL     1      -7.838   9.668  66.931  1.00  0.00    -0.102 C  
HETATM    7  C   UNL     1      -8.623  10.900  66.488  1.00  0.00    -0.156 C  
HETATM    8  C   UNL     1      -8.455  12.128  67.423  1.00  0.00    -0.173 C  
ENDROOT
BRANCH   4   9
HETATM    9  C   UNL     1      -7.440   8.062  68.725  1.00  0.00    -0.091 C  
HETATM   10  C   UNL     1      -7.487   6.931  67.678  1.00  0.00    -0.098 C  
HETATM   11  C   UNL     1      -6.689   5.739  68.187  1.00  0.00    -0.058 C  
HETATM   12  N   UNL     1      -7.190   5.084  69.296  1.00  0.00    -0.056 N  
HETATM   13  O   UNL     1      -5.655   5.388  67.634  1.00  0.00    -0.011 OA 
HETATM   14  C   UNL     1      -8.921   6.538  67.273  1.00  0.00    -0.114 C  
HETATM   15  H   UNL     1      -8.074   5.367  69.720  1.00  0.00     0.000 HD 
BRANCH  14  16
HETATM   16  C   UNL     1      -8.944   5.597  66.087  1.00  0.00    -0.153 A  
HETATM   17  C   UNL     1     -10.019   3.812  64.839  1.00  0.00    -0.171 A  
HETATM   18  C   UNL     1      -9.952   4.629  65.969  1.00  0.00    -0.262 A  
HETATM   19  C   UNL     1      -7.995   5.714  65.064  1.00  0.00    -0.115 A  
HETATM   20  C   UNL     1      -9.082   3.955  63.815  1.00  0.00    -0.126 A  
HETATM   21  C   UNL     1      -8.068   4.902  63.933  1.00  0.00    -0.112 A  
ENDBRANCH  14  16
BRANCH  12  22
HETATM   22  C   UNL     1      -6.411   3.969  69.846  1.00  0.00    -0.028 C  
HETATM   23  O   UNL     1      -7.743   2.735  68.266  1.00  0.00    -0.055 OA 
HETATM   24  O   UNL     1      -6.434   1.546  69.675  1.00  0.00    -0.024 OA 
HETATM   25  C   UNL     1      -6.851   2.625  69.282  1.00  0.00    -0.033 C  
ENDBRANCH  12  22
ENDBRANCH   4   9
BRANCH   8  26
HETATM   26  C   UNL     1      -9.365  13.298  66.972  1.00  0.00    -0.242 A  
HETATM   27  C   UNL     1     -10.754  14.404  65.303  1.00  0.00    -0.375 A  
HETATM   28  C   UNL     1      -9.630  14.389  67.827  1.00  0.00    -0.216 A  
HETATM   29  O   UNL     1     -11.295  14.458  64.052  1.00  0.00    -0.598 OA 
HETATM   30  C   UNL     1     -10.969  15.483  66.145  1.00  0.00    -0.247 A  
HETATM   31  H   UNL     1     -11.812  15.204  63.773  1.00  0.00     0.000 HD 
HETATM   32  C   UNL     1     -10.419  15.468  67.419  1.00  0.00    -0.281 A  
HETATM   33  C   UNL     1      -9.995  13.306  65.714  1.00  0.00    -0.261 A  
ENDBRANCH   8  26
TORSDOF 4
ENDMDL
MODEL       94
REMARK 921   NORMALIZED FREE ENERGY PREDICTED BY IDOCK:   -3.86 KCAL/MOL
REMARK 922        TOTAL FREE ENERGY PREDICTED BY IDOCK:   -5.36 KCAL/MOL
REMARK 923 INTER-LIGAND FREE ENERGY PREDICTED BY IDOCK:   -5.99 KCAL/MOL
REMARK 924 INTRA-LIGAND FREE ENERGY PREDICTED BY IDOCK:    0.63 KCAL/MOL
REMARK 927      BINDING AFFINITY PREDICTED BY RF-SCORE:    0.00 PKD
ROOT
HETATM    1  C   UNL     1     -10.924  13.159  67.922  1.00  0.00    -0.271 C  
HETATM    2  C   UNL     1     -11.877  11.980  68.238  1.00  0.00    -0.351 C  
HETATM    3  C   UNL     1     -11.393  10.759  67.421  1.00  0.00    -0.160 C  
HETATM    4  N   UNL     1     -10.069  10.319  67.887  1.00  0.00    -0.164 NA 
HETATM    5  C   UNL     1     -13.098  10.561  69.993  1.00  0.00     0.201 C  
HETATM    6  C   UNL     1     -10.121   9.909  69.292  1.00  0.00    -0.203 C  
HETATM    7  C   UNL     1     -10.624  11.026  70.202  1.00  0.00     0.315 C  
HETATM    8  C   UNL     1     -11.990  11.626  69.772  1.00  0.00    -0.402 C  
ENDROOT
BRANCH   4   9
HETATM    9  C   UNL     1      -9.514   9.277  67.014  1.00  0.00    -0.159 C  
HETATM   10  C   UNL     1      -9.302   7.918  67.709  1.00  0.00    -0.153 C  
HETATM   11  C   UNL     1      -8.783   6.909  66.695  1.00  0.00    -0.128 C  
HETATM   12  N   UNL     1      -7.519   7.136  66.183  1.00  0.00    -0.078 N  
HETATM   13  O   UNL     1      -9.461   5.947  66.356  1.00  0.00    -0.154 OA 
HETATM   14  C   UNL     1      -8.397   8.007  68.953  1.00  0.00    -0.126 C  
HETATM   15  H   UNL     1      -6.954   7.921  66.507  1.00  0.00     0.000 HD 
BRANCH  14  16
HETATM   16  C   UNL     1      -8.387   6.720  69.748  1.00  0.00    -0.132 A  
HETATM   17  C   UNL     1      -9.553   4.772  70.614  1.00  0.00    -0.255 A  
HETATM   18  C   UNL     1      -9.573   5.999  69.946  1.00  0.00    -0.188 A  
HETATM   19  C   UNL     1      -7.187   6.199  70.250  1.00  0.00    -0.083 A  
HETATM   20  C   UNL     1      -8.348   4.253  71.087  1.00  0.00    -0.097 A  
HETATM   21  C   UNL     1      -7.168   4.970  70.909  1.00  0.00    -0.060 A  
ENDBRANCH  14  16
BRANCH  12  22
HETATM   22  C   UNL     1      -7.016   6.213  65.158  1.00  0.00    -0.056 C  
HETATM   23  O   UNL     1      -5.924   5.254  67.077  1.00  0.00    -0.024 OA 
HETATM   24  O   UNL     1      -5.377   4.424  65.045  1.00  0.00    -0.012 OA 
HETATM   25  C   UNL     1      -6.019   5.212  65.724  1.00  0.00    -0.022 C  
ENDBRANCH  12  22
ENDBRANCH   4   9
BRANCH   8  26
HETATM   26  C   UNL     1     -12.380  12.823  70.676  1.00  0.00    -0.381 A  
HETATM   27  C   UNL     1     -12.206  15.171  71.305  1.00  0.00    -0.333 A  
HETATM   28  C   UNL     1     -13.273  12.662  71.756  1.00  0.00    -0.457 A  
HETATM   29  O   UNL     1     -11.669  16.413  71.131  1.00  0.00    -0.610 OA 
HETATM   30  C   UNL     1     -13.055  14.982  72.384  1.00  0.00    -0.462 A  
HETATM   31  H   UNL     1     -11.881  17.126  71.721  1.00  0.00     0.000 HD 
HETATM   32  C   UNL     1     -13.605  13.726  72.600  1.00  0.00    -0.617 A  
HETATM   33  C   UNL     1     -11.895  14.122  70.437  1.00  0.00    -0.367 A  
ENDBRANCH   8  26
TORSDOF 4
ENDMDL
MODEL       95
REMARK 921   NORMALIZED FREE ENERGY PREDICTED BY IDOCK:   -3.85 KCAL/MOL
REMARK 922        TOTAL FREE ENERGY PREDICTED BY IDOCK:   -5.36 KCAL/MOL
REMARK 923 INTER-LIGAND FREE ENERGY PREDICTED BY IDOCK:   -6.04 KCAL/MOL
REMARK 924 INTRA-LIGAND FREE ENERGY PREDICTED BY IDOCK:    0.69 KCAL/MOL
REMARK 927      BINDING AFFINITY PREDICTED BY RF-SCORE:    0.00 PKD
ROOT
HETATM    1  C   UNL     1     -10.625  11.211  67.571  1.00  0.00    -0.258 C  
HETATM    2  C   UNL     1     -11.490  10.242  68.414  1.00  0.00    -0.163 C  
HETATM    3  C   UNL     1     -10.977   8.808  68.146  1.00  0.00     0.147 C  
HETATM    4  N   UNL     1      -9.608   8.646  68.659  1.00  0.00    -0.153 NA 
HETATM    5  C   UNL     1     -12.537   9.649  70.680  1.00  0.00    -0.125 C  
HETATM    6  C   UNL     1      -9.566   8.859  70.107  1.00  0.00    -0.180 C  
HETATM    7  C   UNL     1     -10.088  10.238  70.505  1.00  0.00     0.219 C  
HETATM    8  C   UNL     1     -11.506  10.559  69.960  1.00  0.00    -0.393 C  
ENDROOT
BRANCH   4   9
HETATM    9  C   UNL     1      -9.037   7.353  68.261  1.00  0.00    -0.128 C  
HETATM   10  C   UNL     1      -9.472   6.171  69.150  1.00  0.00    -0.144 C  
HETATM   11  C   UNL     1      -8.869   4.883  68.606  1.00  0.00    -0.098 C  
HETATM   12  N   UNL     1      -7.493   4.764  68.675  1.00  0.00    -0.065 N  
HETATM   13  O   UNL     1      -9.577   4.004  68.132  1.00  0.00    -0.165 OA 
HETATM   14  C   UNL     1      -9.145   6.379  70.641  1.00  0.00    -0.148 C  
HETATM   15  H   UNL     1      -6.923   5.491  69.109  1.00  0.00     0.000 HD 
BRANCH  14  16
HETATM   16  C   UNL     1      -9.780   5.323  71.520  1.00  0.00    -0.215 A  
HETATM   17  C   UNL     1      -9.711   3.124  72.551  1.00  0.00    -0.206 A  
HETATM   18  C   UNL     1      -9.167   4.072  71.681  1.00  0.00    -0.186 A  
HETATM   19  C   UNL     1     -10.958   5.596  72.228  1.00  0.00    -0.312 A  
HETATM   20  C   UNL     1     -10.870   3.418  73.269  1.00  0.00    -0.287 A  
HETATM   21  C   UNL     1     -11.495   4.651  73.102  1.00  0.00    -0.317 A  
ENDBRANCH  14  16
BRANCH  12  22
HETATM   22  C   UNL     1      -6.878   3.561  68.104  1.00  0.00    -0.050 C  
HETATM   23  O   UNL     1      -5.970   3.411  70.328  1.00  0.00    -0.017 OA 
HETATM   24  O   UNL     1      -5.211   1.934  68.793  1.00  0.00    -0.011 OA 
HETATM   25  C   UNL     1      -5.928   2.881  69.080  1.00  0.00    -0.024 C  
ENDBRANCH  12  22
ENDBRANCH   4   9
BRANCH   8  26
HETATM   26  C   UNL     1     -11.920  12.010  70.310  1.00  0.00    -0.398 A  
HETATM   27  C   UNL     1     -13.253  13.604  71.583  1.00  0.00    -0.367 A  
HETATM   28  C   UNL     1     -11.351  13.114  69.640  1.00  0.00    -0.182 A  
HETATM   29  O   UNL     1     -14.215  13.877  72.511  1.00  0.00    -0.671 OA 
HETATM   30  C   UNL     1     -12.711  14.671  70.885  1.00  0.00    -0.413 A  
HETATM   31  H   UNL     1     -14.492  14.770  72.682  1.00  0.00     0.000 HD 
HETATM   32  C   UNL     1     -11.743  14.426  69.920  1.00  0.00    -0.363 A  
HETATM   33  C   UNL     1     -12.845  12.293  71.332  1.00  0.00    -0.373 A  
ENDBRANCH   8  26
TORSDOF 4
ENDMDL
MODEL       96
REMARK 921   NORMALIZED FREE ENERGY PREDICTED BY IDOCK:   -3.55 KCAL/MOL
REMARK 922        TOTAL FREE ENERGY PREDICTED BY IDOCK:   -4.98 KCAL/MOL
REMARK 923 INTER-LIGAND FREE ENERGY PREDICTED BY IDOCK:   -5.07 KCAL/MOL
REMARK 924 INTRA-LIGAND FREE ENERGY PREDICTED BY IDOCK:    0.09 KCAL/MOL
REMARK 927      BINDING AFFINITY PREDICTED BY RF-SCORE:    0.00 PKD
ROOT
HETATM    1  C   UNL     1      -9.056   8.862  65.126  1.00  0.00    -0.157 C  
HETATM    2  C   UNL     1      -8.262   8.691  66.445  1.00  0.00    -0.111 C  
HETATM    3  C   UNL     1      -8.645   9.867  67.374  1.00  0.00    -0.125 C  
HETATM    4  N   UNL     1     -10.060   9.777  67.763  1.00  0.00    -0.169 NA 
HETATM    5  C   UNL     1      -7.514   7.165  68.367  1.00  0.00    -0.106 C  
HETATM    6  C   UNL     1     -10.321   8.538  68.499  1.00  0.00    -0.198 C  
HETATM    7  C   UNL     1      -9.945   7.296  67.695  1.00  0.00    -0.207 C  
HETATM    8  C   UNL     1      -8.486   7.304  67.165  1.00  0.00    -0.118 C  
ENDROOT
BRANCH   4   9
HETATM    9  C   UNL     1     -10.490  10.973  68.498  1.00  0.00    -0.189 C  
HETATM   10  C   UNL     1     -11.123  12.065  67.613  1.00  0.00    -0.319 C  
HETATM   11  C   UNL     1     -11.581  13.221  68.490  1.00  0.00    -0.333 C  
HETATM   12  N   UNL     1     -10.592  13.948  69.128  1.00  0.00    -0.402 N  
HETATM   13  O   UNL     1     -12.770  13.485  68.619  1.00  0.00     0.377 OA 
HETATM   14  C   UNL     1     -10.199  12.533  66.472  1.00  0.00    -0.255 C  
HETATM   15  H   UNL     1      -9.605  13.737  68.977  1.00  0.00     0.000 HD 
BRANCH  14  16
HETATM   16  C   UNL     1     -10.916  13.429  65.486  1.00  0.00    -0.294 A  
HETATM   17  C   UNL     1     -12.353  13.697  63.545  1.00  0.00    -0.265 A  
HETATM   18  C   UNL     1     -11.628  12.875  64.412  1.00  0.00    -0.415 A  
HETATM   19  C   UNL     1     -10.926  14.819  65.659  1.00  0.00    -0.345 A  
HETATM   20  C   UNL     1     -12.375  15.077  63.744  1.00  0.00     0.316 A  
HETATM   21  C   UNL     1     -11.657  15.636  64.797  1.00  0.00    -0.218 A  
ENDBRANCH  14  16
BRANCH  12  22
HETATM   22  C   UNL     1     -11.006  15.030  70.027  1.00  0.00    -0.244 C  
HETATM   23  O   UNL     1     -11.795  13.162  71.323  1.00  0.00     0.234 OA 
HETATM   24  O   UNL     1     -12.337  15.234  72.049  1.00  0.00    -0.316 OA 
HETATM   25  C   UNL     1     -11.787  14.515  71.228  1.00  0.00    -0.281 C  
ENDBRANCH  12  22
ENDBRANCH   4   9
BRANCH   8  26
HETATM   26  C   UNL     1      -8.214   6.069  66.269  1.00  0.00    -0.118 A  
HETATM   27  C   UNL     1      -8.870   3.908  65.353  1.00  0.00    -0.123 A  
HETATM   28  C   UNL     1      -7.012   5.944  65.541  1.00  0.00    -0.064 A  
HETATM   29  O   UNL     1      -9.751   2.870  65.267  1.00  0.00    -0.346 OA 
HETATM   30  C   UNL     1      -7.666   3.788  64.678  1.00  0.00    -0.081 A  
HETATM   31  H   UNL     1      -9.550   2.098  64.751  1.00  0.00     0.000 HD 
HETATM   32  C   UNL     1      -6.740   4.819  64.758  1.00  0.00    -0.044 A  
HETATM   33  C   UNL     1      -9.164   5.043  66.111  1.00  0.00    -0.149 A  
ENDBRANCH   8  26
TORSDOF 4
ENDMDL
MODEL       97
REMARK 921   NORMALIZED FREE ENERGY PREDICTED BY IDOCK:   -3.47 KCAL/MOL
REMARK 922        TOTAL FREE ENERGY PREDICTED BY IDOCK:   -4.89 KCAL/MOL
REMARK 923 INTER-LIGAND FREE ENERGY PREDICTED BY IDOCK:   -5.20 KCAL/MOL
REMARK 924 INTRA-LIGAND FREE ENERGY PREDICTED BY IDOCK:    0.31 KCAL/MOL
REMARK 927      BINDING AFFINITY PREDICTED BY RF-SCORE:    0.00 PKD
ROOT
HETATM    1  C   UNL     1     -10.991  10.490  70.423  1.00  0.00    -0.252 C  
HETATM    2  C   UNL     1      -9.773  10.016  69.593  1.00  0.00    -0.255 C  
HETATM    3  C   UNL     1      -9.354   8.628  70.132  1.00  0.00    -0.164 C  
HETATM    4  N   UNL     1     -10.407   7.635  69.871  1.00  0.00    -0.219 NA 
HETATM    5  C   UNL     1      -8.699   9.657  67.290  1.00  0.00    -0.136 C  
HETATM    6  C   UNL     1     -10.642   7.490  68.433  1.00  0.00    -0.134 C  
HETATM    7  C   UNL     1     -11.029   8.811  67.773  1.00  0.00     0.063 C  
HETATM    8  C   UNL     1     -10.026   9.966  68.035  1.00  0.00    -0.179 C  
ENDROOT
BRANCH   4   9
HETATM    9  C   UNL     1     -10.109   6.356  70.528  1.00  0.00    -0.186 C  
HETATM   10  C   UNL     1      -9.377   5.340  69.628  1.00  0.00    -0.174 C  
HETATM   11  C   UNL     1      -9.071   4.084  70.432  1.00  0.00    -0.114 C  
HETATM   12  N   UNL     1     -10.155   3.330  70.843  1.00  0.00     0.152 N  
HETATM   13  O   UNL     1      -7.919   3.768  70.696  1.00  0.00    -0.053 OA 
HETATM   14  C   UNL     1     -10.138   5.024  68.326  1.00  0.00    -0.170 C  
HETATM   15  H   UNL     1     -11.106   3.589  70.580  1.00  0.00     0.000 HD 
BRANCH  14  16
HETATM   16  C   UNL     1      -9.305   4.211  67.359  1.00  0.00    -0.204 A  
HETATM   17  C   UNL     1      -7.686   4.103  65.551  1.00  0.00    -0.086 A  
HETATM   18  C   UNL     1      -8.513   4.849  66.393  1.00  0.00    -0.111 A  
HETATM   19  C   UNL     1      -9.268   2.813  67.448  1.00  0.00    -0.210 A  
HETATM   20  C   UNL     1      -7.639   2.714  65.667  1.00  0.00    -0.076 A  
HETATM   21  C   UNL     1      -8.435   2.071  66.611  1.00  0.00    -0.100 A  
ENDBRANCH  14  16
BRANCH  12  22
HETATM   22  C   UNL     1      -9.894   2.147  71.671  1.00  0.00    -0.147 C  
HETATM   23  O   UNL     1     -10.428   3.705  73.426  1.00  0.00    -0.152 OA 
HETATM   24  O   UNL     1      -9.672   1.665  74.041  1.00  0.00    -0.068 OA 
HETATM   25  C   UNL     1      -9.968   2.457  73.159  1.00  0.00    -0.112 C  
ENDBRANCH  12  22
ENDBRANCH   4   9
BRANCH   8  26
HETATM   26  C   UNL     1     -10.540  11.296  67.429  1.00  0.00    -0.262 A  
HETATM   27  C   UNL     1     -11.882  12.530  65.811  1.00  0.00    -0.437 A  
HETATM   28  C   UNL     1     -10.108  12.543  67.929  1.00  0.00    -0.214 A  
HETATM   29  O   UNL     1     -12.730  12.557  64.743  1.00  0.00    -0.640 OA 
HETATM   30  C   UNL     1     -11.414  13.742  66.292  1.00  0.00    -0.349 A  
HETATM   31  H   UNL     1     -13.000  13.379  64.352  1.00  0.00     0.000 HD 
HETATM   32  C   UNL     1     -10.536  13.749  67.368  1.00  0.00    -0.256 A  
HETATM   33  C   UNL     1     -11.485  11.321  66.387  1.00  0.00     0.043 A  
ENDBRANCH   8  26
TORSDOF 4
ENDMDL
MODEL       98
REMARK 921   NORMALIZED FREE ENERGY PREDICTED BY IDOCK:   -3.47 KCAL/MOL
REMARK 922        TOTAL FREE ENERGY PREDICTED BY IDOCK:   -4.89 KCAL/MOL
REMARK 923 INTER-LIGAND FREE ENERGY PREDICTED BY IDOCK:   -4.47 KCAL/MOL
REMARK 924 INTRA-LIGAND FREE ENERGY PREDICTED BY IDOCK:   -0.42 KCAL/MOL
REMARK 927      BINDING AFFINITY PREDICTED BY RF-SCORE:    0.00 PKD
ROOT
HETATM    1  C   UNL     1      -5.877  11.910  66.458  1.00  0.00     0.168 C  
HETATM    2  C   UNL     1      -7.266  11.588  67.061  1.00  0.00    -0.146 C  
HETATM    3  C   UNL     1      -7.180  10.184  67.705  1.00  0.00    -0.088 C  
HETATM    4  N   UNL     1      -6.258  10.198  68.850  1.00  0.00    -0.043 NA 
HETATM    5  C   UNL     1      -9.254  12.336  68.502  1.00  0.00    -0.089 C  
HETATM    6  C   UNL     1      -6.726  11.122  69.885  1.00  0.00    -0.097 C  
HETATM    7  C   UNL     1      -6.888  12.546  69.359  1.00  0.00     0.033 C  
HETATM    8  C   UNL     1      -7.789  12.656  68.100  1.00  0.00    -0.145 C  
ENDROOT
BRANCH   4   9
HETATM    9  C   UNL     1      -6.025   8.843  69.365  1.00  0.00    -0.037 C  
HETATM   10  C   UNL     1      -7.278   8.170  69.960  1.00  0.00    -0.056 C  
HETATM   11  C   UNL     1      -6.929   6.756  70.403  1.00  0.00    -0.063 C  
HETATM   12  N   UNL     1      -6.046   6.637  71.461  1.00  0.00    -0.037 N  
HETATM   13  O   UNL     1      -7.410   5.781  69.842  1.00  0.00    -0.067 OA 
HETATM   14  C   UNL     1      -7.928   8.989  71.093  1.00  0.00    -0.169 C  
HETATM   15  H   UNL     1      -5.685   7.462  71.940  1.00  0.00     0.000 HD 
BRANCH  14  16
HETATM   16  C   UNL     1      -9.273   8.431  71.503  1.00  0.00    -0.257 A  
HETATM   17  C   UNL     1     -10.787   7.648  73.234  1.00  0.00    -0.379 A  
HETATM   18  C   UNL     1      -9.522   8.090  72.841  1.00  0.00    -0.346 A  
HETATM   19  C   UNL     1     -10.308   8.299  70.568  1.00  0.00    -0.217 A  
HETATM   20  C   UNL     1     -11.815   7.545  72.298  1.00  0.00    -0.331 A  
HETATM   21  C   UNL     1     -11.572   7.865  70.965  1.00  0.00    -0.299 A  
ENDBRANCH  14  16
BRANCH  12  22
HETATM   22  C   UNL     1      -5.643   5.287  71.871  1.00  0.00    -0.016 C  
HETATM   23  O   UNL     1      -6.814   5.939  73.871  1.00  0.00    -0.079 OA 
HETATM   24  O   UNL     1      -5.696   3.974  73.914  1.00  0.00    -0.004 OA 
HETATM   25  C   UNL     1      -6.029   4.984  73.312  1.00  0.00    -0.023 C  
ENDBRANCH  12  22
ENDBRANCH   4   9
BRANCH   8  26
HETATM   26  C   UNL     1      -7.817  14.109  67.562  1.00  0.00    -0.207 A  
HETATM   27  C   UNL     1      -8.991  15.995  66.560  1.00  0.00    -0.292 A  
HETATM   28  C   UNL     1      -6.652  14.905  67.547  1.00  0.00    -0.140 A  
HETATM   29  O   UNL     1     -10.122  16.549  66.034  1.00  0.00    -0.319 OA 
HETATM   30  C   UNL     1      -7.828  16.745  66.519  1.00  0.00    -0.338 A  
HETATM   31  H   UNL     1     -10.112  17.424  65.665  1.00  0.00     0.000 HD 
HETATM   32  C   UNL     1      -6.655  16.204  67.030  1.00  0.00    -0.150 A  
HETATM   33  C   UNL     1      -9.004  14.709  67.104  1.00  0.00    -0.240 A  
ENDBRANCH   8  26
TORSDOF 4
ENDMDL
MODEL       99
REMARK 921   NORMALIZED FREE ENERGY PREDICTED BY IDOCK:   -3.24 KCAL/MOL
REMARK 922        TOTAL FREE ENERGY PREDICTED BY IDOCK:   -4.60 KCAL/MOL
REMARK 923 INTER-LIGAND FREE ENERGY PREDICTED BY IDOCK:   -6.00 KCAL/MOL
REMARK 924 INTRA-LIGAND FREE ENERGY PREDICTED BY IDOCK:    1.40 KCAL/MOL
REMARK 927      BINDING AFFINITY PREDICTED BY RF-SCORE:    0.00 PKD
ROOT
HETATM    1  C   UNL     1      -9.689   8.035  68.974  1.00  0.00    -0.159 C  
HETATM    2  C   UNL     1      -8.451   8.159  68.053  1.00  0.00    -0.133 C  
HETATM    3  C   UNL     1      -8.205   9.666  67.805  1.00  0.00    -0.114 C  
HETATM    4  N   UNL     1      -7.823  10.338  69.055  1.00  0.00    -0.104 NA 
HETATM    5  C   UNL     1      -6.030   7.484  67.536  1.00  0.00    -0.043 C  
HETATM    6  C   UNL     1      -6.580   9.778  69.589  1.00  0.00    -0.052 C  
HETATM    7  C   UNL     1      -6.684   8.276  69.843  1.00  0.00    -0.043 C  
HETATM    8  C   UNL     1      -7.151   7.457  68.610  1.00  0.00    -0.084 C  
ENDROOT
BRANCH   4   9
HETATM    9  C   UNL     1      -7.756  11.795  68.880  1.00  0.00    -0.041 C  
HETATM   10  C   UNL     1      -8.880  12.377  68.001  1.00  0.00    -0.187 C  
HETATM   11  C   UNL     1      -8.742  13.892  67.944  1.00  0.00    -0.184 C  
HETATM   12  N   UNL     1      -7.625  14.390  67.298  1.00  0.00    -0.305 N  
HETATM   13  O   UNL     1      -9.583  14.623  68.450  1.00  0.00    -0.204 OA 
HETATM   14  C   UNL     1      -8.940  11.747  66.596  1.00  0.00    -0.195 C  
HETATM   15  H   UNL     1      -6.956  13.766  66.848  1.00  0.00     0.000 HD 
BRANCH  14  16
HETATM   16  C   UNL     1     -10.181  12.162  65.835  1.00  0.00    -0.272 A  
HETATM   17  C   UNL     1     -12.407  13.135  65.809  1.00  0.00    -0.496 A  
HETATM   18  C   UNL     1     -11.291  12.682  66.516  1.00  0.00    -0.377 A  
HETATM   19  C   UNL     1     -10.221  12.085  64.436  1.00  0.00    -0.332 A  
HETATM   20  C   UNL     1     -12.424  13.077  64.416  1.00  0.00    -0.406 A  
HETATM   21  C   UNL     1     -11.333  12.546  63.732  1.00  0.00    -0.534 A  
ENDBRANCH  14  16
BRANCH  12  22
HETATM   22  C   UNL     1      -7.434  15.845  67.279  1.00  0.00    -0.210 C  
HETATM   23  O   UNL     1      -9.154  15.685  65.603  1.00  0.00    -0.238 OA 
HETATM   24  O   UNL     1      -8.194  17.708  65.919  1.00  0.00    -0.534 OA 
HETATM   25  C   UNL     1      -8.273  16.523  66.205  1.00  0.00    -0.325 C  
ENDBRANCH  12  22
ENDBRANCH   4   9
BRANCH   8  26
HETATM   26  C   UNL     1      -7.339   5.963  68.974  1.00  0.00    -0.084 A  
HETATM   27  C   UNL     1      -6.494   3.857  69.861  1.00  0.00    -0.032 A  
HETATM   28  C   UNL     1      -8.557   5.297  68.720  1.00  0.00    -0.091 A  
HETATM   29  O   UNL     1      -5.483   3.110  70.393  1.00  0.00    -0.011 OA 
HETATM   30  C   UNL     1      -7.684   3.213  69.568  1.00  0.00    -0.048 A  
HETATM   31  H   UNL     1      -5.598   2.183  70.567  1.00  0.00     0.000 HD 
HETATM   32  C   UNL     1      -8.727   3.940  69.011  1.00  0.00    -0.133 A  
HETATM   33  C   UNL     1      -6.326   5.219  69.605  1.00  0.00    -0.030 A  
ENDBRANCH   8  26
TORSDOF 4
ENDMDL
MODEL      100
REMARK 921   NORMALIZED FREE ENERGY PREDICTED BY IDOCK:   -3.12 KCAL/MOL
REMARK 922        TOTAL FREE ENERGY PREDICTED BY IDOCK:   -4.45 KCAL/MOL
REMARK 923 INTER-LIGAND FREE ENERGY PREDICTED BY IDOCK:   -4.63 KCAL/MOL
REMARK 924 INTRA-LIGAND FREE ENERGY PREDICTED BY IDOCK:    0.18 KCAL/MOL
REMARK 927      BINDING AFFINITY PREDICTED BY RF-SCORE:    0.00 PKD
ROOT
HETATM    1  C   UNL     1      -8.673  11.140  66.102  1.00  0.00    -0.188 C  
HETATM    2  C   UNL     1      -9.724  10.621  67.114  1.00  0.00    -0.199 C  
HETATM    3  C   UNL     1      -9.436   9.120  67.355  1.00  0.00    -0.143 C  
HETATM    4  N   UNL     1      -8.139   8.945  68.023  1.00  0.00    -0.106 NA 
HETATM    5  C   UNL     1     -10.962  10.936  69.340  1.00  0.00    -0.304 C  
HETATM    6  C   UNL     1      -8.133   9.603  69.332  1.00  0.00    -0.118 C  
HETATM    7  C   UNL     1      -8.444  11.094  69.230  1.00  0.00     0.121 C  
HETATM    8  C   UNL     1      -9.763  11.416  68.478  1.00  0.00    -0.199 C  
ENDROOT
BRANCH   4   9
HETATM    9  C   UNL     1      -7.766   7.527  68.103  1.00  0.00    -0.120 C  
HETATM   10  C   UNL     1      -8.447   6.758  69.252  1.00  0.00    -0.129 C  
HETATM   11  C   UNL     1      -8.032   5.295  69.196  1.00  0.00    -0.089 C  
HETATM   12  N   UNL     1      -6.702   5.015  69.452  1.00  0.00    -0.050 N  
HETATM   13  O   UNL     1      -8.844   4.417  68.934  1.00  0.00    -0.091 OA 
HETATM   14  C   UNL     1      -8.187   7.381  70.638  1.00  0.00    -0.112 C  
HETATM   15  H   UNL     1      -6.049   5.757  69.707  1.00  0.00     0.000 HD 
BRANCH  14  16
HETATM   16  C   UNL     1      -9.043   6.755  71.717  1.00  0.00    -0.140 A  
HETATM   17  C   UNL     1      -9.237   5.641  73.868  1.00  0.00    -0.126 A  
HETATM   18  C   UNL     1      -8.448   6.152  72.835  1.00  0.00    -0.119 A  
HETATM   19  C   UNL     1     -10.441   6.817  71.646  1.00  0.00    -0.231 A  
HETATM   20  C   UNL     1     -10.627   5.732  73.797  1.00  0.00    -0.285 A  
HETATM   21  C   UNL     1     -11.227   6.314  72.683  1.00  0.00    -0.302 A  
ENDBRANCH  14  16
BRANCH  12  22
HETATM   22  C   UNL     1      -6.260   3.620  69.346  1.00  0.00    -0.028 C  
HETATM   23  O   UNL     1      -5.465   4.416  67.217  1.00  0.00    -0.012 OA 
HETATM   24  O   UNL     1      -5.313   2.196  67.621  1.00  0.00    -0.015 OA 
HETATM   25  C   UNL     1      -5.644   3.313  67.988  1.00  0.00    -0.018 C  
ENDBRANCH  12  22
ENDBRANCH   4   9
BRANCH   8  26
HETATM   26  C   UNL     1      -9.953  12.945  68.319  1.00  0.00    -0.234 A  
HETATM   27  C   UNL     1      -9.135  15.143  67.656  1.00  0.00    -0.180 A  
HETATM   28  C   UNL     1     -11.144  13.580  68.730  1.00  0.00    -0.298 A  
HETATM   29  O   UNL     1      -8.148  15.946  67.163  1.00  0.00    -0.170 OA 
HETATM   30  C   UNL     1     -10.297  15.751  68.102  1.00  0.00    -0.242 A  
HETATM   31  H   UNL     1      -8.261  16.888  67.116  1.00  0.00     0.000 HD 
HETATM   32  C   UNL     1     -11.314  14.964  68.626  1.00  0.00    -0.309 A  
HETATM   33  C   UNL     1      -8.970  13.758  67.726  1.00  0.00    -0.194 A  
ENDBRANCH   8  26
TORSDOF 4
ENDMDL
MODEL      101
REMARK 921   NORMALIZED FREE ENERGY PREDICTED BY IDOCK:   -2.97 KCAL/MOL
REMARK 922        TOTAL FREE ENERGY PREDICTED BY IDOCK:   -4.27 KCAL/MOL
REMARK 923 INTER-LIGAND FREE ENERGY PREDICTED BY IDOCK:   -3.67 KCAL/MOL
REMARK 924 INTRA-LIGAND FREE ENERGY PREDICTED BY IDOCK:   -0.59 KCAL/MOL
REMARK 927      BINDING AFFINITY PREDICTED BY RF-SCORE:    0.00 PKD
ROOT
HETATM    1  C   UNL     1      -9.172  14.627  69.222  1.00  0.00     0.030 C  
HETATM    2  C   UNL     1      -8.105  14.951  68.147  1.00  0.00    -0.137 C  
HETATM    3  C   UNL     1      -7.685  13.615  67.491  1.00  0.00    -0.173 C  
HETATM    4  N   UNL     1      -8.811  13.028  66.751  1.00  0.00    -0.181 NA 
HETATM    5  C   UNL     1      -7.380  16.382  66.145  1.00  0.00     0.326 C  
HETATM    6  C   UNL     1      -9.250  13.921  65.676  1.00  0.00     0.432 C  
HETATM    7  C   UNL     1      -9.659  15.296  66.196  1.00  0.00    -0.353 C  
HETATM    8  C   UNL     1      -8.573  15.994  67.058  1.00  0.00    -0.238 C  
ENDROOT
BRANCH   4   9
HETATM    9  C   UNL     1      -8.490  11.679  66.269  1.00  0.00    -0.066 C  
HETATM   10  C   UNL     1      -8.505  10.596  67.366  1.00  0.00    -0.122 C  
HETATM   11  C   UNL     1      -8.219   9.239  66.739  1.00  0.00    -0.115 C  
HETATM   12  N   UNL     1      -6.954   9.052  66.211  1.00  0.00    -0.078 N  
HETATM   13  O   UNL     1      -9.074   8.364  66.708  1.00  0.00    -0.142 OA 
HETATM   14  C   UNL     1      -7.553  10.905  68.538  1.00  0.00    -0.111 C  
HETATM   15  H   UNL     1      -6.243   9.780  66.282  1.00  0.00     0.000 HD 
BRANCH  14  16
HETATM   16  C   UNL     1      -7.751   9.958  69.702  1.00  0.00    -0.149 A  
HETATM   17  C   UNL     1      -6.823   8.494  71.404  1.00  0.00    -0.076 A  
HETATM   18  C   UNL     1      -6.652   9.309  70.283  1.00  0.00    -0.062 A  
HETATM   19  C   UNL     1      -9.024   9.757  70.252  1.00  0.00    -0.198 A  
HETATM   20  C   UNL     1      -8.092   8.323  71.957  1.00  0.00    -0.188 A  
HETATM   21  C   UNL     1      -9.191   8.950  71.376  1.00  0.00    -0.328 A  
ENDBRANCH  14  16
BRANCH  12  22
HETATM   22  C   UNL     1      -6.668   7.776  65.547  1.00  0.00    -0.045 C  
HETATM   23  O   UNL     1      -5.969   9.264  63.789  1.00  0.00    -0.084 OA 
HETATM   24  O   UNL     1      -6.015   7.052  63.322  1.00  0.00    -0.039 OA 
HETATM   25  C   UNL     1      -6.198   7.966  64.111  1.00  0.00    -0.057 C  
ENDBRANCH  12  22
ENDBRANCH   4   9
BRANCH   8  26
HETATM   26  C   UNL     1      -9.100  17.330  67.640  1.00  0.00    -0.228 A  
HETATM   27  C   UNL     1     -10.613  19.240  67.576  1.00  0.00    -0.474 A  
HETATM   28  C   UNL     1      -8.519  17.907  68.789  1.00  0.00    -0.212 A  
HETATM   29  O   UNL     1     -11.621  19.940  66.980  1.00  0.00     0.328 OA 
HETATM   30  C   UNL     1     -10.002  19.808  68.682  1.00  0.00    -0.535 A  
HETATM   31  H   UNL     1     -11.902  20.781  67.320  1.00  0.00     0.000 HD 
HETATM   32  C   UNL     1      -8.961  19.130  69.302  1.00  0.00    -0.030 A  
HETATM   33  C   UNL     1     -10.199  18.003  67.076  1.00  0.00    -0.367 A  
ENDBRANCH   8  26
TORSDOF 4
ENDMDL
MODEL      102
REMARK 921   NORMALIZED FREE ENERGY PREDICTED BY IDOCK:   -2.88 KCAL/MOL
REMARK 922        TOTAL FREE ENERGY PREDICTED BY IDOCK:   -4.15 KCAL/MOL
REMARK 923 INTER-LIGAND FREE ENERGY PREDICTED BY IDOCK:   -4.16 KCAL/MOL
REMARK 924 INTRA-LIGAND FREE ENERGY PREDICTED BY IDOCK:    0.01 KCAL/MOL
REMARK 927      BINDING AFFINITY PREDICTED BY RF-SCORE:    0.00 PKD
ROOT
HETATM    1  C   UNL     1      -8.303   6.794  67.205  1.00  0.00    -0.121 C  
HETATM    2  C   UNL     1      -8.756   7.384  65.846  1.00  0.00    -0.161 C  
HETATM    3  C   UNL     1      -9.182   8.850  66.094  1.00  0.00    -0.217 C  
HETATM    4  N   UNL     1      -8.025   9.661  66.499  1.00  0.00    -0.111 NA 
HETATM    5  C   UNL     1      -8.285   7.743  63.349  1.00  0.00     0.016 C  
HETATM    6  C   UNL     1      -7.005   9.677  65.447  1.00  0.00    -0.095 C  
HETATM    7  C   UNL     1      -6.527   8.274  65.084  1.00  0.00    -0.052 C  
HETATM    8  C   UNL     1      -7.670   7.295  64.703  1.00  0.00    -0.116 C  
ENDROOT
BRANCH   4   9
HETATM    9  C   UNL     1      -8.434  11.010  66.909  1.00  0.00    -0.139 C  
HETATM   10  C   UNL     1      -9.222  11.055  68.233  1.00  0.00    -0.165 C  
HETATM   11  C   UNL     1      -9.536  12.503  68.584  1.00  0.00    -0.021 C  
HETATM   12  N   UNL     1     -10.408  13.170  67.743  1.00  0.00    -0.226 N  
HETATM   13  O   UNL     1      -9.036  13.040  69.563  1.00  0.00     1.074 OA 
HETATM   14  C   UNL     1     -10.487  10.175  68.218  1.00  0.00    -0.244 C  
HETATM   15  H   UNL     1     -10.846  12.694  66.954  1.00  0.00     0.000 HD 
BRANCH  14  16
HETATM   16  C   UNL     1     -11.116  10.052  69.589  1.00  0.00    -0.300 A  
HETATM   17  C   UNL     1     -12.924  10.564  71.129  1.00  0.00    -0.506 A  
HETATM   18  C   UNL     1     -12.302  10.736  69.890  1.00  0.00    -0.340 A  
HETATM   19  C   UNL     1     -10.555   9.211  70.560  1.00  0.00    -0.287 A  
HETATM   20  C   UNL     1     -12.369   9.704  72.076  1.00  0.00    -0.376 A  
HETATM   21  C   UNL     1     -11.183   9.034  71.793  1.00  0.00    -0.448 A  
ENDBRANCH  14  16
BRANCH  12  22
HETATM   22  C   UNL     1     -10.683  14.585  68.020  1.00  0.00    -0.242 C  
HETATM   23  O   UNL     1     -12.333  13.604  69.472  1.00  0.00    -0.294 OA 
HETATM   24  O   UNL     1     -12.368  15.851  69.227  1.00  0.00    -0.197 OA 
HETATM   25  C   UNL     1     -11.875  14.769  68.949  1.00  0.00    -0.296 C  
ENDBRANCH  12  22
ENDBRANCH   4   9
BRANCH   8  26
HETATM   26  C   UNL     1      -7.120   5.867  64.455  1.00  0.00    -0.053 A  
HETATM   27  C   UNL     1      -7.306   3.647  63.468  1.00  0.00    -0.051 A  
HETATM   28  C   UNL     1      -5.902   5.444  65.028  1.00  0.00    -0.021 A  
HETATM   29  O   UNL     1      -7.993   2.726  62.733  1.00  0.00    -0.066 OA 
HETATM   30  C   UNL     1      -6.128   3.240  64.072  1.00  0.00    -0.018 A  
HETATM   31  H   UNL     1      -7.667   1.840  62.629  1.00  0.00     0.000 HD 
HETATM   32  C   UNL     1      -5.413   4.148  64.842  1.00  0.00    -0.013 A  
HETATM   33  C   UNL     1      -7.785   4.950  63.622  1.00  0.00    -0.073 A  
ENDBRANCH   8  26
TORSDOF 4
ENDMDL
MODEL      103
REMARK 921   NORMALIZED FREE ENERGY PREDICTED BY IDOCK:   -2.85 KCAL/MOL
REMARK 922        TOTAL FREE ENERGY PREDICTED BY IDOCK:   -4.12 KCAL/MOL
REMARK 923 INTER-LIGAND FREE ENERGY PREDICTED BY IDOCK:   -4.00 KCAL/MOL
REMARK 924 INTRA-LIGAND FREE ENERGY PREDICTED BY IDOCK:   -0.12 KCAL/MOL
REMARK 927      BINDING AFFINITY PREDICTED BY RF-SCORE:    0.00 PKD
ROOT
HETATM    1  C   UNL     1      -8.473   6.892  67.647  1.00  0.00    -0.122 C  
HETATM    2  C   UNL     1      -8.758   7.602  66.300  1.00  0.00    -0.170 C  
HETATM    3  C   UNL     1      -8.773   9.125  66.572  1.00  0.00    -0.128 C  
HETATM    4  N   UNL     1      -7.438   9.589  66.976  1.00  0.00    -0.091 NA 
HETATM    5  C   UNL     1      -8.221   7.859  63.804  1.00  0.00    -0.011 C  
HETATM    6  C   UNL     1      -6.458   9.347  65.915  1.00  0.00    -0.075 C  
HETATM    7  C   UNL     1      -6.376   7.872  65.529  1.00  0.00    -0.041 C  
HETATM    8  C   UNL     1      -7.743   7.242  65.146  1.00  0.00    -0.113 C  
ENDROOT
BRANCH   4   9
HETATM    9  C   UNL     1      -7.468  10.993  67.408  1.00  0.00    -0.106 C  
HETATM   10  C   UNL     1      -8.700  11.778  66.917  1.00  0.00    -0.189 C  
HETATM   11  C   UNL     1      -8.650  13.193  67.475  1.00  0.00    -0.196 C  
HETATM   12  N   UNL     1      -7.629  14.006  67.018  1.00  0.00    -0.314 N  
HETATM   13  O   UNL     1      -9.478  13.582  68.288  1.00  0.00    -0.209 OA 
HETATM   14  C   UNL     1      -8.858  11.764  65.384  1.00  0.00     0.256 C  
HETATM   15  H   UNL     1      -6.971  13.676  66.310  1.00  0.00     0.000 HD 
BRANCH  14  16
HETATM   16  C   UNL     1     -10.186  12.338  64.940  1.00  0.00    -0.307 A  
HETATM   17  C   UNL     1     -11.460  14.104  63.861  1.00  0.00     0.093 A  
HETATM   18  C   UNL     1     -10.247  13.605  64.340  1.00  0.00    -0.117 A  
HETATM   19  C   UNL     1     -11.366  11.594  65.069  1.00  0.00    -0.237 A  
HETATM   20  C   UNL     1     -12.623  13.342  63.974  1.00  0.00    -0.219 A  
HETATM   21  C   UNL     1     -12.575  12.091  64.583  1.00  0.00    -0.124 A  
ENDBRANCH  14  16
BRANCH  12  22
HETATM   22  C   UNL     1      -7.519  15.356  67.583  1.00  0.00    -0.173 C  
HETATM   23  O   UNL     1      -9.191  15.799  65.908  1.00  0.00    -0.340 OA 
HETATM   24  O   UNL     1      -8.354  17.570  67.037  1.00  0.00    -0.206 OA 
HETATM   25  C   UNL     1      -8.372  16.367  66.829  1.00  0.00    -0.250 C  
ENDBRANCH  12  22
ENDBRANCH   4   9
BRANCH   8  26
HETATM   26  C   UNL     1      -7.598   5.724  64.875  1.00  0.00    -0.088 A  
HETATM   27  C   UNL     1      -8.564   3.516  64.512  1.00  0.00    -0.097 A  
HETATM   28  C   UNL     1      -6.328   5.119  64.765  1.00  0.00    -0.034 A  
HETATM   29  O   UNL     1      -9.648   2.692  64.418  1.00  0.00    -0.144 OA 
HETATM   30  C   UNL     1      -7.308   2.936  64.447  1.00  0.00    -0.069 A  
HETATM   31  H   UNL     1      -9.543   1.756  64.299  1.00  0.00     0.000 HD 
HETATM   32  C   UNL     1      -6.184   3.744  64.557  1.00  0.00    -0.023 A  
HETATM   33  C   UNL     1      -8.718   4.893  64.687  1.00  0.00    -0.152 A  
ENDBRANCH   8  26
TORSDOF 4
ENDMDL
MODEL      104
REMARK 921   NORMALIZED FREE ENERGY PREDICTED BY IDOCK:   -2.80 KCAL/MOL
REMARK 922        TOTAL FREE ENERGY PREDICTED BY IDOCK:   -4.05 KCAL/MOL
REMARK 923 INTER-LIGAND FREE ENERGY PREDICTED BY IDOCK:   -3.97 KCAL/MOL
REMARK 924 INTRA-LIGAND FREE ENERGY PREDICTED BY IDOCK:   -0.08 KCAL/MOL
REMARK 927      BINDING AFFINITY PREDICTED BY RF-SCORE:    0.00 PKD
ROOT
HETATM    1  C   UNL     1      -9.162  11.229  65.138  1.00  0.00    -0.168 C  
HETATM    2  C   UNL     1      -9.664  10.416  66.357  1.00  0.00    -0.250 C  
HETATM    3  C   UNL     1      -9.248   8.942  66.136  1.00  0.00    -0.217 C  
HETATM    4  N   UNL     1      -7.784   8.811  66.163  1.00  0.00    -0.100 NA 
HETATM    5  C   UNL     1      -9.850  10.180  68.905  1.00  0.00    -0.194 C  
HETATM    6  C   UNL     1      -7.247   9.224  67.461  1.00  0.00    -0.080 C  
HETATM    7  C   UNL     1      -7.624  10.660  67.813  1.00  0.00    -0.095 C  
HETATM    8  C   UNL     1      -9.149  10.947  67.752  1.00  0.00    -0.149 C  
ENDROOT
BRANCH   4   9
HETATM    9  C   UNL     1      -7.361   7.457  65.781  1.00  0.00    -0.074 C  
HETATM   10  C   UNL     1      -7.896   6.345  66.705  1.00  0.00    -0.104 C  
HETATM   11  C   UNL     1      -7.445   4.991  66.177  1.00  0.00    -0.086 C  
HETATM   12  N   UNL     1      -6.088   4.729  66.218  1.00  0.00    -0.030 N  
HETATM   13  O   UNL     1      -8.252   4.182  65.739  1.00  0.00    -0.107 OA 
HETATM   14  C   UNL     1      -7.513   6.548  68.184  1.00  0.00    -0.095 C  
HETATM   15  H   UNL     1      -5.434   5.400  66.622  1.00  0.00     0.000 HD 
BRANCH  14  16
HETATM   16  C   UNL     1      -8.233   5.582  69.100  1.00  0.00    -0.095 A  
HETATM   17  C   UNL     1      -8.236   4.143  71.057  1.00  0.00    -0.079 A  
HETATM   18  C   UNL     1      -7.554   4.975  70.167  1.00  0.00    -0.060 A  
HETATM   19  C   UNL     1      -9.599   5.321  68.932  1.00  0.00    -0.189 A  
HETATM   20  C   UNL     1      -9.601   3.912  70.894  1.00  0.00    -0.258 A  
HETATM   21  C   UNL     1     -10.279   4.496  69.827  1.00  0.00    -0.039 A  
ENDBRANCH  14  16
BRANCH  12  22
HETATM   22  C   UNL     1      -5.616   3.456  65.660  1.00  0.00    -0.018 C  
HETATM   23  O   UNL     1      -5.678   4.742  63.626  1.00  0.00    -0.016 OA 
HETATM   24  O   UNL     1      -5.241   2.530  63.446  1.00  0.00    -0.007 OA 
HETATM   25  C   UNL     1      -5.498   3.500  64.143  1.00  0.00    -0.009 C  
ENDBRANCH  12  22
ENDBRANCH   4   9
BRANCH   8  26
HETATM   26  C   UNL     1      -9.443  12.446  68.012  1.00  0.00    -0.208 A  
HETATM   27  C   UNL     1      -8.888  14.806  67.768  1.00  0.00    -0.175 A  
HETATM   28  C   UNL     1     -10.555  12.849  68.780  1.00  0.00    -0.217 A  
HETATM   29  O   UNL     1      -8.065  15.794  67.312  1.00  0.00    -0.157 OA 
HETATM   30  C   UNL     1      -9.963  15.178  68.558  1.00  0.00    -0.223 A  
HETATM   31  H   UNL     1      -8.232  16.705  67.519  1.00  0.00     0.000 HD 
HETATM   32  C   UNL     1     -10.811  14.196  69.053  1.00  0.00    -0.273 A  
HETATM   33  C   UNL     1      -8.644  13.465  67.464  1.00  0.00    -0.200 A  
ENDBRANCH   8  26
TORSDOF 4
ENDMDL
MODEL      105
REMARK 921   NORMALIZED FREE ENERGY PREDICTED BY IDOCK:   -2.34 KCAL/MOL
REMARK 922        TOTAL FREE ENERGY PREDICTED BY IDOCK:   -3.50 KCAL/MOL
REMARK 923 INTER-LIGAND FREE ENERGY PREDICTED BY IDOCK:   -2.62 KCAL/MOL
REMARK 924 INTRA-LIGAND FREE ENERGY PREDICTED BY IDOCK:   -0.88 KCAL/MOL
REMARK 927      BINDING AFFINITY PREDICTED BY RF-SCORE:    0.00 PKD
ROOT
HETATM    1  C   UNL     1     -10.848   9.899  66.529  1.00  0.00     0.024 C  
HETATM    2  C   UNL     1     -11.567  10.603  67.707  1.00  0.00    -0.063 C  
HETATM    3  C   UNL     1     -11.796   9.544  68.811  1.00  0.00     1.030 C  
HETATM    4  N   UNL     1     -10.511   9.088  69.362  1.00  0.00    -0.220 NA 
HETATM    5  C   UNL     1     -11.689  12.593  69.322  1.00  0.00    -0.379 C  
HETATM    6  C   UNL     1      -9.781  10.202  69.972  1.00  0.00    -0.093 C  
HETATM    7  C   UNL     1      -9.524  11.336  68.983  1.00  0.00    -0.030 C  
HETATM    8  C   UNL     1     -10.803  11.861  68.277  1.00  0.00    -0.261 C  
ENDROOT
BRANCH   4   9
HETATM    9  C   UNL     1     -10.695   7.960  70.284  1.00  0.00    -0.236 C  
HETATM   10  C   UNL     1      -9.449   7.069  70.447  1.00  0.00    -0.162 C  
HETATM   11  C   UNL     1      -9.740   5.977  71.467  1.00  0.00    -0.163 C  
HETATM   12  N   UNL     1     -10.687   5.033  71.114  1.00  0.00    -0.079 N  
HETATM   13  O   UNL     1      -9.159   5.946  72.544  1.00  0.00    -0.137 OA 
HETATM   14  C   UNL     1      -8.935   6.493  69.113  1.00  0.00    -0.130 C  
HETATM   15  H   UNL     1     -11.132   5.053  70.196  1.00  0.00     0.000 HD 
BRANCH  14  16
HETATM   16  C   UNL     1      -7.590   5.816  69.261  1.00  0.00    -0.088 A  
HETATM   17  C   UNL     1      -5.331   5.796  70.155  1.00  0.00    -0.009 A  
HETATM   18  C   UNL     1      -6.547   6.451  69.952  1.00  0.00    -0.048 A  
HETATM   19  C   UNL     1      -7.381   4.524  68.761  1.00  0.00    -0.056 A  
HETATM   20  C   UNL     1      -5.145   4.500  69.674  1.00  0.00     0.000 A  
HETATM   21  C   UNL     1      -6.168   3.869  68.972  1.00  0.00    -0.028 A  
ENDBRANCH  14  16
BRANCH  12  22
HETATM   22  C   UNL     1     -11.032   4.003  72.101  1.00  0.00     0.444 C  
HETATM   23  O   UNL     1      -8.986   3.042  71.276  1.00  0.00    -0.084 OA 
HETATM   24  O   UNL     1     -10.213   1.801  72.714  1.00  0.00    -0.111 OA 
HETATM   25  C   UNL     1     -10.064   2.829  72.072  1.00  0.00    -0.116 C  
ENDBRANCH  12  22
ENDBRANCH   4   9
BRANCH   8  26
HETATM   26  C   UNL     1     -10.451  12.930  67.213  1.00  0.00    -0.236 A  
HETATM   27  C   UNL     1     -11.036  14.298  65.283  1.00  0.00    -0.335 A  
HETATM   28  C   UNL     1      -9.171  13.522  67.167  1.00  0.00    -0.236 A  
HETATM   29  O   UNL     1     -11.923  14.676  64.317  1.00  0.00    -0.595 OA 
HETATM   30  C   UNL     1      -9.762  14.838  65.232  1.00  0.00    -0.117 A  
HETATM   31  H   UNL     1     -11.678  15.298  63.643  1.00  0.00     0.000 HD 
HETATM   32  C   UNL     1      -8.829  14.461  66.190  1.00  0.00     0.226 A  
HETATM   33  C   UNL     1     -11.397  13.384  66.276  1.00  0.00    -0.329 A  
ENDBRANCH   8  26
TORSDOF 4
ENDMDL
MODEL      106
REMARK 921   NORMALIZED FREE ENERGY PREDICTED BY IDOCK:   -2.31 KCAL/MOL
REMARK 922        TOTAL FREE ENERGY PREDICTED BY IDOCK:   -3.46 KCAL/MOL
REMARK 923 INTER-LIGAND FREE ENERGY PREDICTED BY IDOCK:   -3.01 KCAL/MOL
REMARK 924 INTRA-LIGAND FREE ENERGY PREDICTED BY IDOCK:   -0.45 KCAL/MOL
REMARK 927      BINDING AFFINITY PREDICTED BY RF-SCORE:    0.00 PKD
ROOT
HETATM    1  C   UNL     1      -5.327  12.299  66.695  1.00  0.00     0.370 C  
HETATM    2  C   UNL     1      -6.710  12.003  67.326  1.00  0.00    -0.144 C  
HETATM    3  C   UNL     1      -6.592  10.668  68.099  1.00  0.00    -0.063 C  
HETATM    4  N   UNL     1      -5.673  10.812  69.237  1.00  0.00    -0.041 NA 
HETATM    5  C   UNL     1      -8.717  12.837  68.689  1.00  0.00     0.057 C  
HETATM    6  C   UNL     1      -6.164  11.818  70.181  1.00  0.00    -0.104 C  
HETATM    7  C   UNL     1      -6.358  13.182  69.523  1.00  0.00    -0.103 C  
HETATM    8  C   UNL     1      -7.259  13.152  68.259  1.00  0.00    -0.107 C  
ENDROOT
BRANCH   4   9
HETATM    9  C   UNL     1      -5.410   9.517  69.878  1.00  0.00    -0.032 C  
HETATM   10  C   UNL     1      -6.180   8.336  69.255  1.00  0.00    -0.038 C  
HETATM   11  C   UNL     1      -5.782   7.047  69.960  1.00  0.00    -0.023 C  
HETATM   12  N   UNL     1      -6.152   6.924  71.287  1.00  0.00    -0.036 N  
HETATM   13  O   UNL     1      -5.163   6.169  69.371  1.00  0.00    -0.010 OA 
HETATM   14  C   UNL     1      -7.707   8.544  69.246  1.00  0.00    -0.093 C  
HETATM   15  H   UNL     1      -6.701   7.649  71.749  1.00  0.00     0.000 HD 
BRANCH  14  16
HETATM   16  C   UNL     1      -8.424   7.489  68.431  1.00  0.00    -0.125 A  
HETATM   17  C   UNL     1     -10.258   5.918  68.169  1.00  0.00    -0.225 A  
HETATM   18  C   UNL     1      -9.552   6.836  68.950  1.00  0.00    -0.137 A  
HETATM   19  C   UNL     1      -8.008   7.188  67.127  1.00  0.00    -0.110 A  
HETATM   20  C   UNL     1      -9.848   5.646  66.864  1.00  0.00    -0.178 A  
HETATM   21  C   UNL     1      -8.720   6.278  66.348  1.00  0.00    -0.137 A  
ENDBRANCH  14  16
BRANCH  12  22
HETATM   22  C   UNL     1      -5.729   5.719  72.009  1.00  0.00    -0.022 C  
HETATM   23  O   UNL     1      -8.100   5.304  71.969  1.00  0.00    -0.110 OA 
HETATM   24  O   UNL     1      -6.818   3.893  73.185  1.00  0.00    -0.044 OA 
HETATM   25  C   UNL     1      -6.912   4.876  72.465  1.00  0.00    -0.075 C  
ENDBRANCH  12  22
ENDBRANCH   4   9
BRANCH   8  26
HETATM   26  C   UNL     1      -7.319  14.546  67.586  1.00  0.00    -0.201 A  
HETATM   27  C   UNL     1      -6.415  16.778  67.210  1.00  0.00    -0.174 A  
HETATM   28  C   UNL     1      -8.380  14.897  66.724  1.00  0.00    -0.158 A  
HETATM   29  O   UNL     1      -5.480  17.740  67.457  1.00  0.00    -0.130 OA 
HETATM   30  C   UNL     1      -7.486  17.115  66.398  1.00  0.00    -0.341 A  
HETATM   31  H   UNL     1      -5.555  18.606  67.075  1.00  0.00     0.000 HD 
HETATM   32  C   UNL     1      -8.465  16.164  66.140  1.00  0.00    -0.288 A  
HETATM   33  C   UNL     1      -6.306  15.504  67.772  1.00  0.00    -0.183 A  
ENDBRANCH   8  26
TORSDOF 4
ENDMDL
MODEL      107
REMARK 921   NORMALIZED FREE ENERGY PREDICTED BY IDOCK:   -1.85 KCAL/MOL
REMARK 922        TOTAL FREE ENERGY PREDICTED BY IDOCK:   -2.89 KCAL/MOL
REMARK 923 INTER-LIGAND FREE ENERGY PREDICTED BY IDOCK:   -3.08 KCAL/MOL
REMARK 924 INTRA-LIGAND FREE ENERGY PREDICTED BY IDOCK:    0.19 KCAL/MOL
REMARK 927      BINDING AFFINITY PREDICTED BY RF-SCORE:    0.00 PKD
ROOT
HETATM    1  C   UNL     1      -7.003   9.122  69.122  1.00  0.00    -0.058 C  
HETATM    2  C   UNL     1      -8.265   9.492  69.939  1.00  0.00    -0.169 C  
HETATM    3  C   UNL     1      -8.959  10.670  69.216  1.00  0.00    -0.082 C  
HETATM    4  N   UNL     1      -9.463  10.243  67.903  1.00  0.00    -0.141 NA 
HETATM    5  C   UNL     1     -10.399   8.724  71.141  1.00  0.00    -0.315 C  
HETATM    6  C   UNL     1     -10.456   9.177  68.047  1.00  0.00    -0.224 C  
HETATM    7  C   UNL     1      -9.899   7.963  68.785  1.00  0.00    -0.171 C  
HETATM    8  C   UNL     1      -9.270   8.295  70.165  1.00  0.00    -0.155 C  
ENDROOT
BRANCH   4   9
HETATM    9  C   UNL     1      -9.967  11.384  67.127  1.00  0.00    -0.192 C  
HETATM   10  C   UNL     1      -9.058  12.628  67.171  1.00  0.00    -0.210 C  
HETATM   11  C   UNL     1      -9.650  13.716  66.286  1.00  0.00    -0.239 C  
HETATM   12  N   UNL     1     -10.854  14.262  66.694  1.00  0.00    -0.298 N  
HETATM   13  O   UNL     1      -9.081  14.081  65.266  1.00  0.00     0.665 OA 
HETATM   14  C   UNL     1      -8.785  13.130  68.603  1.00  0.00     0.045 C  
HETATM   15  H   UNL     1     -11.294  13.972  67.567  1.00  0.00     0.000 HD 
BRANCH  14  16
HETATM   16  C   UNL     1      -7.716  14.201  68.640  1.00  0.00    -0.135 A  
HETATM   17  C   UNL     1      -6.936  16.370  69.409  1.00  0.00    -0.210 A  
HETATM   18  C   UNL     1      -7.948  15.412  69.309  1.00  0.00    -0.229 A  
HETATM   19  C   UNL     1      -6.462  13.980  68.057  1.00  0.00    -0.152 A  
HETATM   20  C   UNL     1      -5.684  16.126  68.845  1.00  0.00    -0.117 A  
HETATM   21  C   UNL     1      -5.451  14.934  68.165  1.00  0.00    -0.123 A  
ENDBRANCH  14  16
BRANCH  12  22
HETATM   22  C   UNL     1     -11.479  15.269  65.830  1.00  0.00    -0.101 C  
HETATM   23  O   UNL     1      -9.858  16.679  66.915  1.00  0.00    -0.247 OA 
HETATM   24  O   UNL     1     -11.374  17.682  65.570  1.00  0.00     0.342 OA 
HETATM   25  C   UNL     1     -10.928  16.666  66.081  1.00  0.00     0.110 C  
ENDBRANCH  12  22
ENDBRANCH   4   9
BRANCH   8  26
HETATM   26  C   UNL     1      -8.630   7.036  70.802  1.00  0.00    -0.143 A  
HETATM   27  C   UNL     1      -7.432   5.932  72.615  1.00  0.00    -0.096 A  
HETATM   28  C   UNL     1      -8.624   5.798  70.126  1.00  0.00    -0.128 A  
HETATM   29  O   UNL     1      -6.805   5.974  73.825  1.00  0.00    -0.078 OA 
HETATM   30  C   UNL     1      -7.404   4.736  71.916  1.00  0.00    -0.072 A  
HETATM   31  H   UNL     1      -6.376   5.206  74.182  1.00  0.00     0.000 HD 
HETATM   32  C   UNL     1      -8.018   4.663  70.673  1.00  0.00    -0.068 A  
HETATM   33  C   UNL     1      -8.064   7.061  72.090  1.00  0.00    -0.093 A  
ENDBRANCH   8  26
TORSDOF 4
ENDMDL
MODEL      108
REMARK 921   NORMALIZED FREE ENERGY PREDICTED BY IDOCK:   -1.70 KCAL/MOL
REMARK 922        TOTAL FREE ENERGY PREDICTED BY IDOCK:   -2.70 KCAL/MOL
REMARK 923 INTER-LIGAND FREE ENERGY PREDICTED BY IDOCK:   -3.23 KCAL/MOL
REMARK 924 INTRA-LIGAND FREE ENERGY PREDICTED BY IDOCK:    0.53 KCAL/MOL
REMARK 927      BINDING AFFINITY PREDICTED BY RF-SCORE:    0.00 PKD
ROOT
HETATM    1  C   UNL     1      -5.672   8.056  64.724  1.00  0.00    -0.044 C  
HETATM    2  C   UNL     1      -7.051   7.713  65.339  1.00  0.00    -0.063 C  
HETATM    3  C   UNL     1      -7.988   8.916  65.081  1.00  0.00    -0.122 C  
HETATM    4  N   UNL     1      -8.239   9.074  63.641  1.00  0.00    -0.169 NA 
HETATM    5  C   UNL     1      -8.971   6.031  65.609  1.00  0.00    -0.077 C  
HETATM    6  C   UNL     1      -8.896   7.886  63.093  1.00  0.00     0.723 C  
HETATM    7  C   UNL     1      -8.080   6.616  63.319  1.00  0.00    -0.019 C  
HETATM    8  C   UNL     1      -7.689   6.372  64.802  1.00  0.00    -0.105 C  
ENDROOT
BRANCH   4   9
HETATM    9  C   UNL     1      -8.980  10.310  63.360  1.00  0.00    -0.240 C  
HETATM   10  C   UNL     1      -9.391  11.100  64.618  1.00  0.00    -0.200 C  
HETATM   11  C   UNL     1     -10.094  12.384  64.201  1.00  0.00    -0.295 C  
HETATM   12  N   UNL     1     -11.318  12.245  63.572  1.00  0.00    -0.555 N  
HETATM   13  O   UNL     1      -9.591  13.479  64.414  1.00  0.00     0.135 OA 
HETATM   14  C   UNL     1     -10.235  10.272  65.606  1.00  0.00    -0.301 C  
HETATM   15  H   UNL     1     -11.740  11.326  63.438  1.00  0.00     0.000 HD 
BRANCH  14  16
HETATM   16  C   UNL     1     -10.433  10.983  66.928  1.00  0.00    -0.293 A  
HETATM   17  C   UNL     1      -9.648  12.545  68.615  1.00  0.00    -0.029 A  
HETATM   18  C   UNL     1      -9.436  11.830  67.434  1.00  0.00    -0.174 A  
HETATM   19  C   UNL     1     -11.633  10.852  67.638  1.00  0.00    -0.171 A  
HETATM   20  C   UNL     1     -10.857  12.425  69.298  1.00  0.00    -0.073 A  
HETATM   21  C   UNL     1     -11.846  11.574  68.812  1.00  0.00    -0.394 A  
ENDBRANCH  14  16
BRANCH  12  22
HETATM   22  C   UNL     1     -11.992  13.462  63.104  1.00  0.00    -0.025 C  
HETATM   23  O   UNL     1     -12.197  13.825  65.474  1.00  0.00    -0.387 OA 
HETATM   24  O   UNL     1     -13.272  15.268  64.104  1.00  0.00    -0.074 OA 
HETATM   25  C   UNL     1     -12.567  14.280  64.251  1.00  0.00    -0.118 C  
ENDBRANCH  12  22
ENDBRANCH   4   9
BRANCH   8  26
HETATM   26  C   UNL     1      -6.772   5.130  64.937  1.00  0.00    -0.048 A  
HETATM   27  C   UNL     1      -5.610   3.217  63.974  1.00  0.00    -0.010 A  
HETATM   28  C   UNL     1      -6.259   4.734  66.190  1.00  0.00    -0.035 A  
HETATM   29  O   UNL     1      -5.300   2.428  62.905  1.00  0.00    -0.007 OA 
HETATM   30  C   UNL     1      -5.150   2.823  65.220  1.00  0.00    -0.008 A  
HETATM   31  H   UNL     1      -4.776   1.643  63.011  1.00  0.00     0.000 HD 
HETATM   32  C   UNL     1      -5.461   3.595  66.331  1.00  0.00    -0.017 A  
HETATM   33  C   UNL     1      -6.381   4.371  63.819  1.00  0.00    -0.030 A  
ENDBRANCH   8  26
TORSDOF 4
ENDMDL
MODEL      109
REMARK 921   NORMALIZED FREE ENERGY PREDICTED BY IDOCK:   -1.66 KCAL/MOL
REMARK 922        TOTAL FREE ENERGY PREDICTED BY IDOCK:   -2.66 KCAL/MOL
REMARK 923 INTER-LIGAND FREE ENERGY PREDICTED BY IDOCK:   -3.40 KCAL/MOL
REMARK 924 INTRA-LIGAND FREE ENERGY PREDICTED BY IDOCK:    0.75 KCAL/MOL
REMARK 927      BINDING AFFINITY PREDICTED BY RF-SCORE:    0.00 PKD
ROOT
HETATM    1  C   UNL     1      -9.509  12.821  65.362  1.00  0.00     0.158 C  
HETATM    2  C   UNL     1      -8.811  12.119  66.553  1.00  0.00    -0.151 C  
HETATM    3  C   UNL     1      -9.457  12.655  67.852  1.00  0.00    -0.204 C  
HETATM    4  N   UNL     1     -10.866  12.244  67.935  1.00  0.00    -0.210 NA 
HETATM    5  C   UNL     1      -7.989   9.942  67.634  1.00  0.00    -0.109 C  
HETATM    6  C   UNL     1     -10.982  10.784  67.963  1.00  0.00    -0.283 C  
HETATM    7  C   UNL     1     -10.343  10.130  66.741  1.00  0.00    -0.285 C  
HETATM    8  C   UNL     1      -8.866  10.542  66.502  1.00  0.00    -0.155 C  
ENDROOT
BRANCH   4   9
HETATM    9  C   UNL     1     -11.544  12.886  69.068  1.00  0.00    -0.322 C  
HETATM   10  C   UNL     1     -11.957  11.914  70.190  1.00  0.00    -0.413 C  
HETATM   11  C   UNL     1     -12.592  12.699  71.329  1.00  0.00    -0.240 C  
HETATM   12  N   UNL     1     -13.803  13.313  71.062  1.00  0.00     0.547 N  
HETATM   13  O   UNL     1     -12.049  12.778  72.423  1.00  0.00     1.161 OA 
HETATM   14  C   UNL     1     -12.865  10.769  69.699  1.00  0.00     0.275 C  
HETATM   15  H   UNL     1     -14.259  13.203  70.156  1.00  0.00     0.000 HD 
BRANCH  14  16
HETATM   16  C   UNL     1     -13.070   9.706  70.756  1.00  0.00    -0.128 A  
HETATM   17  C   UNL     1     -14.381   7.881  71.679  1.00  0.00    -0.595 A  
HETATM   18  C   UNL     1     -14.226   8.912  70.750  1.00  0.00     0.343 A  
HETATM   19  C   UNL     1     -12.086   9.460  71.723  1.00  0.00    -0.454 A  
HETATM   20  C   UNL     1     -13.382   7.631  72.620  1.00  0.00     0.497 A  
HETATM   21  C   UNL     1     -12.239   8.425  72.644  1.00  0.00    -0.302 A  
ENDBRANCH  14  16
BRANCH  12  22
HETATM   22  C   UNL     1     -14.410  14.127  72.121  1.00  0.00    -0.518 C  
HETATM   23  O   UNL     1     -12.823  15.736  71.292  1.00  0.00    -0.475 OA 
HETATM   24  O   UNL     1     -13.978  16.280  73.159  1.00  0.00    -0.451 OA 
HETATM   25  C   UNL     1     -13.728  15.480  72.270  1.00  0.00    -0.535 C  
ENDBRANCH  12  22
ENDBRANCH   4   9
BRANCH   8  26
HETATM   26  C   UNL     1      -8.323   9.926  65.188  1.00  0.00    -0.152 A  
HETATM   27  C   UNL     1      -8.239   8.128  63.545  1.00  0.00    -0.057 A  
HETATM   28  C   UNL     1      -7.359  10.600  64.409  1.00  0.00     0.213 A  
HETATM   29  O   UNL     1      -8.627   6.895  63.110  1.00  0.00    -0.337 OA 
HETATM   30  C   UNL     1      -7.265   8.790  62.817  1.00  0.00    -0.097 A  
HETATM   31  H   UNL     1      -8.251   6.510  62.328  1.00  0.00     0.000 HD 
HETATM   32  C   UNL     1      -6.834  10.040  63.241  1.00  0.00    -0.131 A  
HETATM   33  C   UNL     1      -8.793   8.695  64.695  1.00  0.00     0.006 A  
ENDBRANCH   8  26
TORSDOF 4
ENDMDL
MODEL      110
REMARK 921   NORMALIZED FREE ENERGY PREDICTED BY IDOCK:   -0.42 KCAL/MOL
REMARK 922        TOTAL FREE ENERGY PREDICTED BY IDOCK:   -1.12 KCAL/MOL
REMARK 923 INTER-LIGAND FREE ENERGY PREDICTED BY IDOCK:   -3.68 KCAL/MOL
REMARK 924 INTRA-LIGAND FREE ENERGY PREDICTED BY IDOCK:    2.57 KCAL/MOL
REMARK 927      BINDING AFFINITY PREDICTED BY RF-SCORE:    0.00 PKD
ROOT
HETATM    1  C   UNL     1      -9.043   9.274  68.953  1.00  0.00    -0.139 C  
HETATM    2  C   UNL     1      -8.092   9.601  67.775  1.00  0.00    -0.113 C  
HETATM    3  C   UNL     1      -8.308  11.086  67.401  1.00  0.00    -0.126 C  
HETATM    4  N   UNL     1      -7.876  11.962  68.499  1.00  0.00    -0.139 NA 
HETATM    5  C   UNL     1      -5.732   9.494  66.773  1.00  0.00    -0.051 C  
HETATM    6  C   UNL     1      -6.448  11.787  68.774  1.00  0.00    -0.066 C  
HETATM    7  C   UNL     1      -6.099  10.342  69.123  1.00  0.00    -0.037 C  
HETATM    8  C   UNL     1      -6.568   9.306  68.067  1.00  0.00    -0.060 C  
ENDROOT
BRANCH   4   9
HETATM    9  C   UNL     1      -8.233  13.362  68.239  1.00  0.00    -0.160 C  
HETATM   10  C   UNL     1      -9.438  13.868  69.056  1.00  0.00     0.154 C  
HETATM   11  C   UNL     1      -9.674  15.340  68.748  1.00  0.00    -0.212 C  
HETATM   12  N   UNL     1     -10.086  15.648  67.464  1.00  0.00    -0.249 N  
HETATM   13  O   UNL     1      -9.502  16.200  69.602  1.00  0.00    -0.186 OA 
HETATM   14  C   UNL     1     -10.710  13.022  68.850  1.00  0.00    -0.201 C  
HETATM   15  H   UNL     1     -10.260  14.914  66.778  1.00  0.00     0.000 HD 
BRANCH  14  16
HETATM   16  C   UNL     1     -11.807  13.391  69.826  1.00  0.00    -0.393 A  
HETATM   17  C   UNL     1     -12.901  13.090  71.974  1.00  0.00    -0.297 A  
HETATM   18  C   UNL     1     -11.937  12.701  71.040  1.00  0.00     0.215 A  
HETATM   19  C   UNL     1     -12.673  14.459  69.558  1.00  0.00     0.138 A  
HETATM   20  C   UNL     1     -13.740  14.171  71.706  1.00  0.00    -0.492 A  
HETATM   21  C   UNL     1     -13.629  14.850  70.495  1.00  0.00     0.061 A  
ENDBRANCH  14  16
BRANCH  12  22
HETATM   22  C   UNL     1     -10.262  17.064  67.120  1.00  0.00    -0.306 C  
HETATM   23  O   UNL     1      -8.225  17.251  68.388  1.00  0.00    -0.241 OA 
HETATM   24  O   UNL     1      -9.221  19.172  67.729  1.00  0.00    -0.289 OA 
HETATM   25  C   UNL     1      -9.210  17.951  67.771  1.00  0.00    -0.258 C  
ENDBRANCH  12  22
ENDBRANCH   4   9
BRANCH   8  26
HETATM   26  C   UNL     1      -6.278   7.859  68.541  1.00  0.00    -0.044 A  
HETATM   27  C   UNL     1      -6.346   5.447  68.205  1.00  0.00    -0.035 A  
HETATM   28  C   UNL     1      -5.685   7.607  69.796  1.00  0.00    -0.023 A  
HETATM   29  O   UNL     1      -6.693   4.359  67.459  1.00  0.00    -0.046 OA 
HETATM   30  C   UNL     1      -5.800   5.220  69.458  1.00  0.00    -0.016 A  
HETATM   31  H   UNL     1      -6.552   3.477  67.783  1.00  0.00     0.000 HD 
HETATM   32  C   UNL     1      -5.451   6.306  70.250  1.00  0.00    -0.014 A  
HETATM   33  C   UNL     1      -6.553   6.743  67.730  1.00  0.00    -0.058 A  
ENDBRANCH   8  26
TORSDOF 4
ENDMDL
MODEL      111
REMARK 921   NORMALIZED FREE ENERGY PREDICTED BY IDOCK:    0.46 KCAL/MOL
REMARK 922        TOTAL FREE ENERGY PREDICTED BY IDOCK:   -0.03 KCAL/MOL
REMARK 923 INTER-LIGAND FREE ENERGY PREDICTED BY IDOCK:    0.10 KCAL/MOL
REMARK 924 INTRA-LIGAND FREE ENERGY PREDICTED BY IDOCK:   -0.14 KCAL/MOL
REMARK 927      BINDING AFFINITY PREDICTED BY RF-SCORE:    0.00 PKD
ROOT
HETATM    1  C   UNL     1      -7.977  11.373  69.331  1.00  0.00     0.257 C  
HETATM    2  C   UNL     1      -9.492  11.331  69.013  1.00  0.00    -0.030 C  
HETATM    3  C   UNL     1      -9.856  12.657  68.306  1.00  0.00    -0.227 C  
HETATM    4  N   UNL     1      -9.192  12.742  66.997  1.00  0.00    -0.215 NA 
HETATM    5  C   UNL     1     -11.491  10.044  68.048  1.00  0.00     0.115 C  
HETATM    6  C   UNL     1      -9.623  11.649  66.122  1.00  0.00    -0.232 C  
HETATM    7  C   UNL     1      -9.349  10.277  66.731  1.00  0.00    -0.187 C  
HETATM    8  C   UNL     1      -9.943  10.086  68.153  1.00  0.00    -0.176 C  
ENDROOT
BRANCH   4   9
HETATM    9  C   UNL     1      -9.381  14.063  66.386  1.00  0.00    -0.221 C  
HETATM   10  C   UNL     1      -8.410  15.143  66.904  1.00  0.00    -0.267 C  
HETATM   11  C   UNL     1      -8.661  16.446  66.158  1.00  0.00    -0.308 C  
HETATM   12  N   UNL     1      -9.877  17.065  66.380  1.00  0.00    -0.285 N  
HETATM   13  O   UNL     1      -7.821  16.912  65.400  1.00  0.00     0.351 OA 
HETATM   14  C   UNL     1      -8.469  15.330  68.433  1.00  0.00    -0.158 C  
HETATM   15  H   UNL     1     -10.549  16.681  67.045  1.00  0.00     0.000 HD 
BRANCH  14  16
HETATM   16  C   UNL     1      -7.358  16.220  68.944  1.00  0.00    -0.198 A  
HETATM   17  C   UNL     1      -6.245  17.350  70.785  1.00  0.00     1.036 A  
HETATM   18  C   UNL     1      -7.311  16.592  70.296  1.00  0.00     1.489 A  
HETATM   19  C   UNL     1      -6.329  16.641  68.091  1.00  0.00    -0.140 A  
HETATM   20  C   UNL     1      -5.215  17.741  69.930  1.00  0.00    -0.208 A  
HETATM   21  C   UNL     1      -5.262  17.391  68.584  1.00  0.00    -0.143 A  
ENDBRANCH  14  16
BRANCH  12  22
HETATM   22  C   UNL     1     -10.172  18.291  65.629  1.00  0.00     0.067 C  
HETATM   23  O   UNL     1     -11.312  18.838  67.677  1.00  0.00    -0.005 OA 
HETATM   24  O   UNL     1     -11.571  20.253  65.932  1.00  0.00     0.832 OA 
HETATM   25  C   UNL     1     -11.091  19.230  66.397  1.00  0.00     0.063 C  
ENDBRANCH  12  22
ENDBRANCH   4   9
BRANCH   8  26
HETATM   26  C   UNL     1      -9.531   8.716  68.748  1.00  0.00    -0.143 A  
HETATM   27  C   UNL     1      -9.753   6.960  70.423  1.00  0.00    -0.172 A  
HETATM   28  C   UNL     1      -8.502   7.946  68.166  1.00  0.00    -0.124 A  
HETATM   29  O   UNL     1     -10.327   6.463  71.556  1.00  0.00    -0.202 OA 
HETATM   30  C   UNL     1      -8.714   6.239  69.858  1.00  0.00    -0.141 A  
HETATM   31  H   UNL     1     -10.032   5.644  71.937  1.00  0.00     0.000 HD 
HETATM   32  C   UNL     1      -8.097   6.726  68.714  1.00  0.00    -0.120 A  
HETATM   33  C   UNL     1     -10.187   8.164  69.863  1.00  0.00    -0.204 A  
ENDBRANCH   8  26
TORSDOF 4
ENDMDL
MODEL      112
REMARK 921   NORMALIZED FREE ENERGY PREDICTED BY IDOCK:    1.93 KCAL/MOL
REMARK 922        TOTAL FREE ENERGY PREDICTED BY IDOCK:    1.78 KCAL/MOL
REMARK 923 INTER-LIGAND FREE ENERGY PREDICTED BY IDOCK:    0.48 KCAL/MOL
REMARK 924 INTRA-LIGAND FREE ENERGY PREDICTED BY IDOCK:    1.30 KCAL/MOL
REMARK 927      BINDING AFFINITY PREDICTED BY RF-SCORE:    0.00 PKD
ROOT
HETATM    1  C   UNL     1     -10.672  11.044  71.185  1.00  0.00     2.384 C  
HETATM    2  C   UNL     1      -9.432  10.880  70.273  1.00  0.00     1.509 C  
HETATM    3  C   UNL     1      -8.671   9.619  70.745  1.00  0.00     0.116 C  
HETATM    4  N   UNL     1      -9.479   8.413  70.516  1.00  0.00    -0.166 NA 
HETATM    5  C   UNL     1      -8.450  10.817  67.903  1.00  0.00    -0.122 C  
HETATM    6  C   UNL     1      -9.763   8.239  69.090  1.00  0.00    -0.171 C  
HETATM    7  C   UNL     1     -10.486   9.444  68.493  1.00  0.00    -0.239 C  
HETATM    8  C   UNL     1      -9.763  10.797  68.731  1.00  0.00    -0.197 C  
ENDROOT
BRANCH   4   9
HETATM    9  C   UNL     1      -8.853   7.228  71.116  1.00  0.00    -0.140 C  
HETATM   10  C   UNL     1      -7.935   6.445  70.156  1.00  0.00    -0.112 C  
HETATM   11  C   UNL     1      -7.301   5.280  70.904  1.00  0.00    -0.074 C  
HETATM   12  N   UNL     1      -8.151   4.274  71.325  1.00  0.00    -0.080 N  
HETATM   13  O   UNL     1      -6.096   5.247  71.118  1.00  0.00    -0.020 OA 
HETATM   14  C   UNL     1      -8.650   5.987  68.870  1.00  0.00    -0.116 C  
HETATM   15  H   UNL     1      -9.147   4.301  71.103  1.00  0.00     0.000 HD 
BRANCH  14  16
HETATM   16  C   UNL     1      -7.686   5.427  67.847  1.00  0.00    -0.092 A  
HETATM   17  C   UNL     1      -6.301   5.729  65.874  1.00  0.00    -0.039 A  
HETATM   18  C   UNL     1      -7.249   6.219  66.775  1.00  0.00    -0.074 A  
HETATM   19  C   UNL     1      -7.171   4.131  67.984  1.00  0.00    -0.060 A  
HETATM   20  C   UNL     1      -5.778   4.446  66.036  1.00  0.00    -0.022 A  
HETATM   21  C   UNL     1      -6.219   3.647  67.088  1.00  0.00    -0.036 A  
ENDBRANCH  14  16
BRANCH  12  22
HETATM   22  C   UNL     1      -7.578   3.169  72.100  1.00  0.00    -0.053 C  
HETATM   23  O   UNL     1      -7.774   4.788  73.870  1.00  0.00    -0.095 OA 
HETATM   24  O   UNL     1      -6.703   2.854  74.344  1.00  0.00    -0.028 OA 
HETATM   25  C   UNL     1      -7.289   3.565  73.541  1.00  0.00    -0.056 C  
ENDBRANCH  12  22
ENDBRANCH   4   9
BRANCH   8  26
HETATM   26  C   UNL     1     -10.607  11.980  68.195  1.00  0.00    -0.233 A  
HETATM   27  C   UNL     1     -11.022  13.745  66.566  1.00  0.00    -0.299 A  
HETATM   28  C   UNL     1     -11.761  12.422  68.876  1.00  0.00    -0.372 A  
HETATM   29  O   UNL     1     -10.664  14.440  65.449  1.00  0.00    -0.308 OA 
HETATM   30  C   UNL     1     -12.129  14.186  67.272  1.00  0.00    -0.407 A  
HETATM   31  H   UNL     1     -11.165  15.193  65.159  1.00  0.00     0.000 HD 
HETATM   32  C   UNL     1     -12.511  13.511  68.423  1.00  0.00     0.321 A  
HETATM   33  C   UNL     1     -10.286  12.637  66.993  1.00  0.00    -0.241 A  
ENDBRANCH   8  26
TORSDOF 4
ENDMDL
MODEL      113
REMARK 921   NORMALIZED FREE ENERGY PREDICTED BY IDOCK:    2.41 KCAL/MOL
REMARK 922        TOTAL FREE ENERGY PREDICTED BY IDOCK:    2.37 KCAL/MOL
REMARK 923 INTER-LIGAND FREE ENERGY PREDICTED BY IDOCK:    3.22 KCAL/MOL
REMARK 924 INTRA-LIGAND FREE ENERGY PREDICTED BY IDOCK:   -0.84 KCAL/MOL
REMARK 927      BINDING AFFINITY PREDICTED BY RF-SCORE:    0.00 PKD
ROOT
HETATM    1  C   UNL     1      -9.390  11.458  68.643  1.00  0.00    -0.155 C  
HETATM    2  C   UNL     1      -7.992  12.023  68.290  1.00  0.00    -0.149 C  
HETATM    3  C   UNL     1      -7.027  10.822  68.148  1.00  0.00    -0.072 C  
HETATM    4  N   UNL     1      -7.407   9.990  66.997  1.00  0.00    -0.091 NA 
HETATM    5  C   UNL     1      -6.565  13.586  66.838  1.00  0.00     1.133 C  
HETATM    6  C   UNL     1      -7.333  10.756  65.751  1.00  0.00    -0.061 C  
HETATM    7  C   UNL     1      -8.220  11.998  65.782  1.00  0.00     0.713 C  
HETATM    8  C   UNL     1      -7.963  12.929  66.997  1.00  0.00    -0.031 C  
ENDROOT
BRANCH   4   9
HETATM    9  C   UNL     1      -6.616   8.753  66.948  1.00  0.00    -0.061 C  
HETATM   10  C   UNL     1      -7.127   7.718  65.927  1.00  0.00    -0.064 C  
HETATM   11  C   UNL     1      -6.197   6.513  65.923  1.00  0.00    -0.038 C  
HETATM   12  N   UNL     1      -6.168   5.747  67.074  1.00  0.00    -0.033 N  
HETATM   13  O   UNL     1      -5.512   6.245  64.944  1.00  0.00    -0.017 OA 
HETATM   14  C   UNL     1      -8.597   7.315  66.154  1.00  0.00    -0.156 C  
HETATM   15  H   UNL     1      -6.775   5.963  67.865  1.00  0.00     0.000 HD 
BRANCH  14  16
HETATM   16  C   UNL     1      -9.145   6.481  65.016  1.00  0.00     0.505 A  
HETATM   17  C   UNL     1     -10.601   4.708  64.218  1.00  0.00     0.412 A  
HETATM   18  C   UNL     1     -10.036   5.429  65.272  1.00  0.00     0.457 A  
HETATM   19  C   UNL     1      -8.815   6.780  63.687  1.00  0.00     0.912 A  
HETATM   20  C   UNL     1     -10.285   5.033  62.899  1.00  0.00     0.887 A  
HETATM   21  C   UNL     1      -9.387   6.064  62.636  1.00  0.00     0.981 A  
ENDBRANCH  14  16
BRANCH  12  22
HETATM   22  C   UNL     1      -5.237   4.614  67.123  1.00  0.00    -0.012 C  
HETATM   23  O   UNL     1      -6.963   3.606  65.782  1.00  0.00    -0.055 OA 
HETATM   24  O   UNL     1      -5.264   2.277  66.460  1.00  0.00    -0.004 OA 
HETATM   25  C   UNL     1      -5.802   3.374  66.444  1.00  0.00    -0.023 C  
ENDBRANCH  12  22
ENDBRANCH   4   9
BRANCH   8  26
HETATM   26  C   UNL     1      -8.972  14.105  67.020  1.00  0.00    -0.251 A  
HETATM   27  C   UNL     1      -9.709  16.273  67.852  1.00  0.00    -0.233 A  
HETATM   28  C   UNL     1     -10.139  14.081  66.227  1.00  0.00    -0.307 A  
HETATM   29  O   UNL     1      -9.543  17.353  68.670  1.00  0.00    -0.279 OA 
HETATM   30  C   UNL     1     -10.867  16.212  67.096  1.00  0.00    -0.216 A  
HETATM   31  H   UNL     1     -10.193  18.043  68.708  1.00  0.00     0.000 HD 
HETATM   32  C   UNL     1     -11.075  15.118  66.265  1.00  0.00    -0.309 A  
HETATM   33  C   UNL     1      -8.752  15.257  67.796  1.00  0.00    -0.168 A  
ENDBRANCH   8  26
TORSDOF 4
ENDMDL
MODEL      114
REMARK 921   NORMALIZED FREE ENERGY PREDICTED BY IDOCK:    4.62 KCAL/MOL
REMARK 922        TOTAL FREE ENERGY PREDICTED BY IDOCK:    5.10 KCAL/MOL
REMARK 923 INTER-LIGAND FREE ENERGY PREDICTED BY IDOCK:    3.92 KCAL/MOL
REMARK 924 INTRA-LIGAND FREE ENERGY PREDICTED BY IDOCK:    1.18 KCAL/MOL
REMARK 927      BINDING AFFINITY PREDICTED BY RF-SCORE:    0.00 PKD
ROOT
HETATM    1  C   UNL     1     -10.912  10.552  72.306  1.00  0.00     4.366 C  
HETATM    2  C   UNL     1     -10.229  10.340  70.933  1.00  0.00     0.662 C  
HETATM    3  C   UNL     1      -9.580   8.936  70.948  1.00  0.00    -0.238 C  
HETATM    4  N   UNL     1     -10.612   7.893  71.029  1.00  0.00    -0.212 NA 
HETATM    5  C   UNL     1     -10.376  10.454  68.373  1.00  0.00    -0.198 C  
HETATM    6  C   UNL     1     -11.502   7.947  69.867  1.00  0.00     0.144 C  
HETATM    7  C   UNL     1     -12.179   9.308  69.720  1.00  0.00     0.809 C  
HETATM    8  C   UNL     1     -11.193  10.506  69.693  1.00  0.00    -0.342 C  
ENDROOT
BRANCH   4   9
HETATM    9  C   UNL     1     -10.016   6.565  71.222  1.00  0.00    -0.181 C  
HETATM   10  C   UNL     1      -9.364   5.975  69.955  1.00  0.00    -0.170 C  
HETATM   11  C   UNL     1      -8.731   4.633  70.292  1.00  0.00    -0.082 C  
HETATM   12  N   UNL     1      -9.593   3.609  70.638  1.00  0.00    -0.179 N  
HETATM   13  O   UNL     1      -7.517   4.479  70.257  1.00  0.00    -0.049 OA 
HETATM   14  C   UNL     1     -10.335   5.875  68.763  1.00  0.00    -0.279 C  
HETATM   15  H   UNL     1     -10.604   3.745  70.624  1.00  0.00     0.000 HD 
BRANCH  14  16
HETATM   16  C   UNL     1      -9.626   5.514  67.475  1.00  0.00    -0.131 A  
HETATM   17  C   UNL     1      -9.599   4.349  65.343  1.00  0.00    -0.187 A  
HETATM   18  C   UNL     1     -10.217   4.624  66.566  1.00  0.00    -0.273 A  
HETATM   19  C   UNL     1      -8.399   6.103  67.146  1.00  0.00    -0.105 A  
HETATM   20  C   UNL     1      -8.389   4.962  65.017  1.00  0.00    -0.136 A  
HETATM   21  C   UNL     1      -7.788   5.833  65.922  1.00  0.00    -0.101 A  
ENDBRANCH  14  16
BRANCH  12  22
HETATM   22  C   UNL     1      -9.009   2.320  71.027  1.00  0.00    -0.081 C  
HETATM   23  O   UNL     1      -8.250   3.638  72.892  1.00  0.00    -0.083 OA 
HETATM   24  O   UNL     1      -7.477   1.519  72.733  1.00  0.00    -0.030 OA 
HETATM   25  C   UNL     1      -8.159   2.428  72.285  1.00  0.00    -0.054 C  
ENDBRANCH  12  22
ENDBRANCH   4   9
BRANCH   8  26
HETATM   26  C   UNL     1     -11.956  11.853  69.654  1.00  0.00    -0.365 A  
HETATM   27  C   UNL     1     -12.390  14.036  68.661  1.00  0.00    -0.008 A  
HETATM   28  C   UNL     1     -12.934  12.168  70.622  1.00  0.00     0.121 A  
HETATM   29  O   UNL     1     -12.119  14.994  67.727  1.00  0.00    -0.502 OA 
HETATM   30  C   UNL     1     -13.317  14.340  69.644  1.00  0.00     1.484 A  
HETATM   31  H   UNL     1     -12.561  15.834  67.744  1.00  0.00     0.000 HD 
HETATM   32  C   UNL     1     -13.604  13.394  70.619  1.00  0.00     0.677 A  
HETATM   33  C   UNL     1     -11.739  12.801  68.637  1.00  0.00    -0.360 A  
ENDBRANCH   8  26
TORSDOF 4
ENDMDL
MODEL      115
REMARK 921   NORMALIZED FREE ENERGY PREDICTED BY IDOCK:    5.27 KCAL/MOL
REMARK 922        TOTAL FREE ENERGY PREDICTED BY IDOCK:    5.89 KCAL/MOL
REMARK 923 INTER-LIGAND FREE ENERGY PREDICTED BY IDOCK:   -1.94 KCAL/MOL
REMARK 924 INTRA-LIGAND FREE ENERGY PREDICTED BY IDOCK:    7.84 KCAL/MOL
REMARK 927      BINDING AFFINITY PREDICTED BY RF-SCORE:    0.00 PKD
ROOT
HETATM    1  C   UNL     1      -7.962  11.008  68.666  1.00  0.00    -0.143 C  
HETATM    2  C   UNL     1      -7.842  11.056  67.123  1.00  0.00    -0.135 C  
HETATM    3  C   UNL     1      -7.580  12.527  66.723  1.00  0.00     0.210 C  
HETATM    4  N   UNL     1      -6.271  12.972  67.224  1.00  0.00    -0.291 NA 
HETATM    5  C   UNL     1      -6.824  10.090  64.974  1.00  0.00    -0.132 C  
HETATM    6  C   UNL     1      -5.191  12.166  66.649  1.00  0.00     0.212 C  
HETATM    7  C   UNL     1      -5.359  10.678  66.946  1.00  0.00    -0.046 C  
HETATM    8  C   UNL     1      -6.737  10.100  66.524  1.00  0.00    -0.085 C  
ENDROOT
BRANCH   4   9
HETATM    9  C   UNL     1      -6.078  14.412  67.009  1.00  0.00     1.189 C  
HETATM   10  C   UNL     1      -7.136  15.300  67.694  1.00  0.00    -0.206 C  
HETATM   11  C   UNL     1      -6.797  16.764  67.452  1.00  0.00    -0.157 C  
HETATM   12  N   UNL     1      -6.886  17.216  66.148  1.00  0.00    -0.198 N  
HETATM   13  O   UNL     1      -6.462  17.496  68.374  1.00  0.00    -0.173 OA 
HETATM   14  C   UNL     1      -8.578  14.961  67.270  1.00  0.00    -0.232 C  
HETATM   15  H   UNL     1      -7.205  16.600  65.399  1.00  0.00     0.000 HD 
BRANCH  14  16
HETATM   16  C   UNL     1      -9.607  15.680  68.117  1.00  0.00    -0.196 A  
HETATM   17  C   UNL     1     -11.046  15.748  70.073  1.00  0.00    -0.348 A  
HETATM   18  C   UNL     1     -10.154  15.058  69.249  1.00  0.00    -0.236 A  
HETATM   19  C   UNL     1      -9.988  16.994  67.816  1.00  0.00    -0.280 A  
HETATM   20  C   UNL     1     -11.397  17.065  69.777  1.00  0.00     0.659 A  
HETATM   21  C   UNL     1     -10.872  17.684  68.645  1.00  0.00     0.002 A  
ENDBRANCH  14  16
BRANCH  12  22
HETATM   22  C   UNL     1      -6.508  18.607  65.875  1.00  0.00    -0.243 C  
HETATM   23  O   UNL     1      -6.109  18.583  68.249  1.00  0.00    -0.196 OA 
HETATM   24  O   UNL     1      -5.940  20.571  67.186  1.00  0.00    -0.178 OA 
HETATM   25  C   UNL     1      -6.167  19.372  67.147  1.00  0.00    -0.185 C  
ENDBRANCH  12  22
ENDBRANCH   4   9
BRANCH   8  26
HETATM   26  C   UNL     1      -6.873   8.619  66.956  1.00  0.00    -0.067 A  
HETATM   27  C   UNL     1      -8.167   6.774  67.884  1.00  0.00    -0.117 A  
HETATM   28  C   UNL     1      -5.789   7.722  66.844  1.00  0.00    -0.043 A  
HETATM   29  O   UNL     1      -9.315   6.284  68.434  1.00  0.00    -0.115 OA 
HETATM   30  C   UNL     1      -7.078   5.921  67.802  1.00  0.00    -0.071 A  
HETATM   31  H   UNL     1      -9.369   5.386  68.738  1.00  0.00     0.000 HD 
HETATM   32  C   UNL     1      -5.888   6.393  67.264  1.00  0.00    -0.017 A  
HETATM   33  C   UNL     1      -8.087   8.095  67.437  1.00  0.00    -0.122 A  
ENDBRANCH   8  26
TORSDOF 4
ENDMDL
MODEL      116
REMARK 921   NORMALIZED FREE ENERGY PREDICTED BY IDOCK:    5.39 KCAL/MOL
REMARK 922        TOTAL FREE ENERGY PREDICTED BY IDOCK:    6.05 KCAL/MOL
REMARK 923 INTER-LIGAND FREE ENERGY PREDICTED BY IDOCK:    5.65 KCAL/MOL
REMARK 924 INTRA-LIGAND FREE ENERGY PREDICTED BY IDOCK:    0.40 KCAL/MOL
REMARK 927      BINDING AFFINITY PREDICTED BY RF-SCORE:    0.00 PKD
ROOT
HETATM    1  C   UNL     1      -7.392  10.018  67.605  1.00  0.00    -0.089 C  
HETATM    2  C   UNL     1      -8.312  10.322  66.397  1.00  0.00    -0.132 C  
HETATM    3  C   UNL     1      -8.998   8.996  65.991  1.00  0.00    -0.185 C  
HETATM    4  N   UNL     1      -9.901   8.536  67.056  1.00  0.00    -0.200 NA 
HETATM    5  C   UNL     1     -10.122  11.804  65.341  1.00  0.00    -0.291 C  
HETATM    6  C   UNL     1     -10.961   9.516  67.301  1.00  0.00     0.008 C  
HETATM    7  C   UNL     1     -10.406  10.887  67.677  1.00  0.00    -0.232 C  
HETATM    8  C   UNL     1      -9.380  11.455  66.660  1.00  0.00    -0.198 C  
ENDROOT
BRANCH   4   9
HETATM    9  C   UNL     1     -10.427   7.195  66.769  1.00  0.00    -0.230 C  
HETATM   10  C   UNL     1      -9.363   6.191  66.280  1.00  0.00    -0.157 C  
HETATM   11  C   UNL     1     -10.012   4.830  66.075  1.00  0.00    -0.237 C  
HETATM   12  N   UNL     1     -10.945   4.732  65.058  1.00  0.00    -0.600 N  
HETATM   13  O   UNL     1      -9.716   3.875  66.782  1.00  0.00    -0.214 OA 
HETATM   14  C   UNL     1      -8.609   6.669  65.024  1.00  0.00     0.074 C  
HETATM   15  H   UNL     1     -11.149   5.529  64.455  1.00  0.00     0.000 HD 
BRANCH  14  16
HETATM   16  C   UNL     1      -7.424   5.787  64.697  1.00  0.00    -0.077 A  
HETATM   17  C   UNL     1      -5.521   4.464  65.426  1.00  0.00    -0.013 A  
HETATM   18  C   UNL     1      -6.570   5.340  65.716  1.00  0.00    -0.044 A  
HETATM   19  C   UNL     1      -7.193   5.357  63.384  1.00  0.00    -0.049 A  
HETATM   20  C   UNL     1      -5.317   4.024  64.118  1.00  0.00    -0.013 A  
HETATM   21  C   UNL     1      -6.150   4.477  63.098  1.00  0.00    -0.018 A  
ENDBRANCH  14  16
BRANCH  12  22
HETATM   22  C   UNL     1     -11.631   3.448  64.876  1.00  0.00     2.717 C  
HETATM   23  O   UNL     1     -11.541   4.141  62.573  1.00  0.00     0.331 OA 
HETATM   24  O   UNL     1     -12.726   2.275  63.052  1.00  0.00     3.353 OA 
HETATM   25  C   UNL     1     -12.040   3.214  63.429  1.00  0.00     3.205 C  
ENDBRANCH  12  22
ENDBRANCH   4   9
BRANCH   8  26
HETATM   26  C   UNL     1      -8.780  12.792  67.163  1.00  0.00    -0.202 A  
HETATM   27  C   UNL     1      -9.032  15.035  68.082  1.00  0.00    -0.173 A  
HETATM   28  C   UNL     1      -7.389  13.024  67.140  1.00  0.00     0.031 A  
HETATM   29  O   UNL     1      -9.819  16.060  68.520  1.00  0.00    -0.207 OA 
HETATM   30  C   UNL     1      -7.666  15.256  68.014  1.00  0.00    -0.133 A  
HETATM   31  H   UNL     1      -9.440  16.891  68.781  1.00  0.00     0.000 HD 
HETATM   32  C   UNL     1      -6.839  14.239  67.557  1.00  0.00    -0.158 A  
HETATM   33  C   UNL     1      -9.588  13.812  67.699  1.00  0.00    -0.219 A  
ENDBRANCH   8  26
TORSDOF 4
ENDMDL
MODEL      117
REMARK 921   NORMALIZED FREE ENERGY PREDICTED BY IDOCK:    5.53 KCAL/MOL
REMARK 922        TOTAL FREE ENERGY PREDICTED BY IDOCK:    6.22 KCAL/MOL
REMARK 923 INTER-LIGAND FREE ENERGY PREDICTED BY IDOCK:    3.12 KCAL/MOL
REMARK 924 INTRA-LIGAND FREE ENERGY PREDICTED BY IDOCK:    3.10 KCAL/MOL
REMARK 927      BINDING AFFINITY PREDICTED BY RF-SCORE:    0.00 PKD
ROOT
HETATM    1  C   UNL     1      -6.438   8.917  69.366  1.00  0.00    -0.044 C  
HETATM    2  C   UNL     1      -7.597   9.716  70.011  1.00  0.00    -0.151 C  
HETATM    3  C   UNL     1      -7.525  11.162  69.466  1.00  0.00     0.025 C  
HETATM    4  N   UNL     1      -7.801  11.183  68.023  1.00  0.00    -0.109 NA 
HETATM    5  C   UNL     1     -10.088   9.862  70.610  1.00  0.00    -0.146 C  
HETATM    6  C   UNL     1      -9.148  10.679  67.742  1.00  0.00    -0.143 C  
HETATM    7  C   UNL     1      -9.357   9.262  68.269  1.00  0.00    -0.141 C  
HETATM    8  C   UNL     1      -9.029   9.092  69.776  1.00  0.00    -0.168 C  
ENDROOT
BRANCH   4   9
HETATM    9  C   UNL     1      -7.566  12.515  67.452  1.00  0.00    -0.156 C  
HETATM   10  C   UNL     1      -6.882  13.503  68.418  1.00  0.00    -0.102 C  
HETATM   11  C   UNL     1      -6.638  14.823  67.699  1.00  0.00    -0.158 C  
HETATM   12  N   UNL     1      -7.757  15.550  67.336  1.00  0.00    -0.175 N  
HETATM   13  O   UNL     1      -5.502  15.210  67.457  1.00  0.00    -0.321 OA 
HETATM   14  C   UNL     1      -7.655  13.697  69.737  1.00  0.00     0.795 C  
HETATM   15  H   UNL     1      -8.694  15.229  67.581  1.00  0.00     0.000 HD 
BRANCH  14  16
HETATM   16  C   UNL     1      -6.860  14.484  70.756  1.00  0.00     0.464 A  
HETATM   17  C   UNL     1      -6.211  16.612  71.731  1.00  0.00     2.612 A  
HETATM   18  C   UNL     1      -6.882  15.886  70.745  1.00  0.00     1.337 A  
HETATM   19  C   UNL     1      -6.136  13.827  71.760  1.00  0.00     0.441 A  
HETATM   20  C   UNL     1      -5.514  15.946  72.739  1.00  0.00     1.200 A  
HETATM   21  C   UNL     1      -5.473  14.554  72.748  1.00  0.00    -0.077 A  
ENDBRANCH  14  16
BRANCH  12  22
HETATM   22  C   UNL     1      -7.554  16.796  66.589  1.00  0.00    -0.276 C  
HETATM   23  O   UNL     1      -5.987  17.186  68.373  1.00  0.00    -0.140 OA 
HETATM   24  O   UNL     1      -6.364  18.886  66.930  1.00  0.00    -0.182 OA 
HETATM   25  C   UNL     1      -6.596  17.743  67.296  1.00  0.00    -0.164 C  
ENDBRANCH  12  22
ENDBRANCH   4   9
BRANCH   8  26
HETATM   26  C   UNL     1      -9.158   7.610  70.210  1.00  0.00    -0.149 A  
HETATM   27  C   UNL     1      -9.149   5.877  71.923  1.00  0.00    -0.138 A  
HETATM   28  C   UNL     1      -9.380   6.589  69.263  1.00  0.00    -0.141 A  
HETATM   29  O   UNL     1      -9.004   5.489  73.223  1.00  0.00    -0.124 OA 
HETATM   30  C   UNL     1      -9.329   4.886  70.972  1.00  0.00    -0.209 A  
HETATM   31  H   UNL     1      -9.039   4.572  73.468  1.00  0.00     0.000 HD 
HETATM   32  C   UNL     1      -9.462   5.244  69.637  1.00  0.00    -0.196 A  
HETATM   33  C   UNL     1      -9.099   7.225  71.562  1.00  0.00    -0.145 A  
ENDBRANCH   8  26
TORSDOF 4
ENDMDL
MODEL      118
REMARK 921   NORMALIZED FREE ENERGY PREDICTED BY IDOCK:    7.06 KCAL/MOL
REMARK 922        TOTAL FREE ENERGY PREDICTED BY IDOCK:    8.10 KCAL/MOL
REMARK 923 INTER-LIGAND FREE ENERGY PREDICTED BY IDOCK:    6.13 KCAL/MOL
REMARK 924 INTRA-LIGAND FREE ENERGY PREDICTED BY IDOCK:    1.97 KCAL/MOL
REMARK 927      BINDING AFFINITY PREDICTED BY RF-SCORE:    0.00 PKD
ROOT
HETATM    1  C   UNL     1      -9.459   9.119  69.774  1.00  0.00    -0.191 C  
HETATM    2  C   UNL     1     -10.661   8.549  68.982  1.00  0.00    -0.113 C  
HETATM    3  C   UNL     1     -11.191   9.676  68.066  1.00  0.00     0.082 C  
HETATM    4  N   UNL     1     -10.191  10.025  67.047  1.00  0.00    -0.225 NA 
HETATM    5  C   UNL     1     -11.639   6.660  67.546  1.00  0.00     0.510 C  
HETATM    6  C   UNL     1      -9.894   8.874  66.191  1.00  0.00    -0.256 C  
HETATM    7  C   UNL     1      -9.393   7.673  66.991  1.00  0.00    -0.195 C  
HETATM    8  C   UNL     1     -10.335   7.247  68.149  1.00  0.00    -0.234 C  
ENDROOT
BRANCH   4   9
HETATM    9  C   UNL     1     -10.600  11.208  66.279  1.00  0.00    -0.253 C  
HETATM   10  C   UNL     1     -10.234  12.550  66.945  1.00  0.00    -0.237 C  
HETATM   11  C   UNL     1     -10.651  13.695  66.033  1.00  0.00    -0.290 C  
HETATM   12  N   UNL     1     -12.008  13.868  65.833  1.00  0.00    -0.385 N  
HETATM   13  O   UNL     1      -9.817  14.420  65.506  1.00  0.00    -0.324 OA 
HETATM   14  C   UNL     1     -10.812  12.700  68.365  1.00  0.00    -0.268 C  
HETATM   15  H   UNL     1     -12.689  13.278  66.312  1.00  0.00     0.000 HD 
BRANCH  14  16
HETATM   16  C   UNL     1     -10.257  13.911  69.084  1.00  0.00     0.019 A  
HETATM   17  C   UNL     1      -9.650  16.263  69.084  1.00  0.00    -0.251 A  
HETATM   18  C   UNL     1     -10.090  15.126  68.403  1.00  0.00    -0.225 A  
HETATM   19  C   UNL     1      -9.954  13.854  70.451  1.00  0.00     2.395 A  
HETATM   20  C   UNL     1      -9.376  16.199  70.450  1.00  0.00     1.438 A  
HETATM   21  C   UNL     1      -9.522  14.993  71.130  1.00  0.00     2.399 A  
ENDBRANCH  14  16
BRANCH  12  22
HETATM   22  C   UNL     1     -12.438  14.926  64.912  1.00  0.00    -0.098 C  
HETATM   23  O   UNL     1     -11.285  13.519  63.335  1.00  0.00     0.130 OA 
HETATM   24  O   UNL     1     -12.023  15.524  62.594  1.00  0.00     2.877 OA 
HETATM   25  C   UNL     1     -11.900  14.717  63.503  1.00  0.00     0.823 C  
ENDBRANCH  12  22
ENDBRANCH   4   9
BRANCH   8  26
HETATM   26  C   UNL     1      -9.709   6.099  68.980  1.00  0.00    -0.157 A  
HETATM   27  C   UNL     1      -9.056   5.113  71.110  1.00  0.00    -0.143 A  
HETATM   28  C   UNL     1      -9.171   4.954  68.354  1.00  0.00    -0.157 A  
HETATM   29  O   UNL     1      -8.952   5.177  72.469  1.00  0.00    -0.129 OA 
HETATM   30  C   UNL     1      -8.498   4.016  70.474  1.00  0.00    -0.097 A  
HETATM   31  H   UNL     1      -8.523   4.487  72.961  1.00  0.00     0.000 HD 
HETATM   32  C   UNL     1      -8.571   3.928  69.090  1.00  0.00    -0.113 A  
HETATM   33  C   UNL     1      -9.686   6.127  70.386  1.00  0.00    -0.199 A  
ENDBRANCH   8  26
TORSDOF 4
ENDMDL
MODEL      119
REMARK 921   NORMALIZED FREE ENERGY PREDICTED BY IDOCK:    8.88 KCAL/MOL
REMARK 922        TOTAL FREE ENERGY PREDICTED BY IDOCK:   10.35 KCAL/MOL
REMARK 923 INTER-LIGAND FREE ENERGY PREDICTED BY IDOCK:   11.09 KCAL/MOL
REMARK 924 INTRA-LIGAND FREE ENERGY PREDICTED BY IDOCK:   -0.74 KCAL/MOL
REMARK 927      BINDING AFFINITY PREDICTED BY RF-SCORE:    0.00 PKD
ROOT
HETATM    1  C   UNL     1      -8.337   9.552  69.854  1.00  0.00    -0.180 C  
HETATM    2  C   UNL     1      -9.695   9.530  70.599  1.00  0.00    -0.311 C  
HETATM    3  C   UNL     1     -10.280  10.961  70.542  1.00  0.00     1.386 C  
HETATM    4  N   UNL     1     -10.608  11.328  69.157  1.00  0.00    -0.211 NA 
HETATM    5  C   UNL     1     -11.972   8.407  70.967  1.00  0.00    -0.255 C  
HETATM    6  C   UNL     1     -11.617  10.423  68.603  1.00  0.00    -0.101 C  
HETATM    7  C   UNL     1     -11.169   8.964  68.638  1.00  0.00     0.351 C  
HETATM    8  C   UNL     1     -10.727   8.473  70.043  1.00  0.00    -0.234 C  
ENDROOT
BRANCH   4   9
HETATM    9  C   UNL     1     -10.999  12.740  69.056  1.00  0.00    -0.193 C  
HETATM   10  C   UNL     1      -9.917  13.652  68.444  1.00  0.00    -0.235 C  
HETATM   11  C   UNL     1     -10.457  15.071  68.336  1.00  0.00    -0.238 C  
HETATM   12  N   UNL     1     -10.709  15.732  69.524  1.00  0.00    -0.253 N  
HETATM   13  O   UNL     1     -10.655  15.591  67.245  1.00  0.00    -0.287 OA 
HETATM   14  C   UNL     1      -8.577  13.598  69.203  1.00  0.00     0.466 C  
HETATM   15  H   UNL     1     -10.501  15.297  70.423  1.00  0.00     0.000 HD 
BRANCH  14  16
HETATM   16  C   UNL     1      -7.469  14.315  68.462  1.00  0.00    -0.121 A  
HETATM   17  C   UNL     1      -5.621  14.271  66.885  1.00  0.00     1.713 A  
HETATM   18  C   UNL     1      -6.595  13.601  67.629  1.00  0.00    -0.176 A  
HETATM   19  C   UNL     1      -7.333  15.706  68.551  1.00  0.00    -0.122 A  
HETATM   20  C   UNL     1      -5.513  15.659  66.963  1.00  0.00     0.538 A  
HETATM   21  C   UNL     1      -6.365  16.374  67.801  1.00  0.00    -0.160 A  
ENDBRANCH  14  16
BRANCH  12  22
HETATM   22  C   UNL     1     -11.287  17.079  69.451  1.00  0.00     0.521 C  
HETATM   23  O   UNL     1     -10.210  17.262  71.596  1.00  0.00     3.359 OA 
HETATM   24  O   UNL     1     -11.535  18.976  70.948  1.00  0.00     4.569 OA 
HETATM   25  C   UNL     1     -11.049  17.878  70.725  1.00  0.00     2.557 C  
ENDBRANCH  12  22
ENDBRANCH   4   9
BRANCH   8  26
HETATM   26  C   UNL     1     -10.183   7.023  69.978  1.00  0.00    -0.206 A  
HETATM   27  C   UNL     1      -8.806   5.216  70.860  1.00  0.00    -0.134 A  
HETATM   28  C   UNL     1     -10.548   6.151  68.931  1.00  0.00    -0.335 A  
HETATM   29  O   UNL     1      -7.917   4.737  71.777  1.00  0.00    -0.095 OA 
HETATM   30  C   UNL     1      -9.147   4.391  69.802  1.00  0.00    -0.174 A  
HETATM   31  H   UNL     1      -7.556   3.862  71.699  1.00  0.00     0.000 HD 
HETATM   32  C   UNL     1     -10.036   4.854  68.842  1.00  0.00    -0.185 A  
HETATM   33  C   UNL     1      -9.338   6.502  70.975  1.00  0.00    -0.164 A  
ENDBRANCH   8  26
TORSDOF 4
ENDMDL
MODEL      120
REMARK 921   NORMALIZED FREE ENERGY PREDICTED BY IDOCK:   11.17 KCAL/MOL
REMARK 922        TOTAL FREE ENERGY PREDICTED BY IDOCK:   13.17 KCAL/MOL
REMARK 923 INTER-LIGAND FREE ENERGY PREDICTED BY IDOCK:   13.38 KCAL/MOL
REMARK 924 INTRA-LIGAND FREE ENERGY PREDICTED BY IDOCK:   -0.21 KCAL/MOL
REMARK 927      BINDING AFFINITY PREDICTED BY RF-SCORE:    0.00 PKD
ROOT
HETATM    1  C   UNL     1      -5.732  13.327  65.611  1.00  0.00     7.456 C  
HETATM    2  C   UNL     1      -7.128  13.195  66.267  1.00  0.00     2.642 C  
HETATM    3  C   UNL     1      -7.181  11.823  66.979  1.00  0.00    -0.134 C  
HETATM    4  N   UNL     1      -6.226  11.786  68.096  1.00  0.00    -0.049 NA 
HETATM    5  C   UNL     1      -8.971  14.234  67.720  1.00  0.00    -0.188 C  
HETATM    6  C   UNL     1      -6.552  12.806  69.095  1.00  0.00    -0.101 C  
HETATM    7  C   UNL     1      -6.569  14.212  68.502  1.00  0.00    -0.096 C  
HETATM    8  C   UNL     1      -7.493  14.365  67.263  1.00  0.00    -0.103 C  
ENDROOT
BRANCH   4   9
HETATM    9  C   UNL     1      -6.132  10.439  68.674  1.00  0.00    -0.043 C  
HETATM   10  C   UNL     1      -7.481   9.702  68.780  1.00  0.00    -0.075 C  
HETATM   11  C   UNL     1      -7.249   8.303  69.333  1.00  0.00    -0.059 C  
HETATM   12  N   UNL     1      -6.805   8.217  70.640  1.00  0.00    -0.037 N  
HETATM   13  O   UNL     1      -7.448   7.310  68.646  1.00  0.00    -0.097 OA 
HETATM   14  C   UNL     1      -8.536  10.479  69.593  1.00  0.00     0.013 C  
HETATM   15  H   UNL     1      -6.683   9.054  71.210  1.00  0.00     0.000 HD 
BRANCH  14  16
HETATM   16  C   UNL     1      -9.910   9.854  69.493  1.00  0.00    -0.241 A  
HETATM   17  C   UNL     1     -11.409   8.211  68.516  1.00  0.00     0.780 A  
HETATM   18  C   UNL     1     -10.163   8.841  68.557  1.00  0.00    -0.220 A  
HETATM   19  C   UNL     1     -10.935  10.237  70.369  1.00  0.00    -0.365 A  
HETATM   20  C   UNL     1     -12.412   8.585  69.410  1.00  0.00     2.750 A  
HETATM   21  C   UNL     1     -12.175   9.601  70.331  1.00  0.00    -0.065 A  
ENDBRANCH  14  16
BRANCH  12  22
HETATM   22  C   UNL     1      -6.515   6.884  71.182  1.00  0.00    -0.041 C  
HETATM   23  O   UNL     1      -8.553   7.327  72.383  1.00  0.00    -0.114 OA 
HETATM   24  O   UNL     1      -7.402   5.461  72.939  1.00  0.00    -0.088 OA 
HETATM   25  C   UNL     1      -7.507   6.471  72.260  1.00  0.00    -0.095 C  
ENDBRANCH  12  22
ENDBRANCH   4   9
BRANCH   8  26
HETATM   26  C   UNL     1      -7.373  15.784  66.652  1.00  0.00     0.084 A  
HETATM   27  C   UNL     1      -6.231  17.925  66.431  1.00  0.00    -0.204 A  
HETATM   28  C   UNL     1      -8.339  16.274  65.748  1.00  0.00     0.456 A  
HETATM   29  O   UNL     1      -5.223  18.777  66.775  1.00  0.00    -0.137 OA 
HETATM   30  C   UNL     1      -7.211  18.401  65.576  1.00  0.00    -0.031 A  
HETATM   31  H   UNL     1      -5.188  19.661  66.429  1.00  0.00     0.000 HD 
HETATM   32  C   UNL     1      -8.261  17.566  65.219  1.00  0.00     1.973 A  
HETATM   33  C   UNL     1      -6.283  16.626  66.939  1.00  0.00    -0.189 A  
ENDBRANCH   8  26
TORSDOF 4
ENDMDL
MODEL      121
REMARK 921   NORMALIZED FREE ENERGY PREDICTED BY IDOCK:   11.43 KCAL/MOL
REMARK 922        TOTAL FREE ENERGY PREDICTED BY IDOCK:   13.49 KCAL/MOL
REMARK 923 INTER-LIGAND FREE ENERGY PREDICTED BY IDOCK:   13.07 KCAL/MOL
REMARK 924 INTRA-LIGAND FREE ENERGY PREDICTED BY IDOCK:    0.43 KCAL/MOL
REMARK 927      BINDING AFFINITY PREDICTED BY RF-SCORE:    0.00 PKD
ROOT
HETATM    1  C   UNL     1     -10.631   7.887  69.818  1.00  0.00    -0.242 C  
HETATM    2  C   UNL     1      -9.283   7.785  69.063  1.00  0.00    -0.143 C  
HETATM    3  C   UNL     1      -8.757   9.225  68.854  1.00  0.00    -0.131 C  
HETATM    4  N   UNL     1      -8.429   9.846  70.146  1.00  0.00    -0.170 NA 
HETATM    5  C   UNL     1      -6.965   6.704  68.859  1.00  0.00    -0.079 C  
HETATM    6  C   UNL     1      -7.376   9.094  70.833  1.00  0.00    -0.116 C  
HETATM    7  C   UNL     1      -7.764   7.636  71.066  1.00  0.00    -0.088 C  
HETATM    8  C   UNL     1      -8.202   6.885  69.779  1.00  0.00    -0.131 C  
ENDROOT
BRANCH   4   9
HETATM    9  C   UNL     1      -8.096  11.267  69.987  1.00  0.00     1.469 C  
HETATM   10  C   UNL     1      -9.294  12.157  69.603  1.00  0.00     1.728 C  
HETATM   11  C   UNL     1      -8.841  13.608  69.527  1.00  0.00     1.173 C  
HETATM   12  N   UNL     1      -7.949  13.928  68.520  1.00  0.00    -0.141 N  
HETATM   13  O   UNL     1      -9.251  14.441  70.324  1.00  0.00     1.102 OA 
HETATM   14  C   UNL     1      -9.999  11.702  68.310  1.00  0.00    -0.201 C  
HETATM   15  H   UNL     1      -7.649  13.229  67.841  1.00  0.00     0.000 HD 
BRANCH  14  16
HETATM   16  C   UNL     1     -11.299  12.440  68.076  1.00  0.00    -0.340 A  
HETATM   17  C   UNL     1     -13.008  13.988  68.842  1.00  0.00     1.493 A  
HETATM   18  C   UNL     1     -11.849  13.247  69.083  1.00  0.00    -0.378 A  
HETATM   19  C   UNL     1     -11.945  12.375  66.834  1.00  0.00    -0.266 A  
HETATM   20  C   UNL     1     -13.626  13.934  67.594  1.00  0.00     6.195 A  
HETATM   21  C   UNL     1     -13.097  13.122  66.593  1.00  0.00     1.892 A  
ENDBRANCH  14  16
BRANCH  12  22
HETATM   22  C   UNL     1      -7.447  15.306  68.459  1.00  0.00    -0.121 C  
HETATM   23  O   UNL     1      -6.604  14.520  66.346  1.00  0.00     1.789 OA 
HETATM   24  O   UNL     1      -5.967  16.583  67.018  1.00  0.00    -0.190 OA 
HETATM   25  C   UNL     1      -6.590  15.553  67.225  1.00  0.00    -0.054 C  
ENDBRANCH  12  22
ENDBRANCH   4   9
BRANCH   8  26
HETATM   26  C   UNL     1      -8.684   5.450  70.111  1.00  0.00    -0.134 A  
HETATM   27  C   UNL     1      -9.960   3.887  71.477  1.00  0.00    -0.139 A  
HETATM   28  C   UNL     1      -8.259   4.342  69.348  1.00  0.00    -0.069 A  
HETATM   29  O   UNL     1     -10.771   3.626  72.543  1.00  0.00    -0.082 OA 
HETATM   30  C   UNL     1      -9.499   2.809  70.740  1.00  0.00    -0.219 A  
HETATM   31  H   UNL     1     -11.021   2.736  72.762  1.00  0.00     0.000 HD 
HETATM   32  C   UNL     1      -8.658   3.039  69.659  1.00  0.00    -0.114 A  
HETATM   33  C   UNL     1      -9.593   5.195  71.154  1.00  0.00    -0.224 A  
ENDBRANCH   8  26
TORSDOF 4
ENDMDL
MODEL      122
REMARK 921   NORMALIZED FREE ENERGY PREDICTED BY IDOCK:   17.72 KCAL/MOL
REMARK 922        TOTAL FREE ENERGY PREDICTED BY IDOCK:   21.26 KCAL/MOL
REMARK 923 INTER-LIGAND FREE ENERGY PREDICTED BY IDOCK:   20.85 KCAL/MOL
REMARK 924 INTRA-LIGAND FREE ENERGY PREDICTED BY IDOCK:    0.41 KCAL/MOL
REMARK 927      BINDING AFFINITY PREDICTED BY RF-SCORE:    0.00 PKD
ROOT
HETATM    1  C   UNL     1     -13.364  14.438  67.114  1.00  0.00     3.522 C  
HETATM    2  C   UNL     1     -12.812  15.365  66.003  1.00  0.00     1.668 C  
HETATM    3  C   UNL     1     -12.408  16.701  66.670  1.00  0.00     3.254 C  
HETATM    4  N   UNL     1     -11.283  16.496  67.594  1.00  0.00    -0.125 NA 
HETATM    5  C   UNL     1     -11.254  15.680  63.988  1.00  0.00     0.343 C  
HETATM    6  C   UNL     1     -10.107  15.993  66.880  1.00  0.00    -0.265 C  
HETATM    7  C   UNL     1     -10.391  14.687  66.144  1.00  0.00    -0.309 C  
HETATM    8  C   UNL     1     -11.608  14.754  65.183  1.00  0.00    -0.358 C  
ENDROOT
BRANCH   4   9
HETATM    9  C   UNL     1     -10.998  17.711  68.368  1.00  0.00     0.016 C  
HETATM   10  C   UNL     1      -9.785  18.514  67.858  1.00  0.00    -0.339 C  
HETATM   11  C   UNL     1      -9.627  19.775  68.696  1.00  0.00    -0.322 C  
HETATM   12  N   UNL     1      -9.280  19.599  70.023  1.00  0.00     0.613 N  
HETATM   13  O   UNL     1      -9.802  20.884  68.209  1.00  0.00     0.078 OA 
HETATM   14  C   UNL     1      -8.486  17.685  67.807  1.00  0.00    -0.227 C  
HETATM   15  H   UNL     1      -9.101  18.669  70.401  1.00  0.00     0.000 HD 
BRANCH  14  16
HETATM   16  C   UNL     1      -7.369  18.415  67.094  1.00  0.00    -0.217 A  
HETATM   17  C   UNL     1      -6.509  19.526  65.111  1.00  0.00    -0.313 A  
HETATM   18  C   UNL     1      -7.508  18.786  65.748  1.00  0.00    -0.147 A  
HETATM   19  C   UNL     1      -6.203  18.781  67.779  1.00  0.00    -0.200 A  
HETATM   20  C   UNL     1      -5.365  19.905  65.812  1.00  0.00    -0.177 A  
HETATM   21  C   UNL     1      -5.211  19.527  67.143  1.00  0.00    -0.161 A  
ENDBRANCH  14  16
BRANCH  12  22
HETATM   22  C   UNL     1      -9.180  20.793  70.871  1.00  0.00     2.405 C  
HETATM   23  O   UNL     1      -9.827  19.204  72.559  1.00  0.00     3.494 OA 
HETATM   24  O   UNL     1      -9.725  21.381  73.164  1.00  0.00     4.256 OA 
HETATM   25  C   UNL     1      -9.609  20.519  72.305  1.00  0.00     2.960 C  
ENDBRANCH  12  22
ENDBRANCH   4   9
BRANCH   8  26
HETATM   26  C   UNL     1     -11.901  13.366  64.559  1.00  0.00    -0.440 A  
HETATM   27  C   UNL     1     -11.176  11.349  63.400  1.00  0.00    -0.157 A  
HETATM   28  C   UNL     1     -13.207  12.832  64.544  1.00  0.00     0.185 A  
HETATM   29  O   UNL     1     -10.202  10.609  62.796  1.00  0.00    -0.730 OA 
HETATM   30  C   UNL     1     -12.472  10.861  63.362  1.00  0.00     2.104 A  
HETATM   31  H   UNL     1     -10.405   9.781  62.376  1.00  0.00     0.000 HD 
HETATM   32  C   UNL     1     -13.490  11.598  63.952  1.00  0.00     0.885 A  
HETATM   33  C   UNL     1     -10.878  12.565  64.019  1.00  0.00    -0.446 A  
ENDBRANCH   8  26
TORSDOF 4
ENDMDL
MODEL      123
REMARK 921   NORMALIZED FREE ENERGY PREDICTED BY IDOCK:   21.02 KCAL/MOL
REMARK 922        TOTAL FREE ENERGY PREDICTED BY IDOCK:   25.33 KCAL/MOL
REMARK 923 INTER-LIGAND FREE ENERGY PREDICTED BY IDOCK:   24.58 KCAL/MOL
REMARK 924 INTRA-LIGAND FREE ENERGY PREDICTED BY IDOCK:    0.76 KCAL/MOL
REMARK 927      BINDING AFFINITY PREDICTED BY RF-SCORE:    0.00 PKD
ROOT
HETATM    1  C   UNL     1     -10.668   6.883  68.272  1.00  0.00    -0.265 C  
HETATM    2  C   UNL     1      -9.935   7.845  69.238  1.00  0.00    -0.190 C  
HETATM    3  C   UNL     1      -9.798   9.209  68.522  1.00  0.00    -0.164 C  
HETATM    4  N   UNL     1     -11.121   9.813  68.307  1.00  0.00    -0.161 NA 
HETATM    5  C   UNL     1      -9.727   8.846  71.592  1.00  0.00    -0.379 C  
HETATM    6  C   UNL     1     -11.795  10.059  69.584  1.00  0.00     0.030 C  
HETATM    7  C   UNL     1     -11.957   8.784  70.408  1.00  0.00     0.129 C  
HETATM    8  C   UNL     1     -10.632   8.011  70.645  1.00  0.00    -0.227 C  
ENDROOT
BRANCH   4   9
HETATM    9  C   UNL     1     -11.030  11.020  67.475  1.00  0.00    -0.281 C  
HETATM   10  C   UNL     1     -10.340  12.212  68.167  1.00  0.00    -0.214 C  
HETATM   11  C   UNL     1     -10.251  13.377  67.191  1.00  0.00    -0.247 C  
HETATM   12  N   UNL     1     -11.445  13.959  66.806  1.00  0.00    -0.336 N  
HETATM   13  O   UNL     1      -9.170  13.771  66.773  1.00  0.00    -0.246 OA 
HETATM   14  C   UNL     1     -11.013  12.618  69.493  1.00  0.00     0.046 C  
HETATM   15  H   UNL     1     -12.334  13.642  67.195  1.00  0.00     0.000 HD 
BRANCH  14  16
HETATM   16  C   UNL     1     -10.194  13.630  70.265  1.00  0.00     2.061 A  
HETATM   17  C   UNL     1      -8.792  15.614  70.302  1.00  0.00     0.936 A  
HETATM   18  C   UNL     1      -9.486  14.634  69.588  1.00  0.00     0.275 A  
HETATM   19  C   UNL     1     -10.173  13.614  71.665  1.00  0.00     7.082 A  
HETATM   20  C   UNL     1      -8.801  15.602  71.696  1.00  0.00     5.427 A  
HETATM   21  C   UNL     1      -9.486  14.598  72.376  1.00  0.00     6.424 A  
ENDBRANCH  14  16
BRANCH  12  22
HETATM   22  C   UNL     1     -11.395  15.044  65.820  1.00  0.00    -0.279 C  
HETATM   23  O   UNL     1     -13.784  14.898  66.076  1.00  0.00     1.363 OA 
HETATM   24  O   UNL     1     -12.992  16.272  64.463  1.00  0.00     0.893 OA 
HETATM   25  C   UNL     1     -12.782  15.472  65.363  1.00  0.00     1.183 C  
ENDBRANCH  12  22
ENDBRANCH   4   9
BRANCH   8  26
HETATM   26  C   UNL     1     -10.892   6.678  71.390  1.00  0.00    -0.282 A  
HETATM   27  C   UNL     1     -10.116   4.779  72.705  1.00  0.00    -0.172 A  
HETATM   28  C   UNL     1     -12.176   6.095  71.419  1.00  0.00     0.108 A  
HETATM   29  O   UNL     1      -9.113   4.087  73.320  1.00  0.00    -0.105 OA 
HETATM   30  C   UNL     1     -11.376   4.205  72.688  1.00  0.00     0.223 A  
HETATM   31  H   UNL     1      -9.278   3.247  73.732  1.00  0.00     0.000 HD 
HETATM   32  C   UNL     1     -12.416   4.874  72.056  1.00  0.00     2.125 A  
HETATM   33  C   UNL     1      -9.874   6.014  72.100  1.00  0.00    -0.181 A  
ENDBRANCH   8  26
TORSDOF 4
ENDMDL
MODEL      124
REMARK 921   NORMALIZED FREE ENERGY PREDICTED BY IDOCK:   23.65 KCAL/MOL
REMARK 922        TOTAL FREE ENERGY PREDICTED BY IDOCK:   28.57 KCAL/MOL
REMARK 923 INTER-LIGAND FREE ENERGY PREDICTED BY IDOCK:   29.36 KCAL/MOL
REMARK 924 INTRA-LIGAND FREE ENERGY PREDICTED BY IDOCK:   -0.79 KCAL/MOL
REMARK 927      BINDING AFFINITY PREDICTED BY RF-SCORE:    0.00 PKD
ROOT
HETATM    1  C   UNL     1     -11.014  10.534  73.719  1.00  0.00    14.921 C  
HETATM    2  C   UNL     1     -10.370  10.880  72.354  1.00  0.00     9.772 C  
HETATM    3  C   UNL     1      -9.400   9.731  71.993  1.00  0.00     2.625 C  
HETATM    4  N   UNL     1     -10.142   8.483  71.762  1.00  0.00    -0.252 NA 
HETATM    5  C   UNL     1     -10.669  11.647  69.923  1.00  0.00     0.401 C  
HETATM    6  C   UNL     1     -11.075   8.631  70.643  1.00  0.00    -0.249 C  
HETATM    7  C   UNL     1     -12.069   9.768  70.866  1.00  0.00    -0.407 C  
HETATM    8  C   UNL     1     -11.406  11.134  71.190  1.00  0.00     0.993 C  
ENDROOT
BRANCH   4   9
HETATM    9  C   UNL     1      -9.232   7.343  71.592  1.00  0.00    -0.142 C  
HETATM   10  C   UNL     1      -9.898   5.968  71.798  1.00  0.00    -0.189 C  
HETATM   11  C   UNL     1      -8.877   4.870  71.537  1.00  0.00    -0.134 C  
HETATM   12  N   UNL     1      -7.821   4.780  72.425  1.00  0.00    -0.090 N  
HETATM   13  O   UNL     1      -8.995   4.110  70.585  1.00  0.00    -0.085 OA 
HETATM   14  C   UNL     1     -10.570   5.819  73.177  1.00  0.00    -0.272 C  
HETATM   15  H   UNL     1      -7.761   5.397  73.235  1.00  0.00     0.000 HD 
BRANCH  14  16
HETATM   16  C   UNL     1     -11.408   4.562  73.273  1.00  0.00    -0.364 A  
HETATM   17  C   UNL     1     -13.445   3.346  72.749  1.00  0.00     2.894 A  
HETATM   18  C   UNL     1     -12.700   4.528  72.728  1.00  0.00     1.223 A  
HETATM   19  C   UNL     1     -10.888   3.399  73.856  1.00  0.00    -0.299 A  
HETATM   20  C   UNL     1     -12.906   2.189  73.310  1.00  0.00     0.449 A  
HETATM   21  C   UNL     1     -11.631   2.219  73.868  1.00  0.00    -0.094 A  
ENDBRANCH  14  16
BRANCH  12  22
HETATM   22  C   UNL     1      -6.788   3.769  72.165  1.00  0.00    -0.026 C  
HETATM   23  O   UNL     1      -7.127   3.345  74.510  1.00  0.00    -0.048 OA 
HETATM   24  O   UNL     1      -5.433   2.250  73.489  1.00  0.00     0.000 OA 
HETATM   25  C   UNL     1      -6.359   3.045  73.433  1.00  0.00    -0.020 C  
ENDBRANCH  12  22
ENDBRANCH   4   9
BRANCH   8  26
HETATM   26  C   UNL     1     -12.475  12.209  71.510  1.00  0.00    -0.144 A  
HETATM   27  C   UNL     1     -13.467  14.406  71.158  1.00  0.00    -0.306 A  
HETATM   28  C   UNL     1     -13.457  11.991  72.499  1.00  0.00     0.242 A  
HETATM   29  O   UNL     1     -13.477  15.622  70.540  1.00  0.00    -0.821 OA 
HETATM   30  C   UNL     1     -14.398  14.187  72.161  1.00  0.00    -0.606 A  
HETATM   31  H   UNL     1     -14.109  16.289  70.779  1.00  0.00     0.000 HD 
HETATM   32  C   UNL     1     -14.404  12.966  72.823  1.00  0.00     0.754 A  
HETATM   33  C   UNL     1     -12.538  13.425  70.806  1.00  0.00    -0.369 A  
ENDBRANCH   8  26
TORSDOF 4
ENDMDL
MODEL      125
REMARK 921   NORMALIZED FREE ENERGY PREDICTED BY IDOCK:   36.68 KCAL/MOL
REMARK 922        TOTAL FREE ENERGY PREDICTED BY IDOCK:   44.65 KCAL/MOL
REMARK 923 INTER-LIGAND FREE ENERGY PREDICTED BY IDOCK:   45.12 KCAL/MOL
REMARK 924 INTRA-LIGAND FREE ENERGY PREDICTED BY IDOCK:   -0.47 KCAL/MOL
REMARK 927      BINDING AFFINITY PREDICTED BY RF-SCORE:    0.00 PKD
ROOT
HETATM    1  C   UNL     1      -8.157  12.463  71.022  1.00  0.00     8.746 C  
HETATM    2  C   UNL     1      -9.674  12.157  71.085  1.00  0.00     9.940 C  
HETATM    3  C   UNL     1     -10.410  13.298  70.346  1.00  0.00     2.805 C  
HETATM    4  N   UNL     1     -10.075  13.286  68.914  1.00  0.00    -0.056 NA 
HETATM    5  C   UNL     1     -11.581  10.468  70.775  1.00  0.00    -0.432 C  
HETATM    6  C   UNL     1     -10.491  12.026  68.293  1.00  0.00    -0.204 C  
HETATM    7  C   UNL     1      -9.855  10.812  68.964  1.00  0.00    -0.208 C  
HETATM    8  C   UNL     1     -10.079  10.748  70.499  1.00  0.00     1.200 C  
ENDROOT
BRANCH   4   9
HETATM    9  C   UNL     1     -10.621  14.463  68.227  1.00  0.00    -0.243 C  
HETATM   10  C   UNL     1      -9.666  15.088  67.191  1.00  0.00    -0.228 C  
HETATM   11  C   UNL     1     -10.361  16.255  66.504  1.00  0.00    -0.307 C  
HETATM   12  N   UNL     1     -10.647  17.357  67.290  1.00  0.00    -0.320 N  
HETATM   13  O   UNL     1     -10.650  16.209  65.316  1.00  0.00    -0.459 OA 
HETATM   14  C   UNL     1      -8.304  15.494  67.788  1.00  0.00    -0.155 C  
HETATM   15  H   UNL     1     -10.363  17.393  68.269  1.00  0.00     0.000 HD 
BRANCH  14  16
HETATM   16  C   UNL     1      -7.306  15.889  66.721  1.00  0.00    -0.140 A  
HETATM   17  C   UNL     1      -5.453  15.318  65.258  1.00  0.00    10.777 A  
HETATM   18  C   UNL     1      -6.326  14.981  66.295  1.00  0.00     3.946 A  
HETATM   19  C   UNL     1      -7.379  17.145  66.104  1.00  0.00    -0.281 A  
HETATM   20  C   UNL     1      -5.553  16.562  64.635  1.00  0.00     6.675 A  
HETATM   21  C   UNL     1      -6.512  17.475  65.063  1.00  0.00     1.559 A  
ENDBRANCH  14  16
BRANCH  12  22
HETATM   22  C   UNL     1     -11.371  18.474  66.671  1.00  0.00     0.944 C  
HETATM   23  O   UNL     1     -10.237  19.696  68.407  1.00  0.00    -0.423 OA 
HETATM   24  O   UNL     1     -11.766  20.817  67.174  1.00  0.00     2.711 OA 
HETATM   25  C   UNL     1     -11.172  19.780  67.427  1.00  0.00     0.167 C  
ENDBRANCH  12  22
ENDBRANCH   4   9
BRANCH   8  26
HETATM   26  C   UNL     1      -9.315   9.553  71.123  1.00  0.00     0.022 A  
HETATM   27  C   UNL     1      -7.293   8.222  71.402  1.00  0.00    -0.083 A  
HETATM   28  C   UNL     1      -9.958   8.647  71.991  1.00  0.00    -0.399 A  
HETATM   29  O   UNL     1      -5.987   7.964  71.103  1.00  0.00    -0.034 OA 
HETATM   30  C   UNL     1      -7.955   7.322  72.221  1.00  0.00    -0.103 A  
HETATM   31  H   UNL     1      -5.544   7.202  71.455  1.00  0.00     0.000 HD 
HETATM   32  C   UNL     1      -9.289   7.545  72.532  1.00  0.00    -0.200 A  
HETATM   33  C   UNL     1      -7.944   9.343  70.884  1.00  0.00    -0.096 A  
ENDBRANCH   8  26
TORSDOF 4
ENDMDL
MODEL      126
REMARK 921   NORMALIZED FREE ENERGY PREDICTED BY IDOCK:   38.23 KCAL/MOL
REMARK 922        TOTAL FREE ENERGY PREDICTED BY IDOCK:   46.56 KCAL/MOL
REMARK 923 INTER-LIGAND FREE ENERGY PREDICTED BY IDOCK:   46.39 KCAL/MOL
REMARK 924 INTRA-LIGAND FREE ENERGY PREDICTED BY IDOCK:    0.17 KCAL/MOL
REMARK 927      BINDING AFFINITY PREDICTED BY RF-SCORE:    0.00 PKD
ROOT
HETATM    1  C   UNL     1     -10.451  11.019  69.087  1.00  0.00    -0.238 C  
HETATM    2  C   UNL     1     -11.566  11.247  68.036  1.00  0.00    -0.343 C  
HETATM    3  C   UNL     1     -11.331  12.639  67.404  1.00  0.00    -0.313 C  
HETATM    4  N   UNL     1     -10.075  12.654  66.641  1.00  0.00    -0.236 NA 
HETATM    5  C   UNL     1     -12.906  10.355  66.039  1.00  0.00     9.587 C  
HETATM    6  C   UNL     1     -10.118  11.682  65.547  1.00  0.00    -0.246 C  
HETATM    7  C   UNL     1     -10.383  10.263  66.044  1.00  0.00    -0.248 C  
HETATM    8  C   UNL     1     -11.653  10.128  66.926  1.00  0.00     1.273 C  
ENDROOT
BRANCH   4   9
HETATM    9  C   UNL     1      -9.744  14.008  66.181  1.00  0.00    -0.280 C  
HETATM   10  C   UNL     1      -9.245  14.950  67.295  1.00  0.00    -0.212 C  
HETATM   11  C   UNL     1      -8.878  16.297  66.690  1.00  0.00    -0.254 C  
HETATM   12  N   UNL     1      -9.916  17.046  66.166  1.00  0.00    -0.306 N  
HETATM   13  O   UNL     1      -7.718  16.688  66.672  1.00  0.00    -0.222 OA 
HETATM   14  C   UNL     1     -10.241  15.090  68.463  1.00  0.00    -0.227 C  
HETATM   15  H   UNL     1     -10.881  16.721  66.225  1.00  0.00     0.000 HD 
BRANCH  14  16
HETATM   16  C   UNL     1      -9.642  15.827  69.641  1.00  0.00    -0.233 A  
HETATM   17  C   UNL     1      -8.425  15.798  71.743  1.00  0.00     6.753 A  
HETATM   18  C   UNL     1      -9.045  15.117  70.693  1.00  0.00     1.531 A  
HETATM   19  C   UNL     1      -9.625  17.228  69.674  1.00  0.00     0.477 A  
HETATM   20  C   UNL     1      -8.392  17.192  71.751  1.00  0.00    11.722 A  
HETATM   21  C   UNL     1      -8.998  17.905  70.720  1.00  0.00     5.333 A  
ENDBRANCH  14  16
BRANCH  12  22
HETATM   22  C   UNL     1      -9.585  18.322  65.521  1.00  0.00     0.854 C  
HETATM   23  O   UNL     1     -10.840  19.175  67.390  1.00  0.00    -0.483 OA 
HETATM   24  O   UNL     1     -10.206  20.654  65.802  1.00  0.00    -0.028 OA 
HETATM   25  C   UNL     1     -10.236  19.507  66.222  1.00  0.00    -0.488 C  
ENDBRANCH  12  22
ENDBRANCH   4   9
BRANCH   8  26
HETATM   26  C   UNL     1     -11.794   8.688  67.481  1.00  0.00     3.463 A  
HETATM   27  C   UNL     1     -12.037   7.128  69.337  1.00  0.00     0.929 A  
HETATM   28  C   UNL     1     -11.780   7.569  66.622  1.00  0.00     3.127 A  
HETATM   29  O   UNL     1     -12.129   6.875  70.674  1.00  0.00    -0.469 OA 
HETATM   30  C   UNL     1     -11.981   6.042  68.479  1.00  0.00     2.321 A  
HETATM   31  H   UNL     1     -12.167   5.985  71.004  1.00  0.00     0.000 HD 
HETATM   32  C   UNL     1     -11.869   6.264  67.113  1.00  0.00     1.621 A  
HETATM   33  C   UNL     1     -11.981   8.437  68.852  1.00  0.00     2.225 A  
ENDBRANCH   8  26
TORSDOF 4
ENDMDL
MODEL      127
REMARK 921   NORMALIZED FREE ENERGY PREDICTED BY IDOCK:   46.27 KCAL/MOL
REMARK 922        TOTAL FREE ENERGY PREDICTED BY IDOCK:   56.48 KCAL/MOL
REMARK 923 INTER-LIGAND FREE ENERGY PREDICTED BY IDOCK:   55.43 KCAL/MOL
REMARK 924 INTRA-LIGAND FREE ENERGY PREDICTED BY IDOCK:    1.05 KCAL/MOL
REMARK 927      BINDING AFFINITY PREDICTED BY RF-SCORE:    0.00 PKD
ROOT
HETATM    1  C   UNL     1      -5.852   8.798  65.515  1.00  0.00    -0.047 C  
HETATM    2  C   UNL     1      -7.108   8.667  66.411  1.00  0.00    -0.079 C  
HETATM    3  C   UNL     1      -7.497  10.089  66.878  1.00  0.00    -0.095 C  
HETATM    4  N   UNL     1      -7.924  10.908  65.735  1.00  0.00    -0.121 NA 
HETATM    5  C   UNL     1      -9.462   7.704  66.754  1.00  0.00    -0.244 C  
HETATM    6  C   UNL     1      -9.102  10.326  65.088  1.00  0.00    -0.197 C  
HETATM    7  C   UNL     1      -8.855   8.897  64.612  1.00  0.00    -0.098 C  
HETATM    8  C   UNL     1      -8.330   7.944  65.719  1.00  0.00    -0.139 C  
ENDROOT
BRANCH   4   9
HETATM    9  C   UNL     1      -8.129  12.309  66.126  1.00  0.00     0.595 C  
HETATM   10  C   UNL     1      -8.091  12.551  67.648  1.00  0.00    -0.171 C  
HETATM   11  C   UNL     1      -8.253  14.038  67.926  1.00  0.00    -0.158 C  
HETATM   12  N   UNL     1      -9.475  14.601  67.607  1.00  0.00    -0.202 N  
HETATM   13  O   UNL     1      -7.339  14.695  68.408  1.00  0.00    -0.102 OA 
HETATM   14  C   UNL     1      -9.117  11.701  68.424  1.00  0.00    -0.180 C  
HETATM   15  H   UNL     1     -10.237  14.030  67.242  1.00  0.00     0.000 HD 
BRANCH  14  16
HETATM   16  C   UNL     1      -8.910  11.779  69.921  1.00  0.00     2.273 A  
HETATM   17  C   UNL     1      -7.607  12.530  71.829  1.00  0.00    10.456 A  
HETATM   18  C   UNL     1      -7.762  12.390  70.448  1.00  0.00     3.637 A  
HETATM   19  C   UNL     1      -9.884  11.295  70.804  1.00  0.00     4.072 A  
HETATM   20  C   UNL     1      -8.596  12.067  72.696  1.00  0.00    23.116 A  
HETATM   21  C   UNL     1      -9.730  11.444  72.182  1.00  0.00    14.425 A  
ENDBRANCH  14  16
BRANCH  12  22
HETATM   22  C   UNL     1      -9.640  16.045  67.807  1.00  0.00    -0.219 C  
HETATM   23  O   UNL     1      -9.889  15.332  70.092  1.00  0.00    -0.179 OA 
HETATM   24  O   UNL     1     -10.279  17.512  69.635  1.00  0.00    -0.088 OA 
HETATM   25  C   UNL     1      -9.979  16.392  69.250  1.00  0.00    -0.259 C  
ENDBRANCH  12  22
ENDBRANCH   4   9
BRANCH   8  26
HETATM   26  C   UNL     1      -7.998   6.547  65.138  1.00  0.00    -0.123 A  
HETATM   27  C   UNL     1      -6.696   5.094  63.677  1.00  0.00    -0.041 A  
HETATM   28  C   UNL     1      -8.731   5.403  65.520  1.00  0.00    -0.154 A  
HETATM   29  O   UNL     1      -5.721   4.915  62.740  1.00  0.00    -0.013 OA 
HETATM   30  C   UNL     1      -7.454   3.992  64.037  1.00  0.00    -0.070 A  
HETATM   31  H   UNL     1      -5.560   4.060  62.357  1.00  0.00     0.000 HD 
HETATM   32  C   UNL     1      -8.465   4.144  64.976  1.00  0.00    -0.115 A  
HETATM   33  C   UNL     1      -6.933   6.350  64.240  1.00  0.00    -0.044 A  
ENDBRANCH   8  26
TORSDOF 4
ENDMDL
MODEL      128
REMARK 921   NORMALIZED FREE ENERGY PREDICTED BY IDOCK:   55.68 KCAL/MOL
REMARK 922        TOTAL FREE ENERGY PREDICTED BY IDOCK:   68.10 KCAL/MOL
REMARK 923 INTER-LIGAND FREE ENERGY PREDICTED BY IDOCK:   61.89 KCAL/MOL
REMARK 924 INTRA-LIGAND FREE ENERGY PREDICTED BY IDOCK:    6.20 KCAL/MOL
REMARK 927      BINDING AFFINITY PREDICTED BY RF-SCORE:    0.00 PKD
ROOT
HETATM    1  C   UNL     1      -8.880  14.259  71.271  1.00  0.00     5.383 C  
HETATM    2  C   UNL     1      -7.479  14.090  71.910  1.00  0.00     4.987 C  
HETATM    3  C   UNL     1      -6.919  12.725  71.449  1.00  0.00     4.626 C  
HETATM    4  N   UNL     1      -6.681  12.728  69.998  1.00  0.00     0.221 NA 
HETATM    5  C   UNL     1      -5.168  15.086  72.411  1.00  0.00    -0.023 C  
HETATM    6  C   UNL     1      -5.695  13.748  69.634  1.00  0.00    -0.100 C  
HETATM    7  C   UNL     1      -6.120  15.147  70.073  1.00  0.00    -0.148 C  
HETATM    8  C   UNL     1      -6.469  15.258  71.582  1.00  0.00     1.309 C  
ENDROOT
BRANCH   4   9
HETATM    9  C   UNL     1      -6.317  11.392  69.512  1.00  0.00    -0.113 C  
HETATM   10  C   UNL     1      -7.519  10.528  69.080  1.00  0.00    -0.114 C  
HETATM   11  C   UNL     1      -7.015   9.197  68.541  1.00  0.00    -0.067 C  
HETATM   12  N   UNL     1      -6.403   8.351  69.449  1.00  0.00    -0.037 N  
HETATM   13  O   UNL     1      -7.149   8.900  67.362  1.00  0.00    -0.077 OA 
HETATM   14  C   UNL     1      -8.566  10.343  70.196  1.00  0.00     0.425 C  
HETATM   15  H   UNL     1      -6.336   8.599  70.436  1.00  0.00     0.000 HD 
BRANCH  14  16
HETATM   16  C   UNL     1      -9.835   9.693  69.688  1.00  0.00    -0.233 A  
HETATM   17  C   UNL     1     -11.492   7.921  69.824  1.00  0.00     0.216 A  
HETATM   18  C   UNL     1     -10.282   8.483  70.238  1.00  0.00    -0.206 A  
HETATM   19  C   UNL     1     -10.612  10.315  68.702  1.00  0.00    -0.232 A  
HETATM   20  C   UNL     1     -12.267   8.564  68.860  1.00  0.00     3.079 A  
HETATM   21  C   UNL     1     -11.823   9.757  68.296  1.00  0.00     1.159 A  
ENDBRANCH  14  16
BRANCH  12  22
HETATM   22  C   UNL     1      -5.853   7.086  68.947  1.00  0.00    -0.019 C  
HETATM   23  O   UNL     1      -6.364   8.122  66.835  1.00  0.00    -0.053 OA 
HETATM   24  O   UNL     1      -5.674   5.969  66.797  1.00  0.00    -0.015 OA 
HETATM   25  C   UNL     1      -5.954   6.975  67.432  1.00  0.00    -0.028 C  
ENDBRANCH  12  22
ENDBRANCH   4   9
BRANCH   8  26
HETATM   26  C   UNL     1      -6.995  16.674  71.927  1.00  0.00     6.247 A  
HETATM   27  C   UNL     1      -7.724  18.903  71.266  1.00  0.00     4.676 A  
HETATM   28  C   UNL     1      -7.212  17.066  73.265  1.00  0.00    11.657 A  
HETATM   29  O   UNL     1      -7.952  19.844  70.304  1.00  0.00     0.563 OA 
HETATM   30  C   UNL     1      -7.892  19.280  72.588  1.00  0.00     5.238 A  
HETATM   31  H   UNL     1      -8.229  20.723  70.535  1.00  0.00     0.000 HD 
HETATM   32  C   UNL     1      -7.651  18.352  73.592  1.00  0.00     9.246 A  
HETATM   33  C   UNL     1      -7.316  17.611  70.928  1.00  0.00     4.328 A  
ENDBRANCH   8  26
TORSDOF 4
ENDMDL
