MODEL        1
REMARK 921   NORMALIZED FREE ENERGY PREDICTED BY IDOCK:   -6.25 KCAL/MOL
REMARK 922        TOTAL FREE ENERGY PREDICTED BY IDOCK:  -14.39 KCAL/MOL
REMARK 923 INTER-LIGAND FREE ENERGY PREDICTED BY IDOCK:  -11.73 KCAL/MOL
REMARK 924 INTRA-LIGAND FREE ENERGY PREDICTED BY IDOCK:   -2.66 KCAL/MOL
REMARK 927      BINDING AFFINITY PREDICTED BY RF-SCORE:    0.00 PKD
ROOT
HETATM    1  C   UNL     1      -7.621  15.358  67.486  1.00  0.00    -0.207 C  
HETATM    2  C   UNL     1      -8.786  15.768  68.374  1.00  0.00    -0.185 C  
ENDROOT
BRANCH   2   3
HETATM    3  N   UNL     1      -9.775  16.803  67.755  1.00  0.00    -0.244 N  
BRANCH   3   4
HETATM    4  C   UNL     1      -9.514  18.215  68.356  1.00  0.00    -0.318 C  
HETATM    5  C   UNL     1     -10.445  19.308  67.896  1.00  0.00    -0.514 C  
ENDBRANCH   3   4
BRANCH   3   6
HETATM    6  C   UNL     1     -11.230  16.467  68.161  1.00  0.00    -0.241 C  
BRANCH   6   7
HETATM    7  C   UNL     1     -11.576  15.742  69.458  1.00  0.00    -0.368 A  
HETATM    8  C   UNL     1     -12.467  13.716  70.525  1.00  0.00    -0.394 A  
HETATM    9  C   UNL     1     -11.503  16.299  70.746  1.00  0.00    -0.327 A  
HETATM   10  C   UNL     1     -12.024  14.406  69.390  1.00  0.00    -0.328 A  
HETATM   11  C   UNL     1     -11.887  15.595  71.889  1.00  0.00    -0.536 A  
HETATM   12 CL   UNL     1     -12.077  13.570  67.876  1.00  0.00    -0.358 Cl 
HETATM   13  C   UNL     1     -12.394  14.313  71.777  1.00  0.00    -0.362 A  
ENDBRANCH   6   7
ENDBRANCH   3   6
BRANCH   3  14
HETATM   14  C   UNL     1      -9.553  16.731  66.190  1.00  0.00    -0.274 C  
BRANCH  14  15
HETATM   15  C   UNL     1     -10.700  16.081  65.341  1.00  0.00    -0.383 C  
BRANCH  15  16
HETATM   16  N   UNL     1     -10.627  14.652  65.074  1.00  0.00    -0.418 N  
HETATM   17  H   UNL     1      -9.878  14.092  65.480  1.00  0.00     0.000 HD 
HETATM   18  C   UNL     1     -11.586  14.054  64.261  1.00  0.00    -0.329 C  
HETATM   19  O   UNL     1     -12.609  14.612  63.901  1.00  0.00    -0.834 OA 
BRANCH  18  20
HETATM   20  C   UNL     1     -11.322  12.563  63.935  1.00  0.00    -0.438 C  
HETATM   21  N   UNL     1     -10.046  12.095  64.253  1.00  0.00    -0.410 N  
HETATM   22  O   UNL     1     -12.194  11.866  63.443  1.00  0.00    -0.531 OA 
HETATM   23  H   UNL     1      -9.267  12.742  64.372  1.00  0.00     0.000 HD 
BRANCH  21  24
HETATM   24  C   UNL     1      -9.855  10.658  64.411  1.00  0.00    -0.334 C  
BRANCH  24  25
HETATM   25  C   UNL     1     -10.242  10.087  65.802  1.00  0.00    -0.200 C  
BRANCH  25  26
HETATM   26  N   UNL     1      -9.043   9.723  66.711  1.00  0.00    -0.144 N  
BRANCH  26  27
HETATM   27  C   UNL     1      -9.124   8.229  67.141  1.00  0.00    -0.139 C  
HETATM   28  C   UNL     1     -10.486   7.574  66.962  1.00  0.00    -0.409 C  
ENDBRANCH  26  27
BRANCH  26  29
HETATM   29  C   UNL     1      -7.741  10.015  65.915  1.00  0.00    -0.116 C  
HETATM   30  C   UNL     1      -6.741  10.922  66.611  1.00  0.00    -0.127 C  
ENDBRANCH  26  29
BRANCH  26  31
HETATM   31  C   UNL     1      -9.071  10.590  68.024  1.00  0.00    -0.138 C  
BRANCH  31  32
HETATM   32  C   UNL     1      -9.933  10.137  69.190  1.00  0.00    -0.221 A  
HETATM   33  C   UNL     1     -11.292  10.510  69.263  1.00  0.00    -0.325 A  
HETATM   34  C   UNL     1     -12.071  10.218  70.388  1.00  0.00    -0.373 A  
HETATM   35  C   UNL     1     -11.505   9.564  71.474  1.00  0.00    -0.466 A  
HETATM   36  C   UNL     1     -10.173   9.168  71.422  1.00  0.00    -0.402 A  
HETATM   37  C   UNL     1      -9.395   9.441  70.291  1.00  0.00    -0.252 A  
HETATM   38 CL   UNL     1      -7.753   8.910  70.333  1.00  0.00    -0.086 Cl 
ENDBRANCH  31  32
ENDBRANCH  26  31
ENDBRANCH  25  26
ENDBRANCH  24  25
ENDBRANCH  21  24
ENDBRANCH  18  20
ENDBRANCH  15  16
ENDBRANCH  14  15
ENDBRANCH   3  14
ENDBRANCH   2   3
TORSDOF 15
ENDMDL
MODEL        2
REMARK 921   NORMALIZED FREE ENERGY PREDICTED BY IDOCK:   -6.23 KCAL/MOL
REMARK 922        TOTAL FREE ENERGY PREDICTED BY IDOCK:  -14.35 KCAL/MOL
REMARK 923 INTER-LIGAND FREE ENERGY PREDICTED BY IDOCK:  -11.53 KCAL/MOL
REMARK 924 INTRA-LIGAND FREE ENERGY PREDICTED BY IDOCK:   -2.83 KCAL/MOL
REMARK 927      BINDING AFFINITY PREDICTED BY RF-SCORE:    0.00 PKD
ROOT
HETATM    1  C   UNL     1      -7.760  15.479  67.572  1.00  0.00    -0.195 C  
HETATM    2  C   UNL     1      -9.079  15.451  68.330  1.00  0.00    -0.187 C  
ENDROOT
BRANCH   2   3
HETATM    3  N   UNL     1     -10.195  16.391  67.778  1.00  0.00    -0.266 N  
BRANCH   3   4
HETATM    4  C   UNL     1     -10.329  17.649  68.685  1.00  0.00    -0.359 C  
HETATM    5  C   UNL     1     -10.055  18.972  68.016  1.00  0.00    -0.458 C  
ENDBRANCH   3   4
BRANCH   3   6
HETATM    6  C   UNL     1     -11.575  15.696  67.864  1.00  0.00    -0.190 C  
BRANCH   6   7
HETATM    7  C   UNL     1     -11.768  14.327  68.510  1.00  0.00    -0.376 A  
HETATM    8  C   UNL     1     -12.262  13.050  70.550  1.00  0.00    -0.392 A  
HETATM    9  C   UNL     1     -11.560  13.091  67.875  1.00  0.00    -0.385 A  
HETATM   10  C   UNL     1     -12.175  14.265  69.859  1.00  0.00    -0.352 A  
HETATM   11  C   UNL     1     -11.705  11.873  68.542  1.00  0.00    -0.388 A  
HETATM   12 CL   UNL     1     -12.551  15.710  70.735  1.00  0.00    -0.487 Cl 
HETATM   13  C   UNL     1     -12.031  11.852  69.886  1.00  0.00    -0.398 A  
ENDBRANCH   6   7
ENDBRANCH   3   6
BRANCH   3  14
HETATM   14  C   UNL     1      -9.780  16.726  66.288  1.00  0.00    -0.297 C  
BRANCH  14  15
HETATM   15  C   UNL     1     -10.733  16.211  65.154  1.00  0.00    -0.371 C  
BRANCH  15  16
HETATM   16  N   UNL     1     -10.592  14.830  64.718  1.00  0.00    -0.563 N  
HETATM   17  H   UNL     1      -9.667  14.408  64.641  1.00  0.00     0.000 HD 
HETATM   18  C   UNL     1     -11.728  14.088  64.407  1.00  0.00    -0.397 C  
HETATM   19  O   UNL     1     -12.864  14.455  64.656  1.00  0.00    -0.643 OA 
BRANCH  18  20
HETATM   20  C   UNL     1     -11.445  12.682  63.819  1.00  0.00    -0.470 C  
HETATM   21  N   UNL     1     -10.156  12.191  64.032  1.00  0.00    -0.448 N  
HETATM   22  O   UNL     1     -12.314  12.066  63.225  1.00  0.00    -0.543 OA 
HETATM   23  H   UNL     1      -9.385  12.822  64.252  1.00  0.00     0.000 HD 
BRANCH  21  24
HETATM   24  C   UNL     1      -9.937  10.753  63.932  1.00  0.00    -0.343 C  
BRANCH  24  25
HETATM   25  C   UNL     1      -8.503  10.275  64.286  1.00  0.00    -0.179 C  
BRANCH  25  26
HETATM   26  N   UNL     1      -8.329   9.764  65.737  1.00  0.00    -0.126 N  
BRANCH  26  27
HETATM   27  C   UNL     1      -7.697   8.341  65.738  1.00  0.00    -0.091 C  
HETATM   28  C   UNL     1      -7.821   7.574  64.429  1.00  0.00    -0.128 C  
ENDBRANCH  26  27
BRANCH  26  29
HETATM   29  C   UNL     1      -7.434  10.783  66.494  1.00  0.00    -0.139 C  
HETATM   30  C   UNL     1      -8.125  12.065  66.924  1.00  0.00    -0.127 C  
ENDBRANCH  26  29
BRANCH  26  31
HETATM   31  C   UNL     1      -9.730   9.654  66.447  1.00  0.00    -0.224 C  
BRANCH  31  32
HETATM   32  C   UNL     1     -10.023   8.445  67.320  1.00  0.00    -0.291 A  
HETATM   33  C   UNL     1     -10.634   7.298  66.771  1.00  0.00    -0.288 A  
HETATM   34  C   UNL     1     -11.034   6.227  67.577  1.00  0.00    -0.444 A  
HETATM   35  C   UNL     1     -10.850   6.284  68.952  1.00  0.00    -0.396 A  
HETATM   36  C   UNL     1     -10.232   7.395  69.517  1.00  0.00    -0.204 A  
HETATM   37  C   UNL     1      -9.814   8.460  68.713  1.00  0.00    -0.173 A  
HETATM   38 CL   UNL     1      -9.063   9.791  69.518  1.00  0.00    -0.209 Cl 
ENDBRANCH  31  32
ENDBRANCH  26  31
ENDBRANCH  25  26
ENDBRANCH  24  25
ENDBRANCH  21  24
ENDBRANCH  18  20
ENDBRANCH  15  16
ENDBRANCH  14  15
ENDBRANCH   3  14
ENDBRANCH   2   3
TORSDOF 15
ENDMDL
MODEL        3
REMARK 921   NORMALIZED FREE ENERGY PREDICTED BY IDOCK:   -6.06 KCAL/MOL
REMARK 922        TOTAL FREE ENERGY PREDICTED BY IDOCK:  -14.03 KCAL/MOL
REMARK 923 INTER-LIGAND FREE ENERGY PREDICTED BY IDOCK:  -11.38 KCAL/MOL
REMARK 924 INTRA-LIGAND FREE ENERGY PREDICTED BY IDOCK:   -2.64 KCAL/MOL
REMARK 927      BINDING AFFINITY PREDICTED BY RF-SCORE:    0.00 PKD
ROOT
HETATM    1  C   UNL     1     -11.929  15.503  69.679  1.00  0.00    -0.380 C  
HETATM    2  C   UNL     1     -11.367  15.745  68.286  1.00  0.00    -0.354 C  
ENDROOT
BRANCH   2   3
HETATM    3  N   UNL     1      -9.900  16.273  68.231  1.00  0.00    -0.223 N  
BRANCH   3   4
HETATM    4  C   UNL     1      -8.973  15.359  69.084  1.00  0.00    -0.245 C  
HETATM    5  C   UNL     1      -8.351  14.193  68.357  1.00  0.00    -0.161 C  
ENDBRANCH   3   4
BRANCH   3   6
HETATM    6  C   UNL     1      -9.803  17.664  68.900  1.00  0.00    -0.293 C  
BRANCH   6   7
HETATM    7  C   UNL     1      -8.841  18.745  68.416  1.00  0.00    -0.375 A  
HETATM    8  C   UNL     1      -8.468  20.681  66.948  1.00  0.00    -0.202 A  
HETATM    9  C   UNL     1      -7.487  18.849  68.775  1.00  0.00    -0.360 A  
HETATM   10  C   UNL     1      -9.319  19.727  67.522  1.00  0.00    -0.340 A  
HETATM   11  C   UNL     1      -6.648  19.835  68.253  1.00  0.00    -0.303 A  
HETATM   12 CL   UNL     1     -10.987  19.770  67.066  1.00  0.00    -0.474 Cl 
HETATM   13  C   UNL     1      -7.130  20.735  67.319  1.00  0.00    -0.417 A  
ENDBRANCH   6   7
ENDBRANCH   3   6
BRANCH   3  14
HETATM   14  C   UNL     1      -9.513  16.312  66.697  1.00  0.00    -0.248 C  
BRANCH  14  15
HETATM   15  C   UNL     1     -10.636  15.931  65.672  1.00  0.00    -0.378 C  
BRANCH  15  16
HETATM   16  N   UNL     1     -10.669  14.565  65.170  1.00  0.00    -0.378 N  
HETATM   17  H   UNL     1      -9.967  13.890  65.474  1.00  0.00     0.000 HD 
HETATM   18  C   UNL     1     -11.665  14.185  64.275  1.00  0.00    -0.345 C  
HETATM   19  O   UNL     1     -12.640  14.870  64.018  1.00  0.00    -0.832 OA 
BRANCH  18  20
HETATM   20  C   UNL     1     -11.511  12.753  63.703  1.00  0.00    -0.481 C  
HETATM   21  N   UNL     1     -10.209  12.252  63.679  1.00  0.00    -0.461 N  
HETATM   22  O   UNL     1     -12.483  12.126  63.318  1.00  0.00    -0.550 OA 
HETATM   23  H   UNL     1      -9.406  12.881  63.717  1.00  0.00     0.000 HD 
BRANCH  21  24
HETATM   24  C   UNL     1     -10.023  10.809  63.599  1.00  0.00    -0.345 C  
BRANCH  24  25
HETATM   25  C   UNL     1      -8.658  10.286  64.124  1.00  0.00    -0.192 C  
BRANCH  25  26
HETATM   26  N   UNL     1      -8.674   9.789  65.590  1.00  0.00    -0.142 N  
BRANCH  26  27
HETATM   27  C   UNL     1      -7.873   8.460  65.721  1.00  0.00    -0.101 C  
HETATM   28  C   UNL     1      -8.719   7.199  65.832  1.00  0.00    -0.146 C  
ENDBRANCH  26  27
BRANCH  26  29
HETATM   29  C   UNL     1      -8.064  10.909  66.477  1.00  0.00    -0.154 C  
HETATM   30  C   UNL     1      -7.062  10.443  67.518  1.00  0.00    -0.086 C  
ENDBRANCH  26  29
BRANCH  26  31
HETATM   31  C   UNL     1     -10.151   9.492  66.048  1.00  0.00    -0.249 C  
BRANCH  31  32
HETATM   32  C   UNL     1     -10.713  10.229  67.252  1.00  0.00    -0.323 A  
HETATM   33  C   UNL     1     -11.319  11.493  67.099  1.00  0.00    -0.354 A  
HETATM   34  C   UNL     1     -11.725  12.248  68.205  1.00  0.00    -0.408 A  
HETATM   35  C   UNL     1     -11.517  11.766  69.490  1.00  0.00    -0.363 A  
HETATM   36  C   UNL     1     -10.939  10.514  69.670  1.00  0.00    -0.333 A  
HETATM   37  C   UNL     1     -10.549   9.747  68.567  1.00  0.00    -0.221 A  
HETATM   38 CL   UNL     1      -9.837   8.210  68.903  1.00  0.00    -0.171 Cl 
ENDBRANCH  31  32
ENDBRANCH  26  31
ENDBRANCH  25  26
ENDBRANCH  24  25
ENDBRANCH  21  24
ENDBRANCH  18  20
ENDBRANCH  15  16
ENDBRANCH  14  15
ENDBRANCH   3  14
ENDBRANCH   2   3
TORSDOF 15
ENDMDL
MODEL        4
REMARK 921   NORMALIZED FREE ENERGY PREDICTED BY IDOCK:   -6.05 KCAL/MOL
REMARK 922        TOTAL FREE ENERGY PREDICTED BY IDOCK:  -14.02 KCAL/MOL
REMARK 923 INTER-LIGAND FREE ENERGY PREDICTED BY IDOCK:  -11.48 KCAL/MOL
REMARK 924 INTRA-LIGAND FREE ENERGY PREDICTED BY IDOCK:   -2.53 KCAL/MOL
REMARK 927      BINDING AFFINITY PREDICTED BY RF-SCORE:    0.00 PKD
ROOT
HETATM    1  C   UNL     1     -10.679   3.517  73.435  1.00  0.00    -0.303 C  
HETATM    2  C   UNL     1     -11.205   4.923  73.187  1.00  0.00    -0.326 C  
ENDROOT
BRANCH   2   3
HETATM    3  N   UNL     1     -10.378   5.787  72.185  1.00  0.00    -0.199 N  
BRANCH   3   4
HETATM    4  C   UNL     1      -8.896   5.312  72.169  1.00  0.00    -0.130 C  
HETATM    5  C   UNL     1      -7.884   6.304  72.685  1.00  0.00    -0.105 C  
ENDBRANCH   3   4
BRANCH   3   6
HETATM    6  C   UNL     1     -10.315   7.256  72.665  1.00  0.00    -0.225 C  
BRANCH   6   7
HETATM    7  C   UNL     1     -11.299   8.320  72.189  1.00  0.00    -0.419 A  
HETATM    8  C   UNL     1     -11.650  10.402  70.930  1.00  0.00    -0.428 A  
HETATM    9  C   UNL     1     -12.652   8.401  72.557  1.00  0.00    -0.311 A  
HETATM   10  C   UNL     1     -10.837   9.329  71.317  1.00  0.00    -0.347 A  
HETATM   11  C   UNL     1     -13.485   9.435  72.125  1.00  0.00    -0.543 A  
HETATM   12 CL   UNL     1      -9.215   9.300  70.714  1.00  0.00    -0.314 Cl 
HETATM   13  C   UNL     1     -12.979  10.450  71.333  1.00  0.00    -0.545 A  
ENDBRANCH   6   7
ENDBRANCH   3   6
BRANCH   3  14
HETATM   14  C   UNL     1     -11.104   5.639  70.787  1.00  0.00    -0.126 C  
BRANCH  14  15
HETATM   15  C   UNL     1     -10.189   5.580  69.515  1.00  0.00    -0.261 C  
BRANCH  15  16
HETATM   16  N   UNL     1      -9.923   6.823  68.806  1.00  0.00    -0.143 N  
HETATM   17  H   UNL     1      -9.266   7.502  69.191  1.00  0.00     0.000 HD 
HETATM   18  C   UNL     1     -10.569   7.080  67.601  1.00  0.00    -0.257 C  
HETATM   19  O   UNL     1     -11.212   6.245  66.987  1.00  0.00    -0.336 OA 
BRANCH  18  20
HETATM   20  C   UNL     1     -10.315   8.492  67.015  1.00  0.00    -0.309 C  
HETATM   21  N   UNL     1     -10.967   9.539  67.670  1.00  0.00    -0.471 N  
HETATM   22  O   UNL     1      -9.582   8.648  66.053  1.00  0.00    -0.236 OA 
HETATM   23  H   UNL     1     -11.784   9.363  68.255  1.00  0.00     0.000 HD 
BRANCH  21  24
HETATM   24  C   UNL     1     -10.450  10.891  67.497  1.00  0.00    -0.215 C  
BRANCH  24  25
HETATM   25  C   UNL     1     -11.357  11.847  66.674  1.00  0.00    -0.337 C  
BRANCH  25  26
HETATM   26  N   UNL     1     -10.839  13.302  66.568  1.00  0.00    -0.280 N  
BRANCH  26  27
HETATM   27  C   UNL     1      -9.510  13.462  67.363  1.00  0.00    -0.222 C  
HETATM   28  C   UNL     1      -8.569  14.541  66.845  1.00  0.00    -0.207 C  
ENDBRANCH  26  27
BRANCH  26  29
HETATM   29  C   UNL     1     -10.641  13.625  65.062  1.00  0.00    -0.383 C  
HETATM   30  C   UNL     1     -10.478  12.420  64.152  1.00  0.00    -0.415 C  
ENDBRANCH  26  29
BRANCH  26  31
HETATM   31  C   UNL     1     -11.883  14.299  67.195  1.00  0.00    -0.425 C  
BRANCH  31  32
HETATM   32  C   UNL     1     -11.781  14.645  68.671  1.00  0.00    -0.362 A  
HETATM   33  C   UNL     1     -12.256  13.748  69.651  1.00  0.00    -0.359 A  
HETATM   34  C   UNL     1     -12.293  14.097  71.005  1.00  0.00    -0.438 A  
HETATM   35  C   UNL     1     -11.876  15.358  71.409  1.00  0.00    -0.443 A  
HETATM   36  C   UNL     1     -11.385  16.256  70.467  1.00  0.00    -0.318 A  
HETATM   37  C   UNL     1     -11.327  15.903  69.114  1.00  0.00    -0.366 A  
HETATM   38 CL   UNL     1     -10.705  17.093  68.028  1.00  0.00    -0.383 Cl 
ENDBRANCH  31  32
ENDBRANCH  26  31
ENDBRANCH  25  26
ENDBRANCH  24  25
ENDBRANCH  21  24
ENDBRANCH  18  20
ENDBRANCH  15  16
ENDBRANCH  14  15
ENDBRANCH   3  14
ENDBRANCH   2   3
TORSDOF 15
ENDMDL
MODEL        5
REMARK 921   NORMALIZED FREE ENERGY PREDICTED BY IDOCK:   -6.05 KCAL/MOL
REMARK 922        TOTAL FREE ENERGY PREDICTED BY IDOCK:  -14.01 KCAL/MOL
REMARK 923 INTER-LIGAND FREE ENERGY PREDICTED BY IDOCK:  -11.88 KCAL/MOL
REMARK 924 INTRA-LIGAND FREE ENERGY PREDICTED BY IDOCK:   -2.13 KCAL/MOL
REMARK 927      BINDING AFFINITY PREDICTED BY RF-SCORE:    0.00 PKD
ROOT
HETATM    1  C   UNL     1     -11.230  14.548  65.203  1.00  0.00    -0.367 C  
HETATM    2  C   UNL     1     -11.299  14.313  66.705  1.00  0.00    -0.348 C  
ENDROOT
BRANCH   2   3
HETATM    3  N   UNL     1     -10.288  15.132  67.565  1.00  0.00    -0.240 N  
BRANCH   3   4
HETATM    4  C   UNL     1     -11.056  16.095  68.517  1.00  0.00    -0.357 C  
HETATM    5  C   UNL     1     -10.836  15.873  69.992  1.00  0.00    -0.356 C  
ENDBRANCH   3   4
BRANCH   3   6
HETATM    6  C   UNL     1      -9.445  16.063  66.662  1.00  0.00    -0.237 C  
BRANCH   6   7
HETATM    7  C   UNL     1      -9.548  17.584  66.724  1.00  0.00    -0.286 A  
HETATM    8  C   UNL     1      -8.836  19.666  67.818  1.00  0.00    -0.379 A  
HETATM    9  C   UNL     1     -10.423  18.373  65.959  1.00  0.00    -0.400 A  
HETATM   10  C   UNL     1      -8.718  18.284  67.625  1.00  0.00    -0.256 A  
HETATM   11  C   UNL     1     -10.503  19.759  66.103  1.00  0.00    -0.613 A  
HETATM   12 CL   UNL     1      -7.531  17.446  68.565  1.00  0.00    -0.241 Cl 
HETATM   13  C   UNL     1      -9.729  20.404  67.051  1.00  0.00    -0.588 A  
ENDBRANCH   6   7
ENDBRANCH   3   6
BRANCH   3  14
HETATM   14  C   UNL     1      -9.402  14.064  68.325  1.00  0.00    -0.208 C  
BRANCH  14  15
HETATM   15  C   UNL     1      -9.889  12.575  68.276  1.00  0.00    -0.227 C  
BRANCH  15  16
HETATM   16  N   UNL     1     -10.568  12.040  69.448  1.00  0.00    -0.439 N  
HETATM   17  H   UNL     1     -10.181  12.192  70.379  1.00  0.00     0.000 HD 
HETATM   18  C   UNL     1     -11.749  11.320  69.290  1.00  0.00    -0.334 C  
HETATM   19  O   UNL     1     -12.370  11.262  68.242  1.00  0.00    -0.542 OA 
BRANCH  18  20
HETATM   20  C   UNL     1     -12.299  10.681  70.589  1.00  0.00    -0.369 C  
HETATM   21  N   UNL     1     -12.692   9.346  70.481  1.00  0.00    -0.475 N  
HETATM   22  O   UNL     1     -12.362  11.322  71.624  1.00  0.00    -0.189 OA 
HETATM   23  H   UNL     1     -12.911   8.937  69.573  1.00  0.00     0.000 HD 
BRANCH  21  24
HETATM   24  C   UNL     1     -12.782   8.550  71.699  1.00  0.00    -0.332 C  
BRANCH  24  25
HETATM   25  C   UNL     1     -12.395   7.054  71.543  1.00  0.00    -0.379 C  
BRANCH  25  26
HETATM   26  N   UNL     1     -11.050   6.660  72.201  1.00  0.00    -0.244 N  
BRANCH  26  27
HETATM   27  C   UNL     1     -10.568   7.784  73.164  1.00  0.00    -0.352 C  
HETATM   28  C   UNL     1      -9.089   7.742  73.524  1.00  0.00    -0.342 C  
ENDBRANCH  26  27
BRANCH  26  29
HETATM   29  C   UNL     1     -11.268   5.319  72.956  1.00  0.00    -0.324 C  
HETATM   30  C   UNL     1     -10.526   4.123  72.387  1.00  0.00    -0.172 C  
ENDBRANCH  26  29
BRANCH  26  31
HETATM   31  C   UNL     1      -9.939   6.477  71.101  1.00  0.00    -0.182 C  
BRANCH  31  32
HETATM   32  C   UNL     1     -10.204   6.980  69.692  1.00  0.00    -0.212 A  
HETATM   33  C   UNL     1     -10.877   6.165  68.757  1.00  0.00    -0.402 A  
HETATM   34  C   UNL     1     -11.017   6.551  67.419  1.00  0.00    -0.458 A  
HETATM   35  C   UNL     1     -10.471   7.750  66.980  1.00  0.00    -0.419 A  
HETATM   36  C   UNL     1      -9.819   8.581  67.885  1.00  0.00    -0.208 A  
HETATM   37  C   UNL     1      -9.694   8.208  69.228  1.00  0.00    -0.170 A  
HETATM   38 CL   UNL     1      -8.862   9.311  70.264  1.00  0.00    -0.227 Cl 
ENDBRANCH  31  32
ENDBRANCH  26  31
ENDBRANCH  25  26
ENDBRANCH  24  25
ENDBRANCH  21  24
ENDBRANCH  18  20
ENDBRANCH  15  16
ENDBRANCH  14  15
ENDBRANCH   3  14
ENDBRANCH   2   3
TORSDOF 15
ENDMDL
MODEL        6
REMARK 921   NORMALIZED FREE ENERGY PREDICTED BY IDOCK:   -5.97 KCAL/MOL
REMARK 922        TOTAL FREE ENERGY PREDICTED BY IDOCK:  -13.87 KCAL/MOL
REMARK 923 INTER-LIGAND FREE ENERGY PREDICTED BY IDOCK:  -10.89 KCAL/MOL
REMARK 924 INTRA-LIGAND FREE ENERGY PREDICTED BY IDOCK:   -2.98 KCAL/MOL
REMARK 927      BINDING AFFINITY PREDICTED BY RF-SCORE:    0.00 PKD
ROOT
HETATM    1  C   UNL     1      -9.938   8.088  72.727  1.00  0.00    -0.364 C  
HETATM    2  C   UNL     1      -9.767   9.069  71.576  1.00  0.00    -0.295 C  
ENDROOT
BRANCH   2   3
HETATM    3  N   UNL     1     -10.419   8.644  70.224  1.00  0.00    -0.205 N  
BRANCH   3   4
HETATM    4  C   UNL     1     -11.373   7.435  70.449  1.00  0.00    -0.249 C  
HETATM    5  C   UNL     1     -11.280   6.327  69.430  1.00  0.00    -0.489 C  
ENDBRANCH   3   4
BRANCH   3   6
HETATM    6  C   UNL     1      -9.339   8.116  69.249  1.00  0.00    -0.151 C  
BRANCH   6   7
HETATM    7  C   UNL     1      -8.563   9.031  68.307  1.00  0.00    -0.130 A  
HETATM    8  C   UNL     1      -8.311   9.931  66.034  1.00  0.00    -0.124 A  
HETATM    9  C   UNL     1      -7.387   9.727  68.634  1.00  0.00    -0.074 A  
HETATM   10  C   UNL     1      -9.031   9.200  66.987  1.00  0.00    -0.123 A  
HETATM   11  C   UNL     1      -6.696  10.507  67.705  1.00  0.00    -0.069 A  
HETATM   12 CL   UNL     1     -10.515   8.470  66.477  1.00  0.00    -0.249 Cl 
HETATM   13  C   UNL     1      -7.142  10.589  66.398  1.00  0.00    -0.128 A  
ENDBRANCH   6   7
ENDBRANCH   3   6
BRANCH   3  14
HETATM   14  C   UNL     1     -11.150   9.934  69.673  1.00  0.00    -0.241 C  
BRANCH  14  15
HETATM   15  C   UNL     1     -11.852  10.857  70.728  1.00  0.00    -0.319 C  
BRANCH  15  16
HETATM   16  N   UNL     1     -11.871  12.290  70.477  1.00  0.00    -0.517 N  
HETATM   17  H   UNL     1     -11.382  12.676  69.669  1.00  0.00     0.000 HD 
HETATM   18  C   UNL     1     -12.562  13.131  71.344  1.00  0.00    -0.256 C  
HETATM   19  O   UNL     1     -13.322  12.732  72.210  1.00  0.00    -0.532 OA 
BRANCH  18  20
HETATM   20  C   UNL     1     -12.391  14.644  71.056  1.00  0.00    -0.333 C  
HETATM   21  N   UNL     1     -11.159  15.017  70.516  1.00  0.00    -0.430 N  
HETATM   22  O   UNL     1     -13.294  15.431  71.285  1.00  0.00    -0.466 OA 
HETATM   23  H   UNL     1     -10.341  14.416  70.615  1.00  0.00     0.000 HD 
BRANCH  21  24
HETATM   24  C   UNL     1     -11.070  16.287  69.806  1.00  0.00    -0.337 C  
BRANCH  24  25
HETATM   25  C   UNL     1     -11.118  16.185  68.257  1.00  0.00    -0.348 C  
BRANCH  25  26
HETATM   26  N   UNL     1      -9.852  16.704  67.533  1.00  0.00    -0.249 N  
BRANCH  26  27
HETATM   27  C   UNL     1     -10.219  17.873  66.571  1.00  0.00    -0.379 C  
HETATM   28  C   UNL     1     -10.327  19.243  67.226  1.00  0.00    -0.538 C  
ENDBRANCH  26  27
BRANCH  26  29
HETATM   29  C   UNL     1      -8.839  17.160  68.619  1.00  0.00    -0.266 C  
HETATM   30  C   UNL     1      -7.374  17.023  68.243  1.00  0.00    -0.203 C  
ENDBRANCH  26  29
BRANCH  26  31
HETATM   31  C   UNL     1      -9.217  15.560  66.658  1.00  0.00    -0.271 C  
BRANCH  31  32
HETATM   32  C   UNL     1     -10.119  14.479  66.087  1.00  0.00    -0.319 A  
HETATM   33  C   UNL     1     -10.869  14.718  64.915  1.00  0.00    -0.433 A  
HETATM   34  C   UNL     1     -11.804  13.790  64.445  1.00  0.00    -0.458 A  
HETATM   35  C   UNL     1     -12.027  12.611  65.143  1.00  0.00    -0.474 A  
HETATM   36  C   UNL     1     -11.288  12.342  66.291  1.00  0.00    -0.395 A  
HETATM   37  C   UNL     1     -10.338  13.258  66.755  1.00  0.00    -0.257 A  
HETATM   38 CL   UNL     1      -9.481  12.826  68.191  1.00  0.00    -0.216 Cl 
ENDBRANCH  31  32
ENDBRANCH  26  31
ENDBRANCH  25  26
ENDBRANCH  24  25
ENDBRANCH  21  24
ENDBRANCH  18  20
ENDBRANCH  15  16
ENDBRANCH  14  15
ENDBRANCH   3  14
ENDBRANCH   2   3
TORSDOF 15
ENDMDL
MODEL        7
REMARK 921   NORMALIZED FREE ENERGY PREDICTED BY IDOCK:   -5.95 KCAL/MOL
REMARK 922        TOTAL FREE ENERGY PREDICTED BY IDOCK:  -13.84 KCAL/MOL
REMARK 923 INTER-LIGAND FREE ENERGY PREDICTED BY IDOCK:  -10.91 KCAL/MOL
REMARK 924 INTRA-LIGAND FREE ENERGY PREDICTED BY IDOCK:   -2.93 KCAL/MOL
REMARK 927      BINDING AFFINITY PREDICTED BY RF-SCORE:    0.00 PKD
ROOT
HETATM    1  C   UNL     1     -10.586  19.165  67.249  1.00  0.00    -0.573 C  
HETATM    2  C   UNL     1     -10.638  17.723  67.734  1.00  0.00    -0.386 C  
ENDROOT
BRANCH   2   3
HETATM    3  N   UNL     1      -9.271  16.972  67.768  1.00  0.00    -0.233 N  
BRANCH   3   4
HETATM    4  C   UNL     1      -8.106  17.976  67.528  1.00  0.00    -0.230 C  
HETATM    5  C   UNL     1      -7.121  17.593  66.452  1.00  0.00    -0.310 C  
ENDBRANCH   3   4
BRANCH   3   6
HETATM    6  C   UNL     1      -9.177  15.972  66.592  1.00  0.00    -0.249 C  
BRANCH   6   7
HETATM    7  C   UNL     1     -10.148  14.807  66.422  1.00  0.00    -0.291 A  
HETATM    8  C   UNL     1     -12.187  13.949  65.352  1.00  0.00    -0.463 A  
HETATM    9  C   UNL     1     -10.107  13.602  67.142  1.00  0.00    -0.245 A  
HETATM   10  C   UNL     1     -11.193  14.927  65.482  1.00  0.00    -0.348 A  
HETATM   11  C   UNL     1     -11.060  12.596  66.973  1.00  0.00    -0.322 A  
HETATM   12 CL   UNL     1     -11.310  16.323  64.465  1.00  0.00    -0.371 Cl 
HETATM   13  C   UNL     1     -12.116  12.779  66.098  1.00  0.00    -0.429 A  
ENDBRANCH   6   7
ENDBRANCH   3   6
BRANCH   3  14
HETATM   14  C   UNL     1      -9.208  16.255  69.177  1.00  0.00    -0.235 C  
BRANCH  14  15
HETATM   15  C   UNL     1     -10.548  16.161  69.986  1.00  0.00    -0.269 C  
BRANCH  15  16
HETATM   16  N   UNL     1     -10.980  14.848  70.443  1.00  0.00    -0.460 N  
HETATM   17  H   UNL     1     -10.332  14.060  70.426  1.00  0.00     0.000 HD 
HETATM   18  C   UNL     1     -12.281  14.674  70.904  1.00  0.00    -0.323 C  
HETATM   19  O   UNL     1     -13.045  15.596  71.134  1.00  0.00    -0.496 OA 
BRANCH  18  20
HETATM   20  C   UNL     1     -12.666  13.208  71.226  1.00  0.00    -0.306 C  
HETATM   21  N   UNL     1     -12.050  12.238  70.434  1.00  0.00    -0.434 N  
HETATM   22  O   UNL     1     -13.449  12.949  72.125  1.00  0.00    -0.523 OA 
HETATM   23  H   UNL     1     -11.653  12.479  69.526  1.00  0.00     0.000 HD 
BRANCH  21  24
HETATM   24  C   UNL     1     -11.987  10.871  70.937  1.00  0.00    -0.311 C  
BRANCH  24  25
HETATM   25  C   UNL     1     -11.499   9.810  69.913  1.00  0.00    -0.140 C  
BRANCH  25  26
HETATM   26  N   UNL     1     -10.767   8.596  70.535  1.00  0.00    -0.216 N  
BRANCH  26  27
HETATM   27  C   UNL     1     -10.215   8.961  71.944  1.00  0.00    -0.333 C  
HETATM   28  C   UNL     1      -8.964   8.204  72.368  1.00  0.00    -0.265 C  
ENDBRANCH  26  27
BRANCH  26  29
HETATM   29  C   UNL     1     -11.780   7.420  70.609  1.00  0.00    -0.242 C  
HETATM   30  C   UNL     1     -11.402   6.183  69.815  1.00  0.00    -0.452 C  
ENDBRANCH  26  29
BRANCH  26  31
HETATM   31  C   UNL     1      -9.538   8.185  69.642  1.00  0.00    -0.168 C  
BRANCH  31  32
HETATM   32  C   UNL     1      -9.252   8.968  68.372  1.00  0.00    -0.137 A  
HETATM   33  C   UNL     1      -9.934   8.663  67.175  1.00  0.00    -0.297 A  
HETATM   34  C   UNL     1      -9.596   9.279  65.964  1.00  0.00    -0.338 A  
HETATM   35  C   UNL     1      -8.557  10.198  65.918  1.00  0.00    -0.156 A  
HETATM   36  C   UNL     1      -7.881  10.532  67.087  1.00  0.00    -0.112 A  
HETATM   37  C   UNL     1      -8.228   9.933  68.303  1.00  0.00    -0.109 A  
HETATM   38 CL   UNL     1      -7.321  10.416  69.692  1.00  0.00    -0.142 Cl 
ENDBRANCH  31  32
ENDBRANCH  26  31
ENDBRANCH  25  26
ENDBRANCH  24  25
ENDBRANCH  21  24
ENDBRANCH  18  20
ENDBRANCH  15  16
ENDBRANCH  14  15
ENDBRANCH   3  14
ENDBRANCH   2   3
TORSDOF 15
ENDMDL
MODEL        8
REMARK 921   NORMALIZED FREE ENERGY PREDICTED BY IDOCK:   -5.94 KCAL/MOL
REMARK 922        TOTAL FREE ENERGY PREDICTED BY IDOCK:  -13.81 KCAL/MOL
REMARK 923 INTER-LIGAND FREE ENERGY PREDICTED BY IDOCK:  -11.52 KCAL/MOL
REMARK 924 INTRA-LIGAND FREE ENERGY PREDICTED BY IDOCK:   -2.29 KCAL/MOL
REMARK 927      BINDING AFFINITY PREDICTED BY RF-SCORE:    0.00 PKD
ROOT
HETATM    1  C   UNL     1     -11.055   5.020  73.099  1.00  0.00    -0.395 C  
HETATM    2  C   UNL     1     -10.393   4.886  71.735  1.00  0.00    -0.179 C  
ENDROOT
BRANCH   2   3
HETATM    3  N   UNL     1     -10.175   6.219  70.955  1.00  0.00    -0.188 N  
BRANCH   3   4
HETATM    4  C   UNL     1      -8.724   6.277  70.396  1.00  0.00    -0.146 C  
HETATM    5  C   UNL     1      -7.673   6.789  71.348  1.00  0.00    -0.093 C  
ENDBRANCH   3   4
BRANCH   3   6
HETATM    6  C   UNL     1     -10.274   7.427  71.916  1.00  0.00    -0.187 C  
BRANCH   6   7
HETATM    7  C   UNL     1     -11.320   8.526  71.753  1.00  0.00    -0.377 A  
HETATM    8  C   UNL     1     -11.858  10.763  70.890  1.00  0.00    -0.400 A  
HETATM    9  C   UNL     1     -12.606   8.515  72.318  1.00  0.00    -0.438 A  
HETATM   10  C   UNL     1     -10.993   9.666  70.989  1.00  0.00    -0.361 A  
HETATM   11  C   UNL     1     -13.497   9.580  72.173  1.00  0.00    -0.535 A  
HETATM   12 CL   UNL     1      -9.475   9.769  70.164  1.00  0.00    -0.290 Cl 
HETATM   13  C   UNL     1     -13.115  10.716  71.481  1.00  0.00    -0.527 A  
ENDBRANCH   6   7
ENDBRANCH   3   6
BRANCH   3  14
HETATM   14  C   UNL     1     -11.288   6.249  69.831  1.00  0.00    -0.434 C  
BRANCH  14  15
HETATM   15  C   UNL     1     -10.796   6.378  68.348  1.00  0.00    -0.311 C  
BRANCH  15  16
HETATM   16  N   UNL     1     -10.943   7.667  67.689  1.00  0.00    -0.521 N  
HETATM   17  H   UNL     1     -11.854   8.124  67.652  1.00  0.00     0.000 HD 
HETATM   18  C   UNL     1      -9.832   8.273  67.108  1.00  0.00    -0.217 C  
HETATM   19  O   UNL     1      -8.687   7.888  67.275  1.00  0.00    -0.129 OA 
BRANCH  18  20
HETATM   20  C   UNL     1     -10.139   9.567  66.314  1.00  0.00    -0.257 C  
HETATM   21  N   UNL     1     -10.718  10.601  67.051  1.00  0.00    -0.266 N  
HETATM   22  O   UNL     1      -9.872   9.652  65.127  1.00  0.00    -0.295 OA 
HETATM   23  H   UNL     1     -11.197  10.411  67.932  1.00  0.00     0.000 HD 
BRANCH  21  24
HETATM   24  C   UNL     1     -10.622  11.960  66.533  1.00  0.00    -0.243 C  
BRANCH  24  25
HETATM   25  C   UNL     1     -10.578  13.078  67.610  1.00  0.00    -0.224 C  
BRANCH  25  26
HETATM   26  N   UNL     1     -11.180  14.433  67.163  1.00  0.00    -0.316 N  
BRANCH  26  27
HETATM   27  C   UNL     1     -12.261  14.209  66.065  1.00  0.00    -0.443 C  
HETATM   28  C   UNL     1     -11.911  14.758  64.688  1.00  0.00    -0.442 C  
ENDBRANCH  26  27
BRANCH  26  29
HETATM   29  C   UNL     1     -11.783  15.120  68.420  1.00  0.00    -0.316 C  
HETATM   30  C   UNL     1     -11.746  14.295  69.694  1.00  0.00    -0.362 C  
ENDBRANCH  26  29
BRANCH  26  31
HETATM   31  C   UNL     1     -10.061  15.348  66.540  1.00  0.00    -0.271 C  
BRANCH  31  32
HETATM   32  C   UNL     1      -9.944  16.791  67.003  1.00  0.00    -0.269 A  
HETATM   33  C   UNL     1     -10.521  17.833  66.248  1.00  0.00    -0.307 A  
HETATM   34  C   UNL     1     -10.316  19.177  66.580  1.00  0.00    -0.515 A  
HETATM   35  C   UNL     1      -9.514  19.510  67.663  1.00  0.00    -0.416 A  
HETATM   36  C   UNL     1      -8.948  18.502  68.437  1.00  0.00    -0.346 A  
HETATM   37  C   UNL     1      -9.166  17.157  68.120  1.00  0.00    -0.261 A  
HETATM   38 CL   UNL     1      -8.414  15.986  69.142  1.00  0.00    -0.246 Cl 
ENDBRANCH  31  32
ENDBRANCH  26  31
ENDBRANCH  25  26
ENDBRANCH  24  25
ENDBRANCH  21  24
ENDBRANCH  18  20
ENDBRANCH  15  16
ENDBRANCH  14  15
ENDBRANCH   3  14
ENDBRANCH   2   3
TORSDOF 15
ENDMDL
MODEL        9
REMARK 921   NORMALIZED FREE ENERGY PREDICTED BY IDOCK:   -5.85 KCAL/MOL
REMARK 922        TOTAL FREE ENERGY PREDICTED BY IDOCK:  -13.63 KCAL/MOL
REMARK 923 INTER-LIGAND FREE ENERGY PREDICTED BY IDOCK:  -11.16 KCAL/MOL
REMARK 924 INTRA-LIGAND FREE ENERGY PREDICTED BY IDOCK:   -2.47 KCAL/MOL
REMARK 927      BINDING AFFINITY PREDICTED BY RF-SCORE:    0.00 PKD
ROOT
HETATM    1  C   UNL     1     -10.400  18.256  66.321  1.00  0.00    -0.422 C  
HETATM    2  C   UNL     1     -10.658  17.645  67.690  1.00  0.00    -0.362 C  
ENDROOT
BRANCH   2   3
HETATM    3  N   UNL     1     -10.313  16.130  67.829  1.00  0.00    -0.275 N  
BRANCH   3   4
HETATM    4  C   UNL     1      -9.236  15.730  66.779  1.00  0.00    -0.243 C  
HETATM    5  C   UNL     1      -7.817  15.673  67.283  1.00  0.00    -0.230 C  
ENDBRANCH   3   4
BRANCH   3   6
HETATM    6  C   UNL     1     -11.545  15.263  67.479  1.00  0.00    -0.214 C  
BRANCH   6   7
HETATM    7  C   UNL     1     -11.519  14.198  66.386  1.00  0.00    -0.362 A  
HETATM    8  C   UNL     1     -10.824  11.939  65.711  1.00  0.00    -0.341 A  
HETATM    9  C   UNL     1     -11.974  14.372  65.069  1.00  0.00    -0.413 A  
HETATM   10  C   UNL     1     -10.985  12.927  66.691  1.00  0.00    -0.276 A  
HETATM   11  C   UNL     1     -11.871  13.369  64.103  1.00  0.00    -0.492 A  
HETATM   12 CL   UNL     1     -10.470  12.549  68.299  1.00  0.00    -0.234 Cl 
HETATM   13  C   UNL     1     -11.273  12.162  64.415  1.00  0.00    -0.400 A  
ENDBRANCH   6   7
ENDBRANCH   3   6
BRANCH   3  14
HETATM   14  C   UNL     1      -9.841  15.930  69.326  1.00  0.00    -0.259 C  
BRANCH  14  15
HETATM   15  C   UNL     1     -10.955  15.951  70.430  1.00  0.00    -0.350 C  
BRANCH  15  16
HETATM   16  N   UNL     1     -11.402  14.677  70.974  1.00  0.00    -0.529 N  
HETATM   17  H   UNL     1     -10.732  13.927  71.140  1.00  0.00     0.000 HD 
HETATM   18  C   UNL     1     -12.750  14.489  71.267  1.00  0.00    -0.342 C  
HETATM   19  O   UNL     1     -13.571  15.391  71.278  1.00  0.00    -0.492 OA 
BRANCH  18  20
HETATM   20  C   UNL     1     -13.126  13.051  71.703  1.00  0.00    -0.347 C  
HETATM   21  N   UNL     1     -12.589  12.027  70.920  1.00  0.00    -0.311 N  
HETATM   22  O   UNL     1     -13.835  12.857  72.676  1.00  0.00    -0.596 OA 
HETATM   23  H   UNL     1     -12.266  12.210  69.970  1.00  0.00     0.000 HD 
BRANCH  21  24
HETATM   24  C   UNL     1     -12.503  10.689  71.493  1.00  0.00    -0.366 C  
BRANCH  24  25
HETATM   25  C   UNL     1     -12.160   9.558  70.486  1.00  0.00    -0.085 C  
BRANCH  25  26
HETATM   26  N   UNL     1     -11.867   8.182  71.132  1.00  0.00    -0.284 N  
BRANCH  26  27
HETATM   27  C   UNL     1     -11.529   8.353  72.643  1.00  0.00    -0.289 C  
HETATM   28  C   UNL     1     -10.177   7.801  73.073  1.00  0.00    -0.393 C  
ENDBRANCH  26  27
BRANCH  26  29
HETATM   29  C   UNL     1     -13.120   7.287  70.929  1.00  0.00    -0.013 C  
HETATM   30  C   UNL     1     -14.359   7.715  71.696  1.00  0.00    -0.613 C  
ENDBRANCH  26  29
BRANCH  26  31
HETATM   31  C   UNL     1     -10.617   7.514  70.446  1.00  0.00    -0.229 C  
BRANCH  31  32
HETATM   32  C   UNL     1     -10.084   8.101  69.150  1.00  0.00    -0.204 A  
HETATM   33  C   UNL     1     -10.603   7.680  67.907  1.00  0.00    -0.233 A  
HETATM   34  C   UNL     1     -10.040   8.105  66.699  1.00  0.00    -0.344 A  
HETATM   35  C   UNL     1      -8.935   8.946  66.704  1.00  0.00    -0.165 A  
HETATM   36  C   UNL     1      -8.416   9.392  67.915  1.00  0.00    -0.116 A  
HETATM   37  C   UNL     1      -8.987   8.984  69.125  1.00  0.00    -0.140 A  
HETATM   38 CL   UNL     1      -8.261   9.592  70.569  1.00  0.00    -0.203 Cl 
ENDBRANCH  31  32
ENDBRANCH  26  31
ENDBRANCH  25  26
ENDBRANCH  24  25
ENDBRANCH  21  24
ENDBRANCH  18  20
ENDBRANCH  15  16
ENDBRANCH  14  15
ENDBRANCH   3  14
ENDBRANCH   2   3
TORSDOF 15
ENDMDL
MODEL       10
REMARK 921   NORMALIZED FREE ENERGY PREDICTED BY IDOCK:   -5.85 KCAL/MOL
REMARK 922        TOTAL FREE ENERGY PREDICTED BY IDOCK:  -13.63 KCAL/MOL
REMARK 923 INTER-LIGAND FREE ENERGY PREDICTED BY IDOCK:  -11.11 KCAL/MOL
REMARK 924 INTRA-LIGAND FREE ENERGY PREDICTED BY IDOCK:   -2.52 KCAL/MOL
REMARK 927      BINDING AFFINITY PREDICTED BY RF-SCORE:    0.00 PKD
ROOT
HETATM    1  C   UNL     1     -11.070  15.755  64.671  1.00  0.00    -0.376 C  
HETATM    2  C   UNL     1     -10.435  14.412  64.998  1.00  0.00    -0.430 C  
ENDROOT
BRANCH   2   3
HETATM    3  N   UNL     1     -11.070  13.637  66.194  1.00  0.00    -0.294 N  
BRANCH   3   4
HETATM    4  C   UNL     1     -11.971  12.484  65.664  1.00  0.00    -0.433 C  
HETATM    5  C   UNL     1     -11.938  12.258  64.174  1.00  0.00    -0.518 C  
ENDBRANCH   3   4
BRANCH   3   6
HETATM    6  C   UNL     1     -12.033  14.557  66.981  1.00  0.00    -0.345 C  
BRANCH   6   7
HETATM    7  C   UNL     1     -11.938  14.748  68.492  1.00  0.00    -0.284 A  
HETATM    8  C   UNL     1     -11.110  16.113  70.360  1.00  0.00    -0.362 A  
HETATM    9  C   UNL     1     -12.396  13.836  69.457  1.00  0.00    -0.258 A  
HETATM   10  C   UNL     1     -11.334  15.921  68.991  1.00  0.00    -0.371 A  
HETATM   11  C   UNL     1     -12.230  14.049  70.827  1.00  0.00    -0.438 A  
HETATM   12 CL   UNL     1     -10.806  17.169  67.914  1.00  0.00    -0.344 Cl 
HETATM   13  C   UNL     1     -11.564  15.174  71.279  1.00  0.00    -0.406 A  
ENDBRANCH   6   7
ENDBRANCH   3   6
BRANCH   3  14
HETATM   14  C   UNL     1      -9.856  13.137  67.078  1.00  0.00    -0.244 C  
BRANCH  14  15
HETATM   15  C   UNL     1      -9.044  11.910  66.537  1.00  0.00    -0.211 C  
BRANCH  15  16
HETATM   16  N   UNL     1      -9.137  10.653  67.266  1.00  0.00    -0.143 N  
HETATM   17  H   UNL     1      -8.883  10.613  68.253  1.00  0.00     0.000 HD 
HETATM   18  C   UNL     1      -9.575   9.507  66.609  1.00  0.00    -0.188 C  
HETATM   19  O   UNL     1     -10.074   9.516  65.496  1.00  0.00    -0.260 OA 
BRANCH  18  20
HETATM   20  C   UNL     1      -9.494   8.207  67.447  1.00  0.00    -0.155 C  
HETATM   21  N   UNL     1     -10.678   7.830  68.084  1.00  0.00    -0.417 N  
HETATM   22  O   UNL     1      -8.457   7.570  67.517  1.00  0.00    -0.119 OA 
HETATM   23  H   UNL     1     -11.418   8.510  68.258  1.00  0.00     0.000 HD 
BRANCH  21  24
HETATM   24  C   UNL     1     -10.830   6.440  68.497  1.00  0.00    -0.314 C  
BRANCH  24  25
HETATM   25  C   UNL     1     -11.410   6.231  69.922  1.00  0.00    -0.434 C  
BRANCH  25  26
HETATM   26  N   UNL     1     -10.358   5.911  71.011  1.00  0.00    -0.214 N  
BRANCH  26  27
HETATM   27  C   UNL     1     -10.728   4.592  71.751  1.00  0.00     0.083 C  
HETATM   28  C   UNL     1     -11.156   4.760  73.203  1.00  0.00    -0.388 C  
ENDBRANCH  26  27
BRANCH  26  29
HETATM   29  C   UNL     1      -8.974   5.800  70.313  1.00  0.00    -0.141 C  
HETATM   30  C   UNL     1      -7.784   6.223  71.156  1.00  0.00    -0.102 C  
ENDBRANCH  26  29
BRANCH  26  31
HETATM   31  C   UNL     1     -10.321   7.058  72.088  1.00  0.00    -0.191 C  
BRANCH  31  32
HETATM   32  C   UNL     1     -11.200   8.283  71.893  1.00  0.00    -0.365 A  
HETATM   33  C   UNL     1     -12.541   8.278  72.330  1.00  0.00    -0.357 A  
HETATM   34  C   UNL     1     -13.406   9.340  72.045  1.00  0.00    -0.518 A  
HETATM   35  C   UNL     1     -12.957  10.422  71.301  1.00  0.00    -0.517 A  
HETATM   36  C   UNL     1     -11.634  10.462  70.874  1.00  0.00    -0.428 A  
HETATM   37  C   UNL     1     -10.760   9.411  71.173  1.00  0.00    -0.347 A  
HETATM   38 CL   UNL     1      -9.141   9.559  70.591  1.00  0.00    -0.285 Cl 
ENDBRANCH  31  32
ENDBRANCH  26  31
ENDBRANCH  25  26
ENDBRANCH  24  25
ENDBRANCH  21  24
ENDBRANCH  18  20
ENDBRANCH  15  16
ENDBRANCH  14  15
ENDBRANCH   3  14
ENDBRANCH   2   3
TORSDOF 15
ENDMDL
MODEL       11
REMARK 921   NORMALIZED FREE ENERGY PREDICTED BY IDOCK:   -5.77 KCAL/MOL
REMARK 922        TOTAL FREE ENERGY PREDICTED BY IDOCK:  -13.49 KCAL/MOL
REMARK 923 INTER-LIGAND FREE ENERGY PREDICTED BY IDOCK:  -11.38 KCAL/MOL
REMARK 924 INTRA-LIGAND FREE ENERGY PREDICTED BY IDOCK:   -2.11 KCAL/MOL
REMARK 927      BINDING AFFINITY PREDICTED BY RF-SCORE:    0.00 PKD
ROOT
HETATM    1  C   UNL     1     -10.491  19.679  66.022  1.00  0.00    -0.622 C  
HETATM    2  C   UNL     1     -10.207  19.083  67.393  1.00  0.00    -0.394 C  
ENDROOT
BRANCH   2   3
HETATM    3  N   UNL     1      -9.499  17.692  67.391  1.00  0.00    -0.253 N  
BRANCH   3   4
HETATM    4  C   UNL     1     -10.011  16.833  68.584  1.00  0.00    -0.276 C  
HETATM    5  C   UNL     1      -9.027  15.840  69.148  1.00  0.00    -0.256 C  
ENDBRANCH   3   4
BRANCH   3   6
HETATM    6  C   UNL     1      -7.984  17.860  67.650  1.00  0.00    -0.219 C  
BRANCH   6   7
HETATM    7  C   UNL     1      -7.173  19.018  67.076  1.00  0.00    -0.219 A  
HETATM    8  C   UNL     1      -5.960  21.111  67.505  1.00  0.00    -0.407 A  
HETATM    9  C   UNL     1      -6.935  19.246  65.710  1.00  0.00    -0.307 A  
HETATM   10  C   UNL     1      -6.617  19.962  67.964  1.00  0.00    -0.254 A  
HETATM   11  C   UNL     1      -6.227  20.357  65.249  1.00  0.00    -0.294 A  
HETATM   12 CL   UNL     1      -6.759  19.755  69.676  1.00  0.00    -0.382 Cl 
HETATM   13  C   UNL     1      -5.762  21.305  66.144  1.00  0.00    -0.295 A  
ENDBRANCH   6   7
ENDBRANCH   3   6
BRANCH   3  14
HETATM   14  C   UNL     1      -9.803  17.054  65.976  1.00  0.00    -0.241 C  
BRANCH  14  15
HETATM   15  C   UNL     1     -11.147  16.259  65.830  1.00  0.00     0.059 C  
BRANCH  15  16
HETATM   16  N   UNL     1     -11.070  14.826  65.586  1.00  0.00    -0.332 N  
HETATM   17  H   UNL     1     -10.487  14.236  66.179  1.00  0.00     0.000 HD 
HETATM   18  C   UNL     1     -11.796  14.267  64.539  1.00  0.00    -0.442 C  
HETATM   19  O   UNL     1     -12.654  14.868  63.915  1.00  0.00    -0.831 OA 
BRANCH  18  20
HETATM   20  C   UNL     1     -11.522  12.762  64.289  1.00  0.00    -0.373 C  
HETATM   21  N   UNL     1     -10.319  12.277  64.806  1.00  0.00    -0.283 N  
HETATM   22  O   UNL     1     -12.327  12.071  63.689  1.00  0.00    -0.519 OA 
HETATM   23  H   UNL     1      -9.551  12.911  65.026  1.00  0.00     0.000 HD 
BRANCH  21  24
HETATM   24  C   UNL     1     -10.188  10.842  65.024  1.00  0.00    -0.306 C  
BRANCH  24  25
HETATM   25  C   UNL     1      -9.084  10.423  66.033  1.00  0.00    -0.162 C  
BRANCH  25  26
HETATM   26  N   UNL     1      -9.574  10.235  67.489  1.00  0.00    -0.155 N  
BRANCH  26  27
HETATM   27  C   UNL     1      -9.339   8.767  67.953  1.00  0.00    -0.142 C  
HETATM   28  C   UNL     1     -10.030   7.701  67.114  1.00  0.00    -0.297 C  
ENDBRANCH  26  27
BRANCH  26  29
HETATM   29  C   UNL     1      -8.801  11.243  68.383  1.00  0.00    -0.159 C  
HETATM   30  C   UNL     1      -7.830  12.152  67.651  1.00  0.00    -0.153 C  
ENDBRANCH  26  29
BRANCH  26  31
HETATM   31  C   UNL     1     -11.120  10.514  67.584  1.00  0.00    -0.309 C  
BRANCH  31  32
HETATM   32  C   UNL     1     -11.623  11.561  68.564  1.00  0.00    -0.377 A  
HETATM   33  C   UNL     1     -11.763  12.906  68.164  1.00  0.00    -0.395 A  
HETATM   34  C   UNL     1     -12.097  13.910  69.080  1.00  0.00    -0.377 A  
HETATM   35  C   UNL     1     -12.279  13.595  70.420  1.00  0.00    -0.434 A  
HETATM   36  C   UNL     1     -12.166  12.274  70.838  1.00  0.00    -0.296 A  
HETATM   37  C   UNL     1     -11.851  11.264  69.922  1.00  0.00    -0.360 A  
HETATM   38 CL   UNL     1     -11.730   9.659  70.548  1.00  0.00    -0.319 Cl 
ENDBRANCH  31  32
ENDBRANCH  26  31
ENDBRANCH  25  26
ENDBRANCH  24  25
ENDBRANCH  21  24
ENDBRANCH  18  20
ENDBRANCH  15  16
ENDBRANCH  14  15
ENDBRANCH   3  14
ENDBRANCH   2   3
TORSDOF 15
ENDMDL
MODEL       12
REMARK 921   NORMALIZED FREE ENERGY PREDICTED BY IDOCK:   -5.76 KCAL/MOL
REMARK 922        TOTAL FREE ENERGY PREDICTED BY IDOCK:  -13.46 KCAL/MOL
REMARK 923 INTER-LIGAND FREE ENERGY PREDICTED BY IDOCK:  -11.44 KCAL/MOL
REMARK 924 INTRA-LIGAND FREE ENERGY PREDICTED BY IDOCK:   -2.03 KCAL/MOL
REMARK 927      BINDING AFFINITY PREDICTED BY RF-SCORE:    0.00 PKD
ROOT
HETATM    1  C   UNL     1      -9.251   7.724  73.544  1.00  0.00    -0.350 C  
HETATM    2  C   UNL     1     -10.749   7.571  73.323  1.00  0.00    -0.382 C  
ENDROOT
BRANCH   2   3
HETATM    3  N   UNL     1     -11.169   6.543  72.227  1.00  0.00    -0.261 N  
BRANCH   3   4
HETATM    4  C   UNL     1     -11.353   5.133  72.861  1.00  0.00    -0.282 C  
HETATM    5  C   UNL     1     -10.088   4.344  73.082  1.00  0.00    -0.202 C  
ENDBRANCH   3   4
BRANCH   3   6
HETATM    6  C   UNL     1     -10.032   6.364  71.194  1.00  0.00    -0.180 C  
BRANCH   6   7
HETATM    7  C   UNL     1     -10.203   6.699  69.715  1.00  0.00    -0.214 A  
HETATM    8  C   UNL     1     -10.032   8.392  67.941  1.00  0.00    -0.228 A  
HETATM    9  C   UNL     1     -10.749   5.843  68.744  1.00  0.00    -0.354 A  
HETATM   10  C   UNL     1      -9.802   7.972  69.258  1.00  0.00    -0.178 A  
HETATM   11  C   UNL     1     -10.925   6.234  67.416  1.00  0.00    -0.447 A  
HETATM   12 CL   UNL     1      -9.033   9.094  70.329  1.00  0.00    -0.217 Cl 
HETATM   13  C   UNL     1     -10.592   7.516  67.018  1.00  0.00    -0.409 A  
ENDBRANCH   6   7
ENDBRANCH   3   6
BRANCH   3  14
HETATM   14  C   UNL     1     -12.490   7.122  71.576  1.00  0.00    -0.381 C  
BRANCH  14  15
HETATM   15  C   UNL     1     -12.730   8.665  71.711  1.00  0.00    -0.359 C  
BRANCH  15  16
HETATM   16  N   UNL     1     -12.414   9.509  70.568  1.00  0.00    -0.487 N  
HETATM   17  H   UNL     1     -12.161   9.087  69.674  1.00  0.00     0.000 HD 
HETATM   18  C   UNL     1     -12.458  10.893  70.701  1.00  0.00    -0.369 C  
HETATM   19  O   UNL     1     -12.932  11.464  71.669  1.00  0.00    -0.448 OA 
BRANCH  18  20
HETATM   20  C   UNL     1     -11.964  11.681  69.462  1.00  0.00    -0.317 C  
HETATM   21  N   UNL     1     -11.500  12.973  69.718  1.00  0.00    -0.496 N  
HETATM   22  O   UNL     1     -11.980  11.177  68.352  1.00  0.00    -0.561 OA 
HETATM   23  H   UNL     1     -11.770  13.467  70.568  1.00  0.00     0.000 HD 
BRANCH  21  24
HETATM   24  C   UNL     1     -10.619  13.600  68.739  1.00  0.00    -0.231 C  
BRANCH  24  25
HETATM   25  C   UNL     1     -11.334  14.225  67.510  1.00  0.00    -0.326 C  
BRANCH  25  26
HETATM   26  N   UNL     1     -10.568  14.081  66.172  1.00  0.00    -0.286 N  
BRANCH  26  27
HETATM   27  C   UNL     1      -9.488  12.964  66.284  1.00  0.00    -0.200 C  
HETATM   28  C   UNL     1      -9.835  11.653  65.593  1.00  0.00    -0.270 C  
ENDBRANCH  26  27
BRANCH  26  29
HETATM   29  C   UNL     1     -11.607  13.755  65.064  1.00  0.00    -0.341 C  
HETATM   30  C   UNL     1     -12.113  14.949  64.275  1.00  0.00    -0.373 C  
ENDBRANCH  26  29
BRANCH  26  31
HETATM   31  C   UNL     1      -9.821  15.422  65.825  1.00  0.00    -0.364 C  
BRANCH  31  32
HETATM   32  C   UNL     1      -9.687  16.492  66.896  1.00  0.00    -0.259 A  
HETATM   33  C   UNL     1     -10.657  17.509  67.016  1.00  0.00    -0.245 A  
HETATM   34  C   UNL     1     -10.490  18.577  67.904  1.00  0.00    -0.419 A  
HETATM   35  C   UNL     1      -9.341  18.664  68.678  1.00  0.00    -0.375 A  
HETATM   36  C   UNL     1      -8.377  17.665  68.594  1.00  0.00    -0.267 A  
HETATM   37  C   UNL     1      -8.549  16.585  67.721  1.00  0.00    -0.177 A  
HETATM   38 CL   UNL     1      -7.290  15.403  67.692  1.00  0.00    -0.181 Cl 
ENDBRANCH  31  32
ENDBRANCH  26  31
ENDBRANCH  25  26
ENDBRANCH  24  25
ENDBRANCH  21  24
ENDBRANCH  18  20
ENDBRANCH  15  16
ENDBRANCH  14  15
ENDBRANCH   3  14
ENDBRANCH   2   3
TORSDOF 15
ENDMDL
MODEL       13
REMARK 921   NORMALIZED FREE ENERGY PREDICTED BY IDOCK:   -5.75 KCAL/MOL
REMARK 922        TOTAL FREE ENERGY PREDICTED BY IDOCK:  -13.45 KCAL/MOL
REMARK 923 INTER-LIGAND FREE ENERGY PREDICTED BY IDOCK:  -11.17 KCAL/MOL
REMARK 924 INTRA-LIGAND FREE ENERGY PREDICTED BY IDOCK:   -2.27 KCAL/MOL
REMARK 927      BINDING AFFINITY PREDICTED BY RF-SCORE:    0.00 PKD
ROOT
HETATM    1  C   UNL     1     -11.045   6.004  69.615  1.00  0.00    -0.474 C  
HETATM    2  C   UNL     1      -9.593   6.457  69.563  1.00  0.00    -0.144 C  
ENDROOT
BRANCH   2   3
HETATM    3  N   UNL     1      -9.354   7.896  69.008  1.00  0.00    -0.151 N  
BRANCH   3   4
HETATM    4  C   UNL     1      -7.934   7.994  68.378  1.00  0.00    -0.120 C  
HETATM    5  C   UNL     1      -7.220   6.684  68.162  1.00  0.00    -0.088 C  
ENDBRANCH   3   4
BRANCH   3   6
HETATM    6  C   UNL     1      -9.343   8.923  70.164  1.00  0.00    -0.180 C  
BRANCH   6   7
HETATM    7  C   UNL     1     -10.584   9.710  70.578  1.00  0.00    -0.369 A  
HETATM    8  C   UNL     1     -12.538   9.868  72.059  1.00  0.00    -0.410 A  
HETATM    9  C   UNL     1     -11.074  10.857  69.930  1.00  0.00    -0.311 A  
HETATM   10  C   UNL     1     -11.329   9.265  71.690  1.00  0.00    -0.397 A  
HETATM   11  C   UNL     1     -12.247  11.498  70.331  1.00  0.00    -0.442 A  
HETATM   12 CL   UNL     1     -10.789   7.918  72.632  1.00  0.00    -0.395 Cl 
HETATM   13  C   UNL     1     -12.994  10.990  71.378  1.00  0.00    -0.517 A  
ENDBRANCH   6   7
ENDBRANCH   3   6
BRANCH   3  14
HETATM   14  C   UNL     1     -10.524   8.160  67.976  1.00  0.00    -0.183 C  
BRANCH  14  15
HETATM   15  C   UNL     1     -10.126   8.800  66.601  1.00  0.00    -0.288 C  
BRANCH  15  16
HETATM   16  N   UNL     1     -10.404  10.214  66.398  1.00  0.00    -0.215 N  
HETATM   17  H   UNL     1     -10.635  10.810  67.193  1.00  0.00     0.000 HD 
HETATM   18  C   UNL     1     -10.352  10.748  65.114  1.00  0.00    -0.271 C  
HETATM   19  O   UNL     1      -9.901  10.151  64.151  1.00  0.00    -0.305 OA 
BRANCH  18  20
HETATM   20  C   UNL     1     -10.806  12.226  65.006  1.00  0.00    -0.298 C  
HETATM   21  N   UNL     1     -11.845  12.599  65.862  1.00  0.00    -0.429 N  
HETATM   22  O   UNL     1     -10.266  12.991  64.226  1.00  0.00    -0.389 OA 
HETATM   23  H   UNL     1     -12.464  11.898  66.269  1.00  0.00     0.000 HD 
BRANCH  21  24
HETATM   24  C   UNL     1     -12.023  14.015  66.158  1.00  0.00    -0.420 C  
BRANCH  24  25
HETATM   25  C   UNL     1     -11.870  14.403  67.654  1.00  0.00    -0.378 C  
BRANCH  25  26
HETATM   26  N   UNL     1     -10.584  15.197  67.990  1.00  0.00    -0.253 N  
BRANCH  26  27
HETATM   27  C   UNL     1     -10.901  16.338  69.001  1.00  0.00    -0.315 C  
HETATM   28  C   UNL     1     -11.071  15.895  70.448  1.00  0.00    -0.382 C  
ENDBRANCH  26  27
BRANCH  26  29
HETATM   29  C   UNL     1      -9.547  14.197  68.570  1.00  0.00    -0.214 C  
HETATM   30  C   UNL     1      -8.728  13.437  67.542  1.00  0.00    -0.205 C  
ENDBRANCH  26  29
BRANCH  26  31
HETATM   31  C   UNL     1     -10.006  15.871  66.691  1.00  0.00    -0.257 C  
BRANCH  31  32
HETATM   32  C   UNL     1      -9.662  17.351  66.716  1.00  0.00    -0.293 A  
HETATM   33  C   UNL     1     -10.535  18.299  66.141  1.00  0.00    -0.403 A  
HETATM   34  C   UNL     1     -10.182  19.648  66.035  1.00  0.00    -0.587 A  
HETATM   35  C   UNL     1      -8.940  20.079  66.482  1.00  0.00    -0.431 A  
HETATM   36  C   UNL     1      -8.067  19.170  67.070  1.00  0.00    -0.279 A  
HETATM   37  C   UNL     1      -8.424  17.823  67.196  1.00  0.00    -0.228 A  
HETATM   38 CL   UNL     1      -7.265  16.779  67.937  1.00  0.00    -0.152 Cl 
ENDBRANCH  31  32
ENDBRANCH  26  31
ENDBRANCH  25  26
ENDBRANCH  24  25
ENDBRANCH  21  24
ENDBRANCH  18  20
ENDBRANCH  15  16
ENDBRANCH  14  15
ENDBRANCH   3  14
ENDBRANCH   2   3
TORSDOF 15
ENDMDL
MODEL       14
REMARK 921   NORMALIZED FREE ENERGY PREDICTED BY IDOCK:   -5.72 KCAL/MOL
REMARK 922        TOTAL FREE ENERGY PREDICTED BY IDOCK:  -13.40 KCAL/MOL
REMARK 923 INTER-LIGAND FREE ENERGY PREDICTED BY IDOCK:  -10.49 KCAL/MOL
REMARK 924 INTRA-LIGAND FREE ENERGY PREDICTED BY IDOCK:   -2.91 KCAL/MOL
REMARK 927      BINDING AFFINITY PREDICTED BY RF-SCORE:    0.00 PKD
ROOT
HETATM    1  C   UNL     1     -10.226   5.818  73.240  1.00  0.00    -0.217 C  
HETATM    2  C   UNL     1     -10.762   5.487  71.855  1.00  0.00    -0.231 C  
ENDROOT
BRANCH   2   3
HETATM    3  N   UNL     1     -10.276   6.419  70.702  1.00  0.00    -0.187 N  
BRANCH   3   4
HETATM    4  C   UNL     1      -8.883   5.950  70.190  1.00  0.00    -0.142 C  
HETATM    5  C   UNL     1      -7.848   7.033  70.019  1.00  0.00    -0.113 C  
ENDBRANCH   3   4
BRANCH   3   6
HETATM    6  C   UNL     1     -10.038   7.852  71.232  1.00  0.00    -0.180 C  
BRANCH   6   7
HETATM    7  C   UNL     1     -11.127   8.921  71.235  1.00  0.00    -0.367 A  
HETATM    8  C   UNL     1     -11.861  11.133  70.454  1.00  0.00    -0.462 A  
HETATM    9  C   UNL     1     -12.302   8.884  72.004  1.00  0.00    -0.460 A  
HETATM   10  C   UNL     1     -10.961  10.059  70.418  1.00  0.00    -0.320 A  
HETATM   11  C   UNL     1     -13.233   9.924  71.998  1.00  0.00    -0.555 A  
HETATM   12 CL   UNL     1      -9.603  10.192  69.354  1.00  0.00    -0.237 Cl 
HETATM   13  C   UNL     1     -13.001  11.060  71.244  1.00  0.00    -0.472 A  
ENDBRANCH   6   7
ENDBRANCH   3   6
BRANCH   3  14
HETATM   14  C   UNL     1     -11.408   6.364  69.597  1.00  0.00    -0.412 C  
BRANCH  14  15
HETATM   15  C   UNL     1     -10.942   6.168  68.113  1.00  0.00    -0.307 C  
BRANCH  15  16
HETATM   16  N   UNL     1     -10.419   7.325  67.402  1.00  0.00    -0.258 N  
HETATM   17  H   UNL     1     -10.855   8.239  67.519  1.00  0.00     0.000 HD 
HETATM   18  C   UNL     1      -9.320   7.177  66.561  1.00  0.00    -0.164 C  
HETATM   19  O   UNL     1      -8.632   6.171  66.518  1.00  0.00    -0.119 OA 
BRANCH  18  20
HETATM   20  C   UNL     1      -8.946   8.444  65.752  1.00  0.00    -0.159 C  
HETATM   21  N   UNL     1      -9.817   9.525  65.892  1.00  0.00    -0.285 N  
HETATM   22  O   UNL     1      -7.945   8.469  65.056  1.00  0.00    -0.114 OA 
HETATM   23  H   UNL     1     -10.773   9.387  66.221  1.00  0.00     0.000 HD 
BRANCH  21  24
HETATM   24  C   UNL     1      -9.329  10.857  65.557  1.00  0.00    -0.206 C  
BRANCH  24  25
HETATM   25  C   UNL     1     -10.281  11.710  64.676  1.00  0.00    -0.281 C  
BRANCH  25  26
HETATM   26  N   UNL     1     -11.036  12.831  65.433  1.00  0.00    -0.279 N  
BRANCH  26  27
HETATM   27  C   UNL     1     -10.312  14.196  65.240  1.00  0.00    -0.388 C  
HETATM   28  C   UNL     1     -11.198  15.340  64.766  1.00  0.00    -0.405 C  
ENDBRANCH  26  27
BRANCH  26  29
HETATM   29  C   UNL     1     -12.489  12.876  64.885  1.00  0.00    -0.478 C  
HETATM   30  C   UNL     1     -12.738  12.058  63.630  1.00  0.00    -0.550 C  
ENDBRANCH  26  29
BRANCH  26  31
HETATM   31  C   UNL     1     -11.058  12.526  66.977  1.00  0.00    -0.281 C  
BRANCH  31  32
HETATM   32  C   UNL     1     -10.877  13.671  67.959  1.00  0.00    -0.261 A  
HETATM   33  C   UNL     1     -11.982  14.449  68.363  1.00  0.00    -0.328 A  
HETATM   34  C   UNL     1     -11.823  15.587  69.160  1.00  0.00    -0.373 A  
HETATM   35  C   UNL     1     -10.554  15.986  69.556  1.00  0.00    -0.290 A  
HETATM   36  C   UNL     1      -9.447  15.228  69.188  1.00  0.00    -0.236 A  
HETATM   37  C   UNL     1      -9.604  14.078  68.406  1.00  0.00    -0.222 A  
HETATM   38 CL   UNL     1      -8.165  13.213  68.002  1.00  0.00    -0.147 Cl 
ENDBRANCH  31  32
ENDBRANCH  26  31
ENDBRANCH  25  26
ENDBRANCH  24  25
ENDBRANCH  21  24
ENDBRANCH  18  20
ENDBRANCH  15  16
ENDBRANCH  14  15
ENDBRANCH   3  14
ENDBRANCH   2   3
TORSDOF 15
ENDMDL
MODEL       15
REMARK 921   NORMALIZED FREE ENERGY PREDICTED BY IDOCK:   -5.69 KCAL/MOL
REMARK 922        TOTAL FREE ENERGY PREDICTED BY IDOCK:  -13.34 KCAL/MOL
REMARK 923 INTER-LIGAND FREE ENERGY PREDICTED BY IDOCK:  -11.41 KCAL/MOL
REMARK 924 INTRA-LIGAND FREE ENERGY PREDICTED BY IDOCK:   -1.93 KCAL/MOL
REMARK 927      BINDING AFFINITY PREDICTED BY RF-SCORE:    0.00 PKD
ROOT
HETATM    1  C   UNL     1     -10.605   7.381  73.315  1.00  0.00    -0.442 C  
HETATM    2  C   UNL     1     -10.531   8.172  72.017  1.00  0.00    -0.263 C  
ENDROOT
BRANCH   2   3
HETATM    3  N   UNL     1     -11.875   8.322  71.240  1.00  0.00    -0.285 N  
BRANCH   3   4
HETATM    4  C   UNL     1     -13.076   8.127  72.210  1.00  0.00    -0.180 C  
HETATM    5  C   UNL     1     -14.303   7.483  71.615  1.00  0.00    -0.621 C  
ENDBRANCH   3   4
BRANCH   3   6
HETATM    6  C   UNL     1     -12.024   7.189  70.198  1.00  0.00     0.003 C  
BRANCH   6   7
HETATM    7  C   UNL     1     -10.854   6.310  69.764  1.00  0.00    -0.399 A  
HETATM    8  C   UNL     1      -9.098   5.871  68.102  1.00  0.00    -0.117 A  
HETATM    9  C   UNL     1     -10.447   5.125  70.399  1.00  0.00    -0.287 A  
HETATM   10  C   UNL     1     -10.110   6.686  68.625  1.00  0.00    -0.161 A  
HETATM   11  C   UNL     1      -9.398   4.340  69.917  1.00  0.00    -0.232 A  
HETATM   12 CL   UNL     1     -10.448   8.169  67.799  1.00  0.00    -0.291 Cl 
HETATM   13  C   UNL     1      -8.740   4.698  68.754  1.00  0.00    -0.113 A  
ENDBRANCH   6   7
ENDBRANCH   3   6
BRANCH   3  14
HETATM   14  C   UNL     1     -11.828   9.755  70.570  1.00  0.00    -0.240 C  
BRANCH  14  15
HETATM   15  C   UNL     1     -12.705  10.875  71.229  1.00  0.00    -0.437 C  
BRANCH  15  16
HETATM   16  N   UNL     1     -12.468  12.254  70.827  1.00  0.00    -0.322 N  
HETATM   17  H   UNL     1     -11.975  12.457  69.959  1.00  0.00     0.000 HD 
HETATM   18  C   UNL     1     -12.920  13.293  71.636  1.00  0.00    -0.349 C  
HETATM   19  O   UNL     1     -13.677  13.136  72.578  1.00  0.00    -0.610 OA 
BRANCH  18  20
HETATM   20  C   UNL     1     -12.484  14.708  71.179  1.00  0.00    -0.332 C  
HETATM   21  N   UNL     1     -11.117  14.870  70.950  1.00  0.00    -0.530 N  
HETATM   22  O   UNL     1     -13.305  15.597  71.027  1.00  0.00    -0.545 OA 
HETATM   23  H   UNL     1     -10.438  14.230  71.361  1.00  0.00     0.000 HD 
BRANCH  21  24
HETATM   24  C   UNL     1     -10.682  15.978  70.107  1.00  0.00    -0.312 C  
BRANCH  24  25
HETATM   25  C   UNL     1      -9.680  15.601  68.983  1.00  0.00    -0.241 C  
BRANCH  25  26
HETATM   26  N   UNL     1     -10.249  15.700  67.546  1.00  0.00    -0.258 N  
BRANCH  26  27
HETATM   27  C   UNL     1     -10.814  17.128  67.285  1.00  0.00    -0.118 C  
HETATM   28  C   UNL     1      -9.914  18.043  66.465  1.00  0.00    -0.371 C  
ENDBRANCH  26  27
BRANCH  26  29
HETATM   29  C   UNL     1      -9.102  15.355  66.557  1.00  0.00    -0.300 C  
HETATM   30  C   UNL     1      -7.844  14.786  67.191  1.00  0.00    -0.180 C  
ENDBRANCH  26  29
BRANCH  26  31
HETATM   31  C   UNL     1     -11.437  14.685  67.360  1.00  0.00    -0.369 C  
BRANCH  31  32
HETATM   32  C   UNL     1     -11.292  13.554  66.356  1.00  0.00    -0.335 A  
HETATM   33  C   UNL     1     -10.785  12.300  66.759  1.00  0.00    -0.272 A  
HETATM   34  C   UNL     1     -10.518  11.287  65.832  1.00  0.00    -0.314 A  
HETATM   35  C   UNL     1     -10.733  11.510  64.478  1.00  0.00    -0.390 A  
HETATM   36  C   UNL     1     -11.251  12.729  64.055  1.00  0.00    -0.463 A  
HETATM   37  C   UNL     1     -11.537  13.738  64.981  1.00  0.00    -0.341 A  
HETATM   38 CL   UNL     1     -12.172  15.215  64.348  1.00  0.00    -0.394 Cl 
ENDBRANCH  31  32
ENDBRANCH  26  31
ENDBRANCH  25  26
ENDBRANCH  24  25
ENDBRANCH  21  24
ENDBRANCH  18  20
ENDBRANCH  15  16
ENDBRANCH  14  15
ENDBRANCH   3  14
ENDBRANCH   2   3
TORSDOF 15
ENDMDL
MODEL       16
REMARK 921   NORMALIZED FREE ENERGY PREDICTED BY IDOCK:   -5.65 KCAL/MOL
REMARK 922        TOTAL FREE ENERGY PREDICTED BY IDOCK:  -13.27 KCAL/MOL
REMARK 923 INTER-LIGAND FREE ENERGY PREDICTED BY IDOCK:  -11.03 KCAL/MOL
REMARK 924 INTRA-LIGAND FREE ENERGY PREDICTED BY IDOCK:   -2.24 KCAL/MOL
REMARK 927      BINDING AFFINITY PREDICTED BY RF-SCORE:    0.00 PKD
ROOT
HETATM    1  C   UNL     1      -9.634   4.608  71.804  1.00  0.00    -0.216 C  
HETATM    2  C   UNL     1     -10.029   4.727  70.339  1.00  0.00    -0.245 C  
ENDROOT
BRANCH   2   3
HETATM    3  N   UNL     1      -9.921   6.157  69.725  1.00  0.00    -0.165 N  
BRANCH   3   4
HETATM    4  C   UNL     1      -8.545   6.330  69.017  1.00  0.00    -0.123 C  
HETATM    5  C   UNL     1      -7.673   7.443  69.542  1.00  0.00    -0.108 C  
ENDBRANCH   3   4
BRANCH   3   6
HETATM    6  C   UNL     1      -9.925   7.225  70.843  1.00  0.00    -0.185 C  
BRANCH   6   7
HETATM    7  C   UNL     1     -10.907   8.393  70.863  1.00  0.00    -0.267 A  
HETATM    8  C   UNL     1     -13.192   9.171  71.327  1.00  0.00    -0.296 A  
HETATM    9  C   UNL     1     -10.641   9.688  70.389  1.00  0.00    -0.354 A  
HETATM   10  C   UNL     1     -12.202   8.181  71.381  1.00  0.00    -0.297 A  
HETATM   11  C   UNL     1     -11.605  10.698  70.389  1.00  0.00    -0.441 A  
HETATM   12 CL   UNL     1     -12.636   6.657  72.077  1.00  0.00    -0.319 Cl 
HETATM   13  C   UNL     1     -12.888  10.434  70.833  1.00  0.00    -0.482 A  
ENDBRANCH   6   7
ENDBRANCH   3   6
BRANCH   3  14
HETATM   14  C   UNL     1     -11.157   6.301  68.748  1.00  0.00    -0.346 C  
BRANCH  14  15
HETATM   15  C   UNL     1     -10.851   6.754  67.278  1.00  0.00    -0.373 C  
BRANCH  15  16
HETATM   16  N   UNL     1     -10.883   8.179  66.982  1.00  0.00    -0.420 N  
HETATM   17  H   UNL     1     -11.665   8.752  67.298  1.00  0.00     0.000 HD 
HETATM   18  C   UNL     1      -9.838   8.756  66.266  1.00  0.00    -0.272 C  
HETATM   19  O   UNL     1      -8.788   8.185  66.025  1.00  0.00    -0.157 OA 
BRANCH  18  20
HETATM   20  C   UNL     1     -10.052  10.243  65.889  1.00  0.00    -0.251 C  
HETATM   21  N   UNL     1      -9.907  11.155  66.936  1.00  0.00    -0.191 N  
HETATM   22  O   UNL     1     -10.317  10.567  64.743  1.00  0.00    -0.339 OA 
HETATM   23  H   UNL     1      -9.986  10.853  67.907  1.00  0.00     0.000 HD 
BRANCH  21  24
HETATM   24  C   UNL     1      -9.639  12.550  66.608  1.00  0.00    -0.239 C  
BRANCH  24  25
HETATM   25  C   UNL     1     -10.131  13.584  67.657  1.00  0.00    -0.229 C  
BRANCH  25  26
HETATM   26  N   UNL     1     -10.928  14.774  67.071  1.00  0.00    -0.316 N  
BRANCH  26  27
HETATM   27  C   UNL     1     -11.942  14.272  66.001  1.00  0.00    -0.400 C  
HETATM   28  C   UNL     1     -11.728  14.820  64.596  1.00  0.00    -0.426 C  
ENDBRANCH  26  27
BRANCH  26  29
HETATM   29  C   UNL     1     -11.652  15.484  68.249  1.00  0.00    -0.334 C  
HETATM   30  C   UNL     1     -11.569  14.774  69.588  1.00  0.00    -0.342 C  
ENDBRANCH  26  29
BRANCH  26  31
HETATM   31  C   UNL     1      -9.955  15.784  66.357  1.00  0.00    -0.277 C  
BRANCH  31  32
HETATM   32  C   UNL     1      -9.922  17.231  66.819  1.00  0.00    -0.301 A  
HETATM   33  C   UNL     1     -10.563  18.237  66.066  1.00  0.00    -0.318 A  
HETATM   34  C   UNL     1     -10.436  19.590  66.398  1.00  0.00    -0.597 A  
HETATM   35  C   UNL     1      -9.652  19.971  67.478  1.00  0.00    -0.523 A  
HETATM   36  C   UNL     1      -9.024  18.999  68.250  1.00  0.00    -0.372 A  
HETATM   37  C   UNL     1      -9.163  17.643  67.933  1.00  0.00    -0.267 A  
HETATM   38 CL   UNL     1      -8.339  16.520  68.953  1.00  0.00    -0.244 Cl 
ENDBRANCH  31  32
ENDBRANCH  26  31
ENDBRANCH  25  26
ENDBRANCH  24  25
ENDBRANCH  21  24
ENDBRANCH  18  20
ENDBRANCH  15  16
ENDBRANCH  14  15
ENDBRANCH   3  14
ENDBRANCH   2   3
TORSDOF 15
ENDMDL
MODEL       17
REMARK 921   NORMALIZED FREE ENERGY PREDICTED BY IDOCK:   -5.65 KCAL/MOL
REMARK 922        TOTAL FREE ENERGY PREDICTED BY IDOCK:  -13.26 KCAL/MOL
REMARK 923 INTER-LIGAND FREE ENERGY PREDICTED BY IDOCK:  -11.16 KCAL/MOL
REMARK 924 INTRA-LIGAND FREE ENERGY PREDICTED BY IDOCK:   -2.10 KCAL/MOL
REMARK 927      BINDING AFFINITY PREDICTED BY RF-SCORE:    0.00 PKD
ROOT
HETATM    1  C   UNL     1      -8.958  11.484  66.746  1.00  0.00    -0.181 C  
HETATM    2  C   UNL     1      -9.851  12.391  65.911  1.00  0.00    -0.252 C  
ENDROOT
BRANCH   2   3
HETATM    3  N   UNL     1     -10.640  13.477  66.705  1.00  0.00    -0.278 N  
BRANCH   3   4
HETATM    4  C   UNL     1     -12.129  13.491  66.250  1.00  0.00    -0.428 C  
HETATM    5  C   UNL     1     -12.450  12.668  65.029  1.00  0.00    -0.556 C  
ENDBRANCH   3   4
BRANCH   3   6
HETATM    6  C   UNL     1     -10.110  14.888  66.358  1.00  0.00    -0.284 C  
BRANCH   6   7
HETATM    7  C   UNL     1      -8.978  15.556  67.132  1.00  0.00    -0.232 A  
HETATM    8  C   UNL     1      -8.267  17.422  68.564  1.00  0.00    -0.268 A  
HETATM    9  C   UNL     1      -7.635  15.146  67.125  1.00  0.00    -0.204 A  
HETATM   10  C   UNL     1      -9.271  16.690  67.918  1.00  0.00    -0.219 A  
HETATM   11  C   UNL     1      -6.637  15.836  67.816  1.00  0.00    -0.181 A  
HETATM   12 CL   UNL     1     -10.900  17.250  68.087  1.00  0.00    -0.353 Cl 
HETATM   13  C   UNL     1      -6.947  16.989  68.515  1.00  0.00    -0.197 A  
ENDBRANCH   6   7
ENDBRANCH   3   6
BRANCH   3  14
HETATM   14  C   UNL     1     -10.449  13.120  68.234  1.00  0.00    -0.250 C  
BRANCH  14  15
HETATM   15  C   UNL     1     -11.485  13.729  69.240  1.00  0.00    -0.293 C  
BRANCH  15  16
HETATM   16  N   UNL     1     -12.080  12.843  70.230  1.00  0.00    -0.420 N  
HETATM   17  H   UNL     1     -12.289  13.187  71.167  1.00  0.00     0.000 HD 
HETATM   18  C   UNL     1     -12.361  11.523  69.890  1.00  0.00    -0.180 C  
HETATM   19  O   UNL     1     -12.319  11.095  68.749  1.00  0.00    -0.539 OA 
BRANCH  18  20
HETATM   20  C   UNL     1     -12.856  10.641  71.064  1.00  0.00    -0.402 C  
HETATM   21  N   UNL     1     -12.926   9.272  70.798  1.00  0.00    -0.519 N  
HETATM   22  O   UNL     1     -13.146  11.136  72.140  1.00  0.00    -0.463 OA 
HETATM   23  H   UNL     1     -12.973   8.927  69.840  1.00  0.00     0.000 HD 
BRANCH  21  24
HETATM   24  C   UNL     1     -12.933   8.347  71.925  1.00  0.00    -0.355 C  
BRANCH  24  25
HETATM   25  C   UNL     1     -12.462   6.904  71.600  1.00  0.00    -0.375 C  
BRANCH  25  26
HETATM   26  N   UNL     1     -11.109   6.503  72.237  1.00  0.00    -0.251 N  
BRANCH  26  27
HETATM   27  C   UNL     1     -10.651   7.585  73.259  1.00  0.00    -0.384 C  
HETATM   28  C   UNL     1      -9.150   7.839  73.307  1.00  0.00    -0.303 C  
ENDBRANCH  26  27
BRANCH  26  29
HETATM   29  C   UNL     1     -11.299   5.121  72.922  1.00  0.00    -0.282 C  
HETATM   30  C   UNL     1     -10.186   4.117  72.682  1.00  0.00    -0.231 C  
ENDBRANCH  26  29
BRANCH  26  31
HETATM   31  C   UNL     1      -9.994   6.401  71.131  1.00  0.00    -0.180 C  
BRANCH  31  32
HETATM   32  C   UNL     1     -10.331   6.799  69.704  1.00  0.00    -0.223 A  
HETATM   33  C   UNL     1     -10.827   5.842  68.793  1.00  0.00    -0.353 A  
HETATM   34  C   UNL     1     -11.020   6.151  67.442  1.00  0.00    -0.409 A  
HETATM   35  C   UNL     1     -10.703   7.416  66.966  1.00  0.00    -0.389 A  
HETATM   36  C   UNL     1     -10.231   8.385  67.846  1.00  0.00    -0.273 A  
HETATM   37  C   UNL     1     -10.055   8.086  69.201  1.00  0.00    -0.201 A  
HETATM   38 CL   UNL     1      -9.460   9.359  70.205  1.00  0.00    -0.252 Cl 
ENDBRANCH  31  32
ENDBRANCH  26  31
ENDBRANCH  25  26
ENDBRANCH  24  25
ENDBRANCH  21  24
ENDBRANCH  18  20
ENDBRANCH  15  16
ENDBRANCH  14  15
ENDBRANCH   3  14
ENDBRANCH   2   3
TORSDOF 15
ENDMDL
MODEL       18
REMARK 921   NORMALIZED FREE ENERGY PREDICTED BY IDOCK:   -5.63 KCAL/MOL
REMARK 922        TOTAL FREE ENERGY PREDICTED BY IDOCK:  -13.23 KCAL/MOL
REMARK 923 INTER-LIGAND FREE ENERGY PREDICTED BY IDOCK:  -10.82 KCAL/MOL
REMARK 924 INTRA-LIGAND FREE ENERGY PREDICTED BY IDOCK:   -2.41 KCAL/MOL
REMARK 927      BINDING AFFINITY PREDICTED BY RF-SCORE:    0.00 PKD
ROOT
HETATM    1  C   UNL     1      -7.923   6.639  69.046  1.00  0.00    -0.112 C  
HETATM    2  C   UNL     1      -7.944   8.105  68.639  1.00  0.00    -0.115 C  
ENDROOT
BRANCH   2   3
HETATM    3  N   UNL     1      -9.201   8.913  69.087  1.00  0.00    -0.144 N  
BRANCH   3   4
HETATM    4  C   UNL     1      -8.863  10.431  69.152  1.00  0.00    -0.172 C  
HETATM    5  C   UNL     1      -7.462  10.810  68.744  1.00  0.00    -0.109 C  
ENDBRANCH   3   4
BRANCH   3   6
HETATM    6  C   UNL     1      -9.595   8.536  70.535  1.00  0.00    -0.170 C  
BRANCH   6   7
HETATM    7  C   UNL     1     -11.036   8.580  71.034  1.00  0.00    -0.306 A  
HETATM    8  C   UNL     1     -13.118   7.347  71.466  1.00  0.00    -0.424 A  
HETATM    9  C   UNL     1     -11.733   9.741  71.406  1.00  0.00    -0.475 A  
HETATM   10  C   UNL     1     -11.759   7.372  71.126  1.00  0.00    -0.294 A  
HETATM   11  C   UNL     1     -13.071   9.716  71.805  1.00  0.00    -0.514 A  
HETATM   12 CL   UNL     1     -10.996   5.858  70.782  1.00  0.00    -0.354 Cl 
HETATM   13  C   UNL     1     -13.772   8.524  71.810  1.00  0.00    -0.444 A  
ENDBRANCH   6   7
ENDBRANCH   3   6
BRANCH   3  14
HETATM   14  C   UNL     1     -10.336   8.561  68.042  1.00  0.00    -0.217 C  
BRANCH  14  15
HETATM   15  C   UNL     1     -10.043   8.895  66.538  1.00  0.00    -0.286 C  
BRANCH  15  16
HETATM   16  N   UNL     1     -10.348  10.236  66.063  1.00  0.00    -0.214 N  
HETATM   17  H   UNL     1     -10.756  10.924  66.696  1.00  0.00     0.000 HD 
HETATM   18  C   UNL     1     -10.081  10.575  64.740  1.00  0.00    -0.336 C  
HETATM   19  O   UNL     1      -9.425   9.879  63.984  1.00  0.00    -0.277 OA 
BRANCH  18  20
HETATM   20  C   UNL     1     -10.580  11.979  64.315  1.00  0.00    -0.334 C  
HETATM   21  N   UNL     1     -10.748  12.896  65.354  1.00  0.00    -0.280 N  
HETATM   22  O   UNL     1     -10.793  12.239  63.143  1.00  0.00    -0.377 OA 
HETATM   23  H   UNL     1     -10.857  12.581  66.318  1.00  0.00     0.000 HD 
BRANCH  21  24
HETATM   24  C   UNL     1     -10.765  14.317  65.028  1.00  0.00    -0.420 C  
BRANCH  24  25
HETATM   25  C   UNL     1      -9.727  15.184  65.791  1.00  0.00    -0.344 C  
BRANCH  25  26
HETATM   26  N   UNL     1     -10.062  15.434  67.282  1.00  0.00    -0.236 N  
BRANCH  26  27
HETATM   27  C   UNL     1      -9.153  14.561  68.196  1.00  0.00    -0.191 C  
HETATM   28  C   UNL     1      -8.340  15.329  69.229  1.00  0.00    -0.243 C  
ENDBRANCH  26  27
BRANCH  26  29
HETATM   29  C   UNL     1      -9.862  16.949  67.564  1.00  0.00    -0.260 C  
HETATM   30  C   UNL     1      -9.954  17.856  66.350  1.00  0.00    -0.358 C  
ENDBRANCH  26  29
BRANCH  26  31
HETATM   31  C   UNL     1     -11.554  15.030  67.580  1.00  0.00    -0.312 C  
BRANCH  31  32
HETATM   32  C   UNL     1     -11.970  14.748  69.014  1.00  0.00    -0.308 A  
HETATM   33  C   UNL     1     -12.127  15.806  69.935  1.00  0.00    -0.315 A  
HETATM   34  C   UNL     1     -12.380  15.565  71.289  1.00  0.00    -0.468 A  
HETATM   35  C   UNL     1     -12.463  14.262  71.760  1.00  0.00    -0.396 A  
HETATM   36  C   UNL     1     -12.331  13.200  70.871  1.00  0.00    -0.393 A  
HETATM   37  C   UNL     1     -12.097  13.436  69.512  1.00  0.00    -0.278 A  
HETATM   38 CL   UNL     1     -11.945  12.047  68.498  1.00  0.00    -0.348 Cl 
ENDBRANCH  31  32
ENDBRANCH  26  31
ENDBRANCH  25  26
ENDBRANCH  24  25
ENDBRANCH  21  24
ENDBRANCH  18  20
ENDBRANCH  15  16
ENDBRANCH  14  15
ENDBRANCH   3  14
ENDBRANCH   2   3
TORSDOF 15
ENDMDL
MODEL       19
REMARK 921   NORMALIZED FREE ENERGY PREDICTED BY IDOCK:   -5.62 KCAL/MOL
REMARK 922        TOTAL FREE ENERGY PREDICTED BY IDOCK:  -13.21 KCAL/MOL
REMARK 923 INTER-LIGAND FREE ENERGY PREDICTED BY IDOCK:  -11.10 KCAL/MOL
REMARK 924 INTRA-LIGAND FREE ENERGY PREDICTED BY IDOCK:   -2.11 KCAL/MOL
REMARK 927      BINDING AFFINITY PREDICTED BY RF-SCORE:    0.00 PKD
ROOT
HETATM    1  C   UNL     1     -12.390  15.323  70.408  1.00  0.00    -0.422 C  
HETATM    2  C   UNL     1     -11.962  14.575  69.154  1.00  0.00    -0.309 C  
ENDROOT
BRANCH   2   3
HETATM    3  N   UNL     1     -10.774  15.206  68.363  1.00  0.00    -0.242 N  
BRANCH   3   4
HETATM    4  C   UNL     1      -9.499  14.329  68.529  1.00  0.00    -0.206 C  
HETATM    5  C   UNL     1      -8.591  14.258  67.327  1.00  0.00    -0.229 C  
ENDBRANCH   3   4
BRANCH   3   6
HETATM    6  C   UNL     1     -10.390  16.575  68.971  1.00  0.00    -0.296 C  
BRANCH   6   7
HETATM    7  C   UNL     1      -9.999  17.776  68.114  1.00  0.00    -0.342 A  
HETATM    8  C   UNL     1      -8.228  19.321  67.398  1.00  0.00    -0.311 A  
HETATM    9  C   UNL     1     -10.887  18.559  67.357  1.00  0.00    -0.342 A  
HETATM   10  C   UNL     1      -8.644  18.164  68.069  1.00  0.00    -0.265 A  
HETATM   11  C   UNL     1     -10.468  19.678  66.635  1.00  0.00    -0.610 A  
HETATM   12 CL   UNL     1      -7.432  17.236  68.884  1.00  0.00    -0.254 Cl 
HETATM   13  C   UNL     1      -9.144  20.076  66.676  1.00  0.00    -0.463 A  
ENDBRANCH   6   7
ENDBRANCH   3   6
BRANCH   3  14
HETATM   14  C   UNL     1     -11.269  15.327  66.866  1.00  0.00    -0.256 C  
BRANCH  14  15
HETATM   15  C   UNL     1     -12.227  14.202  66.342  1.00  0.00    -0.446 C  
BRANCH  15  16
HETATM   16  N   UNL     1     -11.709  12.843  66.267  1.00  0.00    -0.379 N  
HETATM   17  H   UNL     1     -11.913  12.175  67.010  1.00  0.00     0.000 HD 
HETATM   18  C   UNL     1     -10.934  12.461  65.176  1.00  0.00    -0.302 C  
HETATM   19  O   UNL     1     -10.810  13.135  64.167  1.00  0.00    -0.388 OA 
BRANCH  18  20
HETATM   20  C   UNL     1     -10.323  11.042  65.278  1.00  0.00    -0.275 C  
HETATM   21  N   UNL     1     -10.089  10.581  66.575  1.00  0.00    -0.218 N  
HETATM   22  O   UNL     1     -10.083  10.390  64.276  1.00  0.00    -0.334 OA 
HETATM   23  H   UNL     1     -10.012  11.232  67.356  1.00  0.00     0.000 HD 
BRANCH  21  24
HETATM   24  C   UNL     1      -9.958   9.144  66.786  1.00  0.00    -0.254 C  
BRANCH  24  25
HETATM   25  C   UNL     1      -8.790   8.715  67.716  1.00  0.00    -0.136 C  
BRANCH  25  26
HETATM   26  N   UNL     1      -9.229   8.071  69.053  1.00  0.00    -0.148 N  
BRANCH  26  27
HETATM   27  C   UNL     1     -10.649   7.448  68.914  1.00  0.00    -0.176 C  
HETATM   28  C   UNL     1     -10.678   5.945  68.671  1.00  0.00    -0.339 C  
ENDBRANCH  26  27
BRANCH  26  29
HETATM   29  C   UNL     1      -8.172   6.997  69.431  1.00  0.00    -0.132 C  
HETATM   30  C   UNL     1      -7.404   7.260  70.713  1.00  0.00    -0.071 C  
ENDBRANCH  26  29
BRANCH  26  31
HETATM   31  C   UNL     1      -9.306   9.163  70.184  1.00  0.00    -0.209 C  
BRANCH  31  32
HETATM   32  C   UNL     1     -10.667   9.581  70.717  1.00  0.00    -0.391 A  
HETATM   33  C   UNL     1     -11.324  10.713  70.192  1.00  0.00    -0.402 A  
HETATM   34  C   UNL     1     -12.512  11.194  70.753  1.00  0.00    -0.479 A  
HETATM   35  C   UNL     1     -13.060  10.566  71.864  1.00  0.00    -0.567 A  
HETATM   36  C   UNL     1     -12.443   9.437  72.391  1.00  0.00    -0.254 A  
HETATM   37  C   UNL     1     -11.265   8.941  71.821  1.00  0.00    -0.362 A  
HETATM   38 CL   UNL     1     -10.579   7.536  72.556  1.00  0.00    -0.291 Cl 
ENDBRANCH  31  32
ENDBRANCH  26  31
ENDBRANCH  25  26
ENDBRANCH  24  25
ENDBRANCH  21  24
ENDBRANCH  18  20
ENDBRANCH  15  16
ENDBRANCH  14  15
ENDBRANCH   3  14
ENDBRANCH   2   3
TORSDOF 15
ENDMDL
MODEL       20
REMARK 921   NORMALIZED FREE ENERGY PREDICTED BY IDOCK:   -5.62 KCAL/MOL
REMARK 922        TOTAL FREE ENERGY PREDICTED BY IDOCK:  -13.21 KCAL/MOL
REMARK 923 INTER-LIGAND FREE ENERGY PREDICTED BY IDOCK:  -10.91 KCAL/MOL
REMARK 924 INTRA-LIGAND FREE ENERGY PREDICTED BY IDOCK:   -2.30 KCAL/MOL
REMARK 927      BINDING AFFINITY PREDICTED BY RF-SCORE:    0.00 PKD
ROOT
HETATM    1  C   UNL     1      -9.618   4.580  70.037  1.00  0.00    -0.267 C  
HETATM    2  C   UNL     1      -8.705   5.658  69.470  1.00  0.00    -0.109 C  
ENDROOT
BRANCH   2   3
HETATM    3  N   UNL     1      -9.298   7.100  69.444  1.00  0.00    -0.148 N  
BRANCH   3   4
HETATM    4  C   UNL     1      -8.223   8.110  68.946  1.00  0.00    -0.124 C  
HETATM    5  C   UNL     1      -7.307   8.669  70.005  1.00  0.00    -0.052 C  
ENDBRANCH   3   4
BRANCH   3   6
HETATM    6  C   UNL     1      -9.641   7.567  70.878  1.00  0.00    -0.165 C  
BRANCH   6   7
HETATM    7  C   UNL     1     -10.886   8.387  71.202  1.00  0.00    -0.286 A  
HETATM    8  C   UNL     1     -13.198   8.402  72.036  1.00  0.00    -0.372 A  
HETATM    9  C   UNL     1     -11.054   9.755  70.928  1.00  0.00    -0.428 A  
HETATM   10  C   UNL     1     -11.982   7.743  71.814  1.00  0.00    -0.296 A  
HETATM   11  C   UNL     1     -12.243  10.433  71.204  1.00  0.00    -0.498 A  
HETATM   12 CL   UNL     1     -11.878   6.081  72.286  1.00  0.00    -0.355 Cl 
HETATM   13  C   UNL     1     -13.324   9.753  71.733  1.00  0.00    -0.506 A  
ENDBRANCH   6   7
ENDBRANCH   3   6
BRANCH   3  14
HETATM   14  C   UNL     1     -10.575   7.025  68.513  1.00  0.00    -0.202 C  
BRANCH  14  15
HETATM   15  C   UNL     1     -10.618   8.003  67.288  1.00  0.00    -0.290 C  
BRANCH  15  16
HETATM   16  N   UNL     1     -11.209   9.319  67.484  1.00  0.00    -0.311 N  
HETATM   17  H   UNL     1     -11.991   9.439  68.127  1.00  0.00     0.000 HD 
HETATM   18  C   UNL     1     -10.699  10.412  66.789  1.00  0.00    -0.168 C  
HETATM   19  O   UNL     1      -9.656  10.385  66.159  1.00  0.00    -0.180 OA 
BRANCH  18  20
HETATM   20  C   UNL     1     -11.498  11.727  66.970  1.00  0.00    -0.298 C  
HETATM   21  N   UNL     1     -11.465  12.278  68.252  1.00  0.00    -0.291 N  
HETATM   22  O   UNL     1     -12.097  12.229  66.034  1.00  0.00    -0.623 OA 
HETATM   23  H   UNL     1     -11.225  11.706  69.062  1.00  0.00     0.000 HD 
BRANCH  21  24
HETATM   24  C   UNL     1     -11.783  13.693  68.406  1.00  0.00    -0.358 C  
BRANCH  24  25
HETATM   25  C   UNL     1     -10.630  14.573  68.962  1.00  0.00    -0.247 C  
BRANCH  25  26
HETATM   26  N   UNL     1      -9.722  15.210  67.883  1.00  0.00    -0.207 N  
BRANCH  26  27
HETATM   27  C   UNL     1      -8.738  14.149  67.307  1.00  0.00    -0.218 C  
HETATM   28  C   UNL     1      -7.940  13.373  68.346  1.00  0.00    -0.139 C  
ENDBRANCH  26  27
BRANCH  26  29
HETATM   29  C   UNL     1     -10.642  15.791  66.773  1.00  0.00    -0.309 C  
HETATM   30  C   UNL     1     -10.366  15.287  65.368  1.00  0.00    -0.421 C  
ENDBRANCH  26  29
BRANCH  26  31
HETATM   31  C   UNL     1      -8.854  16.362  68.512  1.00  0.00    -0.224 C  
BRANCH  31  32
HETATM   32  C   UNL     1      -9.055  17.788  68.028  1.00  0.00    -0.269 A  
HETATM   33  C   UNL     1      -9.971  18.642  68.678  1.00  0.00    -0.431 A  
HETATM   34  C   UNL     1     -10.271  19.912  68.174  1.00  0.00    -0.564 A  
HETATM   35  C   UNL     1      -9.678  20.351  66.998  1.00  0.00    -0.588 A  
HETATM   36  C   UNL     1      -8.756  19.538  66.347  1.00  0.00    -0.389 A  
HETATM   37  C   UNL     1      -8.439  18.275  66.858  1.00  0.00    -0.258 A  
HETATM   38 CL   UNL     1      -7.286  17.345  65.969  1.00  0.00    -0.322 Cl 
ENDBRANCH  31  32
ENDBRANCH  26  31
ENDBRANCH  25  26
ENDBRANCH  24  25
ENDBRANCH  21  24
ENDBRANCH  18  20
ENDBRANCH  15  16
ENDBRANCH  14  15
ENDBRANCH   3  14
ENDBRANCH   2   3
TORSDOF 15
ENDMDL
MODEL       21
REMARK 921   NORMALIZED FREE ENERGY PREDICTED BY IDOCK:   -5.61 KCAL/MOL
REMARK 922        TOTAL FREE ENERGY PREDICTED BY IDOCK:  -13.18 KCAL/MOL
REMARK 923 INTER-LIGAND FREE ENERGY PREDICTED BY IDOCK:  -11.48 KCAL/MOL
REMARK 924 INTRA-LIGAND FREE ENERGY PREDICTED BY IDOCK:   -1.71 KCAL/MOL
REMARK 927      BINDING AFFINITY PREDICTED BY RF-SCORE:    0.00 PKD
ROOT
HETATM    1  C   UNL     1     -10.638  17.776  66.544  1.00  0.00    -0.220 C  
HETATM    2  C   UNL     1     -10.533  16.280  66.288  1.00  0.00    -0.308 C  
ENDROOT
BRANCH   2   3
HETATM    3  N   UNL     1     -10.775  15.363  67.526  1.00  0.00    -0.288 N  
BRANCH   3   4
HETATM    4  C   UNL     1      -9.460  14.623  67.907  1.00  0.00    -0.210 C  
HETATM    5  C   UNL     1      -8.325  14.754  66.923  1.00  0.00    -0.184 C  
ENDBRANCH   3   4
BRANCH   3   6
HETATM    6  C   UNL     1     -11.773  14.235  67.174  1.00  0.00    -0.404 C  
BRANCH   6   7
HETATM    7  C   UNL     1     -11.707  13.457  65.863  1.00  0.00    -0.389 A  
HETATM    8  C   UNL     1     -10.835  11.501  64.657  1.00  0.00    -0.372 A  
HETATM    9  C   UNL     1     -12.253  13.876  64.639  1.00  0.00    -0.449 A  
HETATM   10  C   UNL     1     -11.035  12.216  65.845  1.00  0.00    -0.292 A  
HETATM   11  C   UNL     1     -12.110  13.138  63.463  1.00  0.00    -0.585 A  
HETATM   12 CL   UNL     1     -10.391  11.539  67.301  1.00  0.00    -0.228 Cl 
HETATM   13  C   UNL     1     -11.379  11.964  63.465  1.00  0.00    -0.516 A  
ENDBRANCH   6   7
ENDBRANCH   3   6
BRANCH   3  14
HETATM   14  C   UNL     1     -11.319  16.315  68.668  1.00  0.00    -0.333 C  
BRANCH  14  15
HETATM   15  C   UNL     1     -11.008  15.898  70.147  1.00  0.00    -0.364 C  
BRANCH  15  16
HETATM   16  N   UNL     1     -11.340  14.541  70.558  1.00  0.00    -0.478 N  
HETATM   17  H   UNL     1     -10.668  13.786  70.424  1.00  0.00     0.000 HD 
HETATM   18  C   UNL     1     -12.579  14.282  71.137  1.00  0.00    -0.362 C  
HETATM   19  O   UNL     1     -13.349  15.153  71.504  1.00  0.00    -0.376 OA 
BRANCH  18  20
HETATM   20  C   UNL     1     -12.872  12.784  71.400  1.00  0.00    -0.275 C  
HETATM   21  N   UNL     1     -12.208  11.886  70.562  1.00  0.00    -0.363 N  
HETATM   22  O   UNL     1     -13.628  12.441  72.294  1.00  0.00    -0.504 OA 
HETATM   23  H   UNL     1     -11.837  12.188  69.661  1.00  0.00     0.000 HD 
BRANCH  21  24
HETATM   24  C   UNL     1     -12.058  10.505  71.006  1.00  0.00    -0.387 C  
BRANCH  24  25
HETATM   25  C   UNL     1     -11.139   9.621  70.120  1.00  0.00    -0.269 C  
BRANCH  25  26
HETATM   26  N   UNL     1     -10.546   8.382  70.835  1.00  0.00    -0.200 N  
BRANCH  26  27
HETATM   27  C   UNL     1      -9.048   8.201  70.450  1.00  0.00    -0.150 C  
HETATM   28  C   UNL     1      -8.493   9.242  69.488  1.00  0.00    -0.144 C  
ENDBRANCH  26  27
BRANCH  26  29
HETATM   29  C   UNL     1     -10.717   8.592  72.365  1.00  0.00    -0.306 C  
HETATM   30  C   UNL     1     -11.002   7.335  73.167  1.00  0.00    -0.384 C  
ENDBRANCH  26  29
BRANCH  26  31
HETATM   31  C   UNL     1     -11.306   7.079  70.387  1.00  0.00    -0.310 C  
BRANCH  31  32
HETATM   32  C   UNL     1     -10.811   6.317  69.169  1.00  0.00    -0.403 A  
HETATM   33  C   UNL     1     -11.069   6.799  67.869  1.00  0.00    -0.262 A  
HETATM   34  C   UNL     1     -10.740   6.051  66.733  1.00  0.00    -0.374 A  
HETATM   35  C   UNL     1     -10.164   4.796  66.870  1.00  0.00    -0.230 A  
HETATM   36  C   UNL     1      -9.881   4.304  68.140  1.00  0.00    -0.107 A  
HETATM   37  C   UNL     1     -10.190   5.056  69.278  1.00  0.00    -0.174 A  
HETATM   38 CL   UNL     1      -9.801   4.349  70.805  1.00  0.00    -0.273 Cl 
ENDBRANCH  31  32
ENDBRANCH  26  31
ENDBRANCH  25  26
ENDBRANCH  24  25
ENDBRANCH  21  24
ENDBRANCH  18  20
ENDBRANCH  15  16
ENDBRANCH  14  15
ENDBRANCH   3  14
ENDBRANCH   2   3
TORSDOF 15
ENDMDL
MODEL       22
REMARK 921   NORMALIZED FREE ENERGY PREDICTED BY IDOCK:   -5.58 KCAL/MOL
REMARK 922        TOTAL FREE ENERGY PREDICTED BY IDOCK:  -13.14 KCAL/MOL
REMARK 923 INTER-LIGAND FREE ENERGY PREDICTED BY IDOCK:   -9.56 KCAL/MOL
REMARK 924 INTRA-LIGAND FREE ENERGY PREDICTED BY IDOCK:   -3.58 KCAL/MOL
REMARK 927      BINDING AFFINITY PREDICTED BY RF-SCORE:    0.00 PKD
ROOT
HETATM    1  C   UNL     1     -12.131  12.880  63.376  1.00  0.00    -0.610 C  
HETATM    2  C   UNL     1     -12.554  12.763  64.834  1.00  0.00    -0.470 C  
ENDROOT
BRANCH   2   3
HETATM    3  N   UNL     1     -11.434  13.032  65.886  1.00  0.00    -0.323 N  
BRANCH   3   4
HETATM    4  C   UNL     1     -10.263  13.820  65.228  1.00  0.00    -0.335 C  
HETATM    5  C   UNL     1     -10.279  15.313  65.435  1.00  0.00    -0.414 C  
ENDBRANCH   3   4
BRANCH   3   6
HETATM    6  C   UNL     1     -10.799  11.699  66.348  1.00  0.00    -0.287 C  
BRANCH   6   7
HETATM    7  C   UNL     1      -9.292  11.460  66.345  1.00  0.00    -0.219 A  
HETATM    8  C   UNL     1      -7.357  10.450  65.217  1.00  0.00    -0.108 A  
HETATM    9  C   UNL     1      -8.408  11.828  67.373  1.00  0.00    -0.159 A  
HETATM   10  C   UNL     1      -8.712  10.805  65.239  1.00  0.00    -0.173 A  
HETATM   11  C   UNL     1      -7.044  11.531  67.330  1.00  0.00    -0.128 A  
HETATM   12 CL   UNL     1      -9.671  10.375  63.865  1.00  0.00    -0.370 Cl 
HETATM   13  C   UNL     1      -6.522  10.819  66.265  1.00  0.00    -0.134 A  
ENDBRANCH   6   7
ENDBRANCH   3   6
BRANCH   3  14
HETATM   14  C   UNL     1     -12.133  13.811  67.072  1.00  0.00    -0.397 C  
BRANCH  14  15
HETATM   15  C   UNL     1     -11.454  13.715  68.482  1.00  0.00    -0.312 C  
BRANCH  15  16
HETATM   16  N   UNL     1     -11.666  12.504  69.261  1.00  0.00    -0.309 N  
HETATM   17  H   UNL     1     -11.277  11.616  68.945  1.00  0.00     0.000 HD 
HETATM   18  C   UNL     1     -12.402  12.566  70.441  1.00  0.00    -0.232 C  
HETATM   19  O   UNL     1     -12.731  13.610  70.979  1.00  0.00    -0.338 OA 
BRANCH  18  20
HETATM   20  C   UNL     1     -12.681  11.194  71.105  1.00  0.00    -0.408 C  
HETATM   21  N   UNL     1     -12.144  10.087  70.445  1.00  0.00    -0.418 N  
HETATM   22  O   UNL     1     -13.320  11.118  72.141  1.00  0.00    -0.452 OA 
HETATM   23  H   UNL     1     -11.888  10.140  69.459  1.00  0.00     0.000 HD 
BRANCH  21  24
HETATM   24  C   UNL     1     -11.959   8.853  71.199  1.00  0.00    -0.293 C  
BRANCH  24  25
HETATM   25  C   UNL     1     -10.659   8.784  72.046  1.00  0.00    -0.344 C  
BRANCH  25  26
HETATM   26  N   UNL     1      -9.464   8.092  71.346  1.00  0.00    -0.150 N  
BRANCH  26  27
HETATM   27  C   UNL     1      -8.292   7.887  72.351  1.00  0.00    -0.138 C  
HETATM   28  C   UNL     1      -8.645   8.112  73.815  1.00  0.00    -0.307 C  
ENDBRANCH  26  27
BRANCH  26  29
HETATM   29  C   UNL     1      -9.969   6.736  70.779  1.00  0.00    -0.187 C  
HETATM   30  C   UNL     1      -9.000   5.575  70.908  1.00  0.00    -0.153 C  
ENDBRANCH  26  29
BRANCH  26  31
HETATM   31  C   UNL     1      -8.924   8.992  70.174  1.00  0.00    -0.184 C  
BRANCH  31  32
HETATM   32  C   UNL     1      -8.989   8.467  68.749  1.00  0.00    -0.140 A  
HETATM   33  C   UNL     1     -10.199   8.508  68.025  1.00  0.00    -0.264 A  
HETATM   34  C   UNL     1     -10.317   7.913  66.764  1.00  0.00    -0.357 A  
HETATM   35  C   UNL     1      -9.235   7.247  66.206  1.00  0.00    -0.175 A  
HETATM   36  C   UNL     1      -8.024   7.207  66.890  1.00  0.00    -0.115 A  
HETATM   37  C   UNL     1      -7.895   7.817  68.142  1.00  0.00    -0.121 A  
HETATM   38 CL   UNL     1      -6.350   7.704  68.905  1.00  0.00    -0.035 Cl 
ENDBRANCH  31  32
ENDBRANCH  26  31
ENDBRANCH  25  26
ENDBRANCH  24  25
ENDBRANCH  21  24
ENDBRANCH  18  20
ENDBRANCH  15  16
ENDBRANCH  14  15
ENDBRANCH   3  14
ENDBRANCH   2   3
TORSDOF 15
ENDMDL
MODEL       23
REMARK 921   NORMALIZED FREE ENERGY PREDICTED BY IDOCK:   -5.58 KCAL/MOL
REMARK 922        TOTAL FREE ENERGY PREDICTED BY IDOCK:  -13.12 KCAL/MOL
REMARK 923 INTER-LIGAND FREE ENERGY PREDICTED BY IDOCK:  -10.56 KCAL/MOL
REMARK 924 INTRA-LIGAND FREE ENERGY PREDICTED BY IDOCK:   -2.56 KCAL/MOL
REMARK 927      BINDING AFFINITY PREDICTED BY RF-SCORE:    0.00 PKD
ROOT
HETATM    1  C   UNL     1     -10.248  17.007  66.285  1.00  0.00    -0.336 C  
HETATM    2  C   UNL     1     -10.875  16.589  67.607  1.00  0.00    -0.269 C  
ENDROOT
BRANCH   2   3
HETATM    3  N   UNL     1     -10.817  15.063  67.929  1.00  0.00    -0.272 N  
BRANCH   3   4
HETATM    4  C   UNL     1      -9.594  14.415  67.218  1.00  0.00    -0.227 C  
HETATM    5  C   UNL     1      -8.686  13.591  68.095  1.00  0.00    -0.174 C  
ENDBRANCH   3   4
BRANCH   3   6
HETATM    6  C   UNL     1     -12.047  14.340  67.333  1.00  0.00    -0.336 C  
BRANCH   6   7
HETATM    7  C   UNL     1     -12.002  13.604  65.997  1.00  0.00    -0.447 A  
HETATM    8  C   UNL     1     -11.513  11.516  64.797  1.00  0.00    -0.142 A  
HETATM    9  C   UNL     1     -12.239  14.185  64.740  1.00  0.00    -0.457 A  
HETATM   10  C   UNL     1     -11.685  12.230  65.990  1.00  0.00    -0.388 A  
HETATM   11  C   UNL     1     -12.129  13.463  63.549  1.00  0.00    -0.497 A  
HETATM   12 CL   UNL     1     -11.456  11.369  67.474  1.00  0.00    -0.351 Cl 
HETATM   13  C   UNL     1     -11.741  12.136  63.575  1.00  0.00    -0.579 A  
ENDBRANCH   6   7
ENDBRANCH   3   6
BRANCH   3  14
HETATM   14  C   UNL     1     -10.761  14.958  69.507  1.00  0.00    -0.244 C  
BRANCH  14  15
HETATM   15  C   UNL     1     -11.996  14.303  70.218  1.00  0.00    -0.329 C  
BRANCH  15  16
HETATM   16  N   UNL     1     -11.904  12.900  70.595  1.00  0.00    -0.502 N  
HETATM   17  H   UNL     1     -11.128  12.329  70.259  1.00  0.00     0.000 HD 
HETATM   18  C   UNL     1     -12.879  12.343  71.416  1.00  0.00    -0.260 C  
HETATM   19  O   UNL     1     -13.721  12.998  72.007  1.00  0.00    -0.452 OA 
BRANCH  18  20
HETATM   20  C   UNL     1     -12.753  10.813  71.629  1.00  0.00    -0.414 C  
HETATM   21  N   UNL     1     -11.646  10.213  71.026  1.00  0.00    -0.372 N  
HETATM   22  O   UNL     1     -13.574  10.204  72.293  1.00  0.00    -0.355 OA 
HETATM   23  H   UNL     1     -11.162  10.667  70.251  1.00  0.00     0.000 HD 
BRANCH  21  24
HETATM   24  C   UNL     1     -11.199   8.920  71.530  1.00  0.00    -0.326 C  
BRANCH  24  25
HETATM   25  C   UNL     1      -9.660   8.746  71.635  1.00  0.00    -0.293 C  
BRANCH  25  26
HETATM   26  N   UNL     1      -9.167   7.279  71.587  1.00  0.00    -0.146 N  
BRANCH  26  27
HETATM   27  C   UNL     1      -8.148   7.012  72.733  1.00  0.00    -0.107 C  
HETATM   28  C   UNL     1      -8.137   8.049  73.848  1.00  0.00    -0.288 C  
ENDBRANCH  26  27
BRANCH  26  29
HETATM   29  C   UNL     1     -10.413   6.358  71.708  1.00  0.00    -0.214 C  
HETATM   30  C   UNL     1     -10.169   4.890  71.407  1.00  0.00    -0.257 C  
ENDBRANCH  26  29
BRANCH  26  31
HETATM   31  C   UNL     1      -8.427   6.998  70.227  1.00  0.00    -0.138 C  
BRANCH  31  32
HETATM   32  C   UNL     1      -8.953   7.638  68.953  1.00  0.00    -0.137 A  
HETATM   33  C   UNL     1     -10.062   7.084  68.279  1.00  0.00    -0.185 A  
HETATM   34  C   UNL     1     -10.482   7.575  67.038  1.00  0.00    -0.409 A  
HETATM   35  C   UNL     1      -9.793   8.616  66.432  1.00  0.00    -0.341 A  
HETATM   36  C   UNL     1      -8.707   9.193  67.083  1.00  0.00    -0.130 A  
HETATM   37  C   UNL     1      -8.295   8.719  68.333  1.00  0.00    -0.126 A  
HETATM   38 CL   UNL     1      -6.934   9.503  69.050  1.00  0.00    -0.057 Cl 
ENDBRANCH  31  32
ENDBRANCH  26  31
ENDBRANCH  25  26
ENDBRANCH  24  25
ENDBRANCH  21  24
ENDBRANCH  18  20
ENDBRANCH  15  16
ENDBRANCH  14  15
ENDBRANCH   3  14
ENDBRANCH   2   3
TORSDOF 15
ENDMDL
MODEL       24
REMARK 921   NORMALIZED FREE ENERGY PREDICTED BY IDOCK:   -5.57 KCAL/MOL
REMARK 922        TOTAL FREE ENERGY PREDICTED BY IDOCK:  -13.12 KCAL/MOL
REMARK 923 INTER-LIGAND FREE ENERGY PREDICTED BY IDOCK:  -11.04 KCAL/MOL
REMARK 924 INTRA-LIGAND FREE ENERGY PREDICTED BY IDOCK:   -2.08 KCAL/MOL
REMARK 927      BINDING AFFINITY PREDICTED BY RF-SCORE:    0.00 PKD
ROOT
HETATM    1  C   UNL     1      -9.738   6.942  74.344  1.00  0.00    -0.264 C  
HETATM    2  C   UNL     1     -10.417   7.550  73.127  1.00  0.00    -0.364 C  
ENDROOT
BRANCH   2   3
HETATM    3  N   UNL     1     -10.998   6.532  72.097  1.00  0.00    -0.239 N  
BRANCH   3   4
HETATM    4  C   UNL     1     -11.209   5.148  72.778  1.00  0.00    -0.255 C  
HETATM    5  C   UNL     1     -10.317   4.035  72.289  1.00  0.00    -0.183 C  
ENDBRANCH   3   4
BRANCH   3   6
HETATM    6  C   UNL     1      -9.974   6.264  70.970  1.00  0.00    -0.182 C  
BRANCH   6   7
HETATM    7  C   UNL     1     -10.185   6.739  69.535  1.00  0.00    -0.202 A  
HETATM    8  C   UNL     1     -10.075   8.599  67.932  1.00  0.00    -0.254 A  
HETATM    9  C   UNL     1     -10.746   5.976  68.499  1.00  0.00    -0.354 A  
HETATM   10  C   UNL     1      -9.808   8.056  69.195  1.00  0.00    -0.178 A  
HETATM   11  C   UNL     1     -10.960   6.492  67.219  1.00  0.00    -0.475 A  
HETATM   12 CL   UNL     1      -9.023   9.076  70.352  1.00  0.00    -0.208 Cl 
HETATM   13  C   UNL     1     -10.649   7.811  66.941  1.00  0.00    -0.347 A  
ENDBRANCH   6   7
ENDBRANCH   3   6
BRANCH   3  14
HETATM   14  C   UNL     1     -12.336   7.181  71.555  1.00  0.00    -0.370 C  
BRANCH  14  15
HETATM   15  C   UNL     1     -12.533   8.716  71.809  1.00  0.00    -0.346 C  
BRANCH  15  16
HETATM   16  N   UNL     1     -12.518   9.606  70.658  1.00  0.00    -0.491 N  
HETATM   17  H   UNL     1     -12.484   9.223  69.713  1.00  0.00     0.000 HD 
HETATM   18  C   UNL     1     -12.553  10.984  70.853  1.00  0.00    -0.391 C  
HETATM   19  O   UNL     1     -12.788  11.508  71.929  1.00  0.00    -0.384 OA 
BRANCH  18  20
HETATM   20  C   UNL     1     -12.388  11.827  69.564  1.00  0.00    -0.058 C  
HETATM   21  N   UNL     1     -12.389  13.211  69.748  1.00  0.00    -0.170 N  
HETATM   22  O   UNL     1     -12.257  11.290  68.477  1.00  0.00    -0.588 OA 
HETATM   23  H   UNL     1     -12.792  13.627  70.587  1.00  0.00     0.000 HD 
BRANCH  21  24
HETATM   24  C   UNL     1     -11.800  14.048  68.709  1.00  0.00    -0.361 C  
BRANCH  24  25
HETATM   25  C   UNL     1     -10.260  14.230  68.800  1.00  0.00    -0.226 C  
BRANCH  25  26
HETATM   26  N   UNL     1      -9.697  15.409  67.971  1.00  0.00    -0.207 N  
BRANCH  26  27
HETATM   27  C   UNL     1     -10.794  16.493  67.754  1.00  0.00    -0.304 C  
HETATM   28  C   UNL     1     -10.296  17.931  67.751  1.00  0.00    -0.393 C  
ENDBRANCH  26  27
BRANCH  26  29
HETATM   29  C   UNL     1      -8.475  15.986  68.738  1.00  0.00    -0.228 C  
HETATM   30  C   UNL     1      -7.535  14.954  69.336  1.00  0.00    -0.174 C  
ENDBRANCH  26  29
BRANCH  26  31
HETATM   31  C   UNL     1      -9.245  14.909  66.548  1.00  0.00    -0.285 C  
BRANCH  31  32
HETATM   32  C   UNL     1     -10.219  14.102  65.706  1.00  0.00    -0.347 A  
HETATM   33  C   UNL     1     -11.281  14.740  65.031  1.00  0.00    -0.399 A  
HETATM   34  C   UNL     1     -12.265  14.007  64.359  1.00  0.00    -0.457 A  
HETATM   35  C   UNL     1     -12.221  12.619  64.361  1.00  0.00    -0.518 A  
HETATM   36  C   UNL     1     -11.174  11.965  65.002  1.00  0.00    -0.350 A  
HETATM   37  C   UNL     1     -10.178  12.694  65.659  1.00  0.00    -0.273 A  
HETATM   38 CL   UNL     1      -8.927  11.783  66.426  1.00  0.00    -0.209 Cl 
ENDBRANCH  31  32
ENDBRANCH  26  31
ENDBRANCH  25  26
ENDBRANCH  24  25
ENDBRANCH  21  24
ENDBRANCH  18  20
ENDBRANCH  15  16
ENDBRANCH  14  15
ENDBRANCH   3  14
ENDBRANCH   2   3
TORSDOF 15
ENDMDL
MODEL       25
REMARK 921   NORMALIZED FREE ENERGY PREDICTED BY IDOCK:   -5.57 KCAL/MOL
REMARK 922        TOTAL FREE ENERGY PREDICTED BY IDOCK:  -13.12 KCAL/MOL
REMARK 923 INTER-LIGAND FREE ENERGY PREDICTED BY IDOCK:  -11.40 KCAL/MOL
REMARK 924 INTRA-LIGAND FREE ENERGY PREDICTED BY IDOCK:   -1.72 KCAL/MOL
REMARK 927      BINDING AFFINITY PREDICTED BY RF-SCORE:    0.00 PKD
ROOT
HETATM    1  C   UNL     1     -10.074   9.516  66.204  1.00  0.00    -0.326 C  
HETATM    2  C   UNL     1      -9.167   9.398  67.421  1.00  0.00    -0.126 C  
ENDROOT
BRANCH   2   3
HETATM    3  N   UNL     1      -9.892   9.340  68.801  1.00  0.00    -0.161 N  
BRANCH   3   4
HETATM    4  C   UNL     1      -8.918   9.780  69.933  1.00  0.00    -0.229 C  
HETATM    5  C   UNL     1      -7.628  10.415  69.478  1.00  0.00    -0.158 C  
ENDBRANCH   3   4
BRANCH   3   6
HETATM    6  C   UNL     1     -10.268   7.881  69.151  1.00  0.00    -0.216 C  
BRANCH   6   7
HETATM    7  C   UNL     1     -10.448   7.399  70.587  1.00  0.00    -0.224 A  
HETATM    8  C   UNL     1     -10.747   5.495  72.112  1.00  0.00    -0.288 A  
HETATM    9  C   UNL     1     -10.612   8.229  71.710  1.00  0.00    -0.325 A  
HETATM   10  C   UNL     1     -10.472   6.011  70.839  1.00  0.00    -0.236 A  
HETATM   11  C   UNL     1     -10.825   7.720  72.992  1.00  0.00    -0.451 A  
HETATM   12 CL   UNL     1     -10.195   4.878  69.561  1.00  0.00    -0.292 Cl 
HETATM   13  C   UNL     1     -10.920   6.354  73.190  1.00  0.00    -0.249 A  
ENDBRANCH   6   7
ENDBRANCH   3   6
BRANCH   3  14
HETATM   14  C   UNL     1     -11.162  10.274  68.661  1.00  0.00    -0.208 C  
BRANCH  14  15
HETATM   15  C   UNL     1     -11.581  11.096  69.928  1.00  0.00    -0.337 C  
BRANCH  15  16
HETATM   16  N   UNL     1     -11.515  12.549  69.853  1.00  0.00    -0.515 N  
HETATM   17  H   UNL     1     -10.921  13.000  69.158  1.00  0.00     0.000 HD 
HETATM   18  C   UNL     1     -12.269  13.318  70.734  1.00  0.00    -0.308 C  
HETATM   19  O   UNL     1     -13.139  12.861  71.456  1.00  0.00    -0.374 OA 
BRANCH  18  20
HETATM   20  C   UNL     1     -12.006  14.843  70.653  1.00  0.00    -0.305 C  
HETATM   21  N   UNL     1     -10.750  15.211  70.169  1.00  0.00    -0.414 N  
HETATM   22  O   UNL     1     -12.863  15.644  70.987  1.00  0.00    -0.467 OA 
HETATM   23  H   UNL     1      -9.970  14.554  70.186  1.00  0.00     0.000 HD 
BRANCH  21  24
HETATM   24  C   UNL     1     -10.580  16.558  69.637  1.00  0.00    -0.302 C  
BRANCH  24  25
HETATM   25  C   UNL     1     -10.804  16.699  68.107  1.00  0.00    -0.348 C  
BRANCH  25  26
HETATM   26  N   UNL     1      -9.552  17.131  67.305  1.00  0.00    -0.241 N  
BRANCH  26  27
HETATM   27  C   UNL     1      -9.836  18.449  66.526  1.00  0.00    -0.359 C  
HETATM   28  C   UNL     1     -10.809  19.407  67.201  1.00  0.00    -0.561 C  
ENDBRANCH  26  27
BRANCH  26  29
HETATM   29  C   UNL     1      -8.383  17.309  68.313  1.00  0.00    -0.242 C  
HETATM   30  C   UNL     1      -7.165  16.439  68.059  1.00  0.00    -0.145 C  
ENDBRANCH  26  29
BRANCH  26  31
HETATM   31  C   UNL     1      -9.178  16.031  66.244  1.00  0.00    -0.333 C  
BRANCH  31  32
HETATM   32  C   UNL     1     -10.233  15.022  65.823  1.00  0.00    -0.361 A  
HETATM   33  C   UNL     1     -11.208  15.364  64.862  1.00  0.00    -0.410 A  
HETATM   34  C   UNL     1     -12.266  14.502  64.555  1.00  0.00    -0.483 A  
HETATM   35  C   UNL     1     -12.385  13.286  65.214  1.00  0.00    -0.525 A  
HETATM   36  C   UNL     1     -11.428  12.915  66.152  1.00  0.00    -0.393 A  
HETATM   37  C   UNL     1     -10.358  13.765  66.449  1.00  0.00    -0.290 A  
HETATM   38 CL   UNL     1      -9.229  13.209  67.632  1.00  0.00    -0.197 Cl 
ENDBRANCH  31  32
ENDBRANCH  26  31
ENDBRANCH  25  26
ENDBRANCH  24  25
ENDBRANCH  21  24
ENDBRANCH  18  20
ENDBRANCH  15  16
ENDBRANCH  14  15
ENDBRANCH   3  14
ENDBRANCH   2   3
TORSDOF 15
ENDMDL
MODEL       26
REMARK 921   NORMALIZED FREE ENERGY PREDICTED BY IDOCK:   -5.57 KCAL/MOL
REMARK 922        TOTAL FREE ENERGY PREDICTED BY IDOCK:  -13.11 KCAL/MOL
REMARK 923 INTER-LIGAND FREE ENERGY PREDICTED BY IDOCK:  -11.26 KCAL/MOL
REMARK 924 INTRA-LIGAND FREE ENERGY PREDICTED BY IDOCK:   -1.86 KCAL/MOL
REMARK 927      BINDING AFFINITY PREDICTED BY RF-SCORE:    0.00 PKD
ROOT
HETATM    1  C   UNL     1     -13.785   8.472  72.046  1.00  0.00    -0.446 C  
HETATM    2  C   UNL     1     -12.812   7.498  71.399  1.00  0.00    -0.342 C  
ENDROOT
BRANCH   2   3
HETATM    3  N   UNL     1     -11.302   7.753  71.697  1.00  0.00    -0.247 N  
BRANCH   3   4
HETATM    4  C   UNL     1     -10.419   6.919  70.724  1.00  0.00    -0.216 C  
HETATM    5  C   UNL     1     -11.144   6.269  69.573  1.00  0.00    -0.476 C  
ENDBRANCH   3   4
BRANCH   3   6
HETATM    6  C   UNL     1     -10.935   7.231  73.106  1.00  0.00    -0.340 C  
BRANCH   6   7
HETATM    7  C   UNL     1     -10.607   5.766  73.381  1.00  0.00    -0.283 A  
HETATM    8  C   UNL     1      -8.888   4.093  73.916  1.00  0.00    -0.092 A  
HETATM    9  C   UNL     1     -11.511   4.696  73.277  1.00  0.00    -0.346 A  
HETATM   10  C   UNL     1      -9.291   5.426  73.759  1.00  0.00    -0.136 A  
HETATM   11  C   UNL     1     -11.131   3.371  73.492  1.00  0.00    -0.317 A  
HETATM   12 CL   UNL     1      -8.099   6.654  74.010  1.00  0.00    -0.119 Cl 
HETATM   13  C   UNL     1      -9.814   3.065  73.787  1.00  0.00    -0.151 A  
ENDBRANCH   6   7
ENDBRANCH   3   6
BRANCH   3  14
HETATM   14  C   UNL     1     -11.093   9.316  71.560  1.00  0.00    -0.373 C  
BRANCH  14  15
HETATM   15  C   UNL     1     -10.861   9.876  70.114  1.00  0.00    -0.304 C  
BRANCH  15  16
HETATM   16  N   UNL     1     -10.837  11.321  69.936  1.00  0.00    -0.466 N  
HETATM   17  H   UNL     1     -10.189  11.893  70.478  1.00  0.00     0.000 HD 
HETATM   18  C   UNL     1     -11.701  11.916  69.023  1.00  0.00    -0.331 C  
HETATM   19  O   UNL     1     -12.359  11.291  68.209  1.00  0.00    -0.542 OA 
BRANCH  18  20
HETATM   20  C   UNL     1     -11.684  13.465  69.027  1.00  0.00    -0.323 C  
HETATM   21  N   UNL     1     -10.936  14.055  70.047  1.00  0.00    -0.454 N  
HETATM   22  O   UNL     1     -12.284  14.100  68.176  1.00  0.00    -0.306 OA 
HETATM   23  H   UNL     1     -10.705  13.535  70.894  1.00  0.00     0.000 HD 
BRANCH  21  24
HETATM   24  C   UNL     1     -10.492  15.433  69.873  1.00  0.00    -0.297 C  
BRANCH  24  25
HETATM   25  C   UNL     1      -9.170  15.608  69.077  1.00  0.00    -0.243 C  
BRANCH  25  26
HETATM   26  N   UNL     1      -9.191  16.743  68.026  1.00  0.00    -0.224 N  
BRANCH  26  27
HETATM   27  C   UNL     1     -10.610  17.381  67.945  1.00  0.00    -0.383 C  
HETATM   28  C   UNL     1     -10.643  18.843  67.522  1.00  0.00    -0.524 C  
ENDBRANCH  26  27
BRANCH  26  29
HETATM   29  C   UNL     1      -8.121  17.791  68.439  1.00  0.00    -0.297 C  
HETATM   30  C   UNL     1      -6.885  17.228  69.116  1.00  0.00    -0.234 C  
ENDBRANCH  26  29
BRANCH  26  31
HETATM   31  C   UNL     1      -8.854  16.171  66.599  1.00  0.00    -0.264 C  
BRANCH  31  32
HETATM   32  C   UNL     1      -9.485  14.861  66.160  1.00  0.00    -0.328 A  
HETATM   33  C   UNL     1      -8.981  13.630  66.630  1.00  0.00    -0.138 A  
HETATM   34  C   UNL     1      -9.458  12.410  66.140  1.00  0.00    -0.201 A  
HETATM   35  C   UNL     1     -10.436  12.390  65.155  1.00  0.00    -0.321 A  
HETATM   36  C   UNL     1     -10.965  13.589  64.687  1.00  0.00    -0.395 A  
HETATM   37  C   UNL     1     -10.505  14.811  65.188  1.00  0.00    -0.418 A  
HETATM   38 CL   UNL     1     -11.226  16.238  64.535  1.00  0.00    -0.378 Cl 
ENDBRANCH  31  32
ENDBRANCH  26  31
ENDBRANCH  25  26
ENDBRANCH  24  25
ENDBRANCH  21  24
ENDBRANCH  18  20
ENDBRANCH  15  16
ENDBRANCH  14  15
ENDBRANCH   3  14
ENDBRANCH   2   3
TORSDOF 15
ENDMDL
MODEL       27
REMARK 921   NORMALIZED FREE ENERGY PREDICTED BY IDOCK:   -5.57 KCAL/MOL
REMARK 922        TOTAL FREE ENERGY PREDICTED BY IDOCK:  -13.11 KCAL/MOL
REMARK 923 INTER-LIGAND FREE ENERGY PREDICTED BY IDOCK:  -11.32 KCAL/MOL
REMARK 924 INTRA-LIGAND FREE ENERGY PREDICTED BY IDOCK:   -1.78 KCAL/MOL
REMARK 927      BINDING AFFINITY PREDICTED BY RF-SCORE:    0.00 PKD
ROOT
HETATM    1  C   UNL     1     -14.232   7.399  71.718  1.00  0.00    -0.544 C  
HETATM    2  C   UNL     1     -13.323   8.192  70.791  1.00  0.00     0.470 C  
ENDROOT
BRANCH   2   3
HETATM    3  N   UNL     1     -11.830   8.292  71.232  1.00  0.00    -0.285 N  
BRANCH   3   4
HETATM    4  C   UNL     1     -10.922   7.549  70.208  1.00  0.00    -0.250 C  
HETATM    5  C   UNL     1     -11.498   6.288  69.615  1.00  0.00    -0.425 C  
ENDBRANCH   3   4
BRANCH   3   6
HETATM    6  C   UNL     1     -11.611   7.542  72.567  1.00  0.00    -0.303 C  
BRANCH   6   7
HETATM    7  C   UNL     1     -10.224   7.251  73.130  1.00  0.00    -0.344 A  
HETATM    8  C   UNL     1      -8.720   5.627  74.197  1.00  0.00    -0.119 A  
HETATM    9  C   UNL     1      -9.190   8.192  73.273  1.00  0.00    -0.316 A  
HETATM   10  C   UNL     1      -9.929   5.942  73.565  1.00  0.00    -0.183 A  
HETATM   11  C   UNL     1      -7.959   7.869  73.847  1.00  0.00    -0.251 A  
HETATM   12 CL   UNL     1     -11.081   4.666  73.367  1.00  0.00    -0.389 Cl 
HETATM   13  C   UNL     1      -7.731   6.594  74.333  1.00  0.00    -0.111 A  
ENDBRANCH   6   7
ENDBRANCH   3   6
BRANCH   3  14
HETATM   14  C   UNL     1     -11.517   9.838  71.350  1.00  0.00    -0.365 C  
BRANCH  14  15
HETATM   15  C   UNL     1     -12.715  10.824  71.122  1.00  0.00    -0.431 C  
BRANCH  15  16
HETATM   16  N   UNL     1     -12.409  12.224  70.866  1.00  0.00    -0.366 N  
HETATM   17  H   UNL     1     -11.790  12.481  70.097  1.00  0.00     0.000 HD 
HETATM   18  C   UNL     1     -12.967  13.209  71.675  1.00  0.00    -0.335 C  
HETATM   19  O   UNL     1     -13.857  12.997  72.482  1.00  0.00    -0.625 OA 
BRANCH  18  20
HETATM   20  C   UNL     1     -12.456  14.645  71.397  1.00  0.00    -0.344 C  
HETATM   21  N   UNL     1     -11.114  14.743  71.027  1.00  0.00    -0.535 N  
HETATM   22  O   UNL     1     -13.203  15.605  71.492  1.00  0.00    -0.483 OA 
HETATM   23  H   UNL     1     -10.455  13.995  71.244  1.00  0.00     0.000 HD 
BRANCH  21  24
HETATM   24  C   UNL     1     -10.675  15.942  70.322  1.00  0.00    -0.304 C  
BRANCH  24  25
HETATM   25  C   UNL     1      -9.412  15.765  69.436  1.00  0.00    -0.275 C  
BRANCH  25  26
HETATM   26  N   UNL     1      -9.563  16.274  67.982  1.00  0.00    -0.223 N  
BRANCH  26  27
HETATM   27  C   UNL     1      -9.249  17.797  67.906  1.00  0.00    -0.265 C  
HETATM   28  C   UNL     1     -10.461  18.703  67.734  1.00  0.00    -0.457 C  
ENDBRANCH  26  27
BRANCH  26  29
HETATM   29  C   UNL     1      -8.594  15.450  67.090  1.00  0.00    -0.210 C  
HETATM   30  C   UNL     1      -7.692  14.479  67.830  1.00  0.00    -0.147 C  
ENDBRANCH  26  29
BRANCH  26  31
HETATM   31  C   UNL     1     -11.043  16.076  67.486  1.00  0.00    -0.207 C  
BRANCH  31  32
HETATM   32  C   UNL     1     -11.416  14.790  66.768  1.00  0.00    -0.343 A  
HETATM   33  C   UNL     1     -11.574  13.587  67.488  1.00  0.00    -0.385 A  
HETATM   34  C   UNL     1     -11.786  12.367  66.836  1.00  0.00    -0.432 A  
HETATM   35  C   UNL     1     -11.826  12.318  65.450  1.00  0.00    -0.418 A  
HETATM   36  C   UNL     1     -11.692  13.491  64.715  1.00  0.00    -0.397 A  
HETATM   37  C   UNL     1     -11.499  14.716  65.363  1.00  0.00    -0.352 A  
HETATM   38 CL   UNL     1     -11.341  16.110  64.355  1.00  0.00    -0.375 Cl 
ENDBRANCH  31  32
ENDBRANCH  26  31
ENDBRANCH  25  26
ENDBRANCH  24  25
ENDBRANCH  21  24
ENDBRANCH  18  20
ENDBRANCH  15  16
ENDBRANCH  14  15
ENDBRANCH   3  14
ENDBRANCH   2   3
TORSDOF 15
ENDMDL
MODEL       28
REMARK 921   NORMALIZED FREE ENERGY PREDICTED BY IDOCK:   -5.56 KCAL/MOL
REMARK 922        TOTAL FREE ENERGY PREDICTED BY IDOCK:  -13.10 KCAL/MOL
REMARK 923 INTER-LIGAND FREE ENERGY PREDICTED BY IDOCK:  -11.09 KCAL/MOL
REMARK 924 INTRA-LIGAND FREE ENERGY PREDICTED BY IDOCK:   -2.01 KCAL/MOL
REMARK 927      BINDING AFFINITY PREDICTED BY RF-SCORE:    0.00 PKD
ROOT
HETATM    1  C   UNL     1      -9.269   7.688  73.670  1.00  0.00    -0.339 C  
HETATM    2  C   UNL     1     -10.718   7.778  73.213  1.00  0.00    -0.272 C  
ENDROOT
BRANCH   2   3
HETATM    3  N   UNL     1     -11.179   6.678  72.207  1.00  0.00    -0.256 N  
BRANCH   3   4
HETATM    4  C   UNL     1     -11.432   5.340  72.961  1.00  0.00    -0.269 C  
HETATM    5  C   UNL     1     -10.410   4.255  72.733  1.00  0.00    -0.243 C  
ENDBRANCH   3   4
BRANCH   3   6
HETATM    6  C   UNL     1     -10.046   6.356  71.205  1.00  0.00    -0.185 C  
BRANCH   6   7
HETATM    7  C   UNL     1     -10.168   6.629  69.709  1.00  0.00    -0.214 A  
HETATM    8  C   UNL     1      -9.909   8.236  67.867  1.00  0.00    -0.207 A  
HETATM    9  C   UNL     1     -10.708   5.742  68.762  1.00  0.00    -0.318 A  
HETATM   10  C   UNL     1      -9.725   7.870  69.207  1.00  0.00    -0.159 A  
HETATM   11  C   UNL     1     -10.839   6.077  67.413  1.00  0.00    -0.394 A  
HETATM   12 CL   UNL     1      -8.959   9.021  70.249  1.00  0.00    -0.195 Cl 
HETATM   13  C   UNL     1     -10.464   7.333  66.969  1.00  0.00    -0.398 A  
ENDBRANCH   6   7
ENDBRANCH   3   6
BRANCH   3  14
HETATM   14  C   UNL     1     -12.468   7.257  71.496  1.00  0.00    -0.373 C  
BRANCH  14  15
HETATM   15  C   UNL     1     -12.666   8.811  71.542  1.00  0.00    -0.328 C  
BRANCH  15  16
HETATM   16  N   UNL     1     -12.476   9.561  70.309  1.00  0.00    -0.412 N  
HETATM   17  H   UNL     1     -12.398   9.072  69.418  1.00  0.00     0.000 HD 
HETATM   18  C   UNL     1     -12.402  10.951  70.353  1.00  0.00    -0.351 C  
HETATM   19  O   UNL     1     -12.677  11.611  71.341  1.00  0.00    -0.388 OA 
BRANCH  18  20
HETATM   20  C   UNL     1     -12.056  11.626  69.003  1.00  0.00    -0.225 C  
HETATM   21  N   UNL     1     -12.158  13.018  68.985  1.00  0.00    -0.244 N  
HETATM   22  O   UNL     1     -11.708  10.962  68.041  1.00  0.00    -0.540 OA 
HETATM   23  H   UNL     1     -12.722  13.511  69.677  1.00  0.00     0.000 HD 
BRANCH  21  24
HETATM   24  C   UNL     1     -11.437  13.752  67.951  1.00  0.00    -0.314 C  
BRANCH  24  25
HETATM   25  C   UNL     1     -10.017  14.237  68.351  1.00  0.00    -0.240 C  
BRANCH  25  26
HETATM   26  N   UNL     1      -9.988  15.528  69.203  1.00  0.00    -0.229 N  
BRANCH  26  27
HETATM   27  C   UNL     1     -10.415  15.220  70.669  1.00  0.00     0.012 C  
HETATM   28  C   UNL     1     -11.640  15.976  71.162  1.00  0.00    -0.492 C  
ENDBRANCH  26  27
BRANCH  26  29
HETATM   29  C   UNL     1      -8.546  16.104  69.142  1.00  0.00    -0.235 C  
HETATM   30  C   UNL     1      -7.659  15.525  68.054  1.00  0.00    -0.133 C  
ENDBRANCH  26  29
BRANCH  26  31
HETATM   31  C   UNL     1     -11.008  16.582  68.631  1.00  0.00    -0.344 C  
BRANCH  31  32
HETATM   32  C   UNL     1     -10.475  17.841  67.968  1.00  0.00    -0.399 A  
HETATM   33  C   UNL     1     -10.180  18.986  68.738  1.00  0.00    -0.343 A  
HETATM   34  C   UNL     1      -9.815  20.196  68.138  1.00  0.00    -0.460 A  
HETATM   35  C   UNL     1      -9.755  20.296  66.755  1.00  0.00    -0.571 A  
HETATM   36  C   UNL     1     -10.022  19.178  65.972  1.00  0.00    -0.366 A  
HETATM   37  C   UNL     1     -10.369  17.961  66.568  1.00  0.00    -0.362 A  
HETATM   38 CL   UNL     1     -10.685  16.638  65.503  1.00  0.00    -0.303 Cl 
ENDBRANCH  31  32
ENDBRANCH  26  31
ENDBRANCH  25  26
ENDBRANCH  24  25
ENDBRANCH  21  24
ENDBRANCH  18  20
ENDBRANCH  15  16
ENDBRANCH  14  15
ENDBRANCH   3  14
ENDBRANCH   2   3
TORSDOF 15
ENDMDL
MODEL       29
REMARK 921   NORMALIZED FREE ENERGY PREDICTED BY IDOCK:   -5.55 KCAL/MOL
REMARK 922        TOTAL FREE ENERGY PREDICTED BY IDOCK:  -13.08 KCAL/MOL
REMARK 923 INTER-LIGAND FREE ENERGY PREDICTED BY IDOCK:  -11.28 KCAL/MOL
REMARK 924 INTRA-LIGAND FREE ENERGY PREDICTED BY IDOCK:   -1.80 KCAL/MOL
REMARK 927      BINDING AFFINITY PREDICTED BY RF-SCORE:    0.00 PKD
ROOT
HETATM    1  C   UNL     1      -8.596  13.270  66.750  1.00  0.00    -0.041 C  
HETATM    2  C   UNL     1     -10.110  13.379  66.646  1.00  0.00    -0.275 C  
ENDROOT
BRANCH   2   3
HETATM    3  N   UNL     1     -10.674  14.824  66.482  1.00  0.00    -0.312 N  
BRANCH   3   4
HETATM    4  C   UNL     1     -11.447  14.945  65.136  1.00  0.00    -0.357 C  
HETATM    5  C   UNL     1     -11.846  13.643  64.489  1.00  0.00    -0.445 C  
ENDBRANCH   3   4
BRANCH   3   6
HETATM    6  C   UNL     1      -9.517  15.843  66.364  1.00  0.00    -0.295 C  
BRANCH   6   7
HETATM    7  C   UNL     1      -9.668  17.310  66.754  1.00  0.00    -0.285 A  
HETATM    8  C   UNL     1      -9.155  19.087  68.373  1.00  0.00    -0.391 A  
HETATM    9  C   UNL     1     -10.463  18.254  66.082  1.00  0.00    -0.403 A  
HETATM   10  C   UNL     1      -8.976  17.785  67.889  1.00  0.00    -0.255 A  
HETATM   11  C   UNL     1     -10.598  19.570  66.525  1.00  0.00    -0.579 A  
HETATM   12 CL   UNL     1      -7.893  16.752  68.758  1.00  0.00    -0.234 Cl 
HETATM   13  C   UNL     1      -9.966  19.982  67.685  1.00  0.00    -0.566 A  
ENDBRANCH   6   7
ENDBRANCH   3   6
BRANCH   3  14
HETATM   14  C   UNL     1     -11.577  15.082  67.756  1.00  0.00    -0.319 C  
BRANCH  14  15
HETATM   15  C   UNL     1     -10.915  14.839  69.156  1.00  0.00    -0.267 C  
BRANCH  15  16
HETATM   16  N   UNL     1     -11.310  13.653  69.901  1.00  0.00    -0.478 N  
HETATM   17  H   UNL     1     -10.707  12.830  69.914  1.00  0.00     0.000 HD 
HETATM   18  C   UNL     1     -12.515  13.647  70.598  1.00  0.00    -0.347 C  
HETATM   19  O   UNL     1     -13.190  14.645  70.788  1.00  0.00    -0.364 OA 
BRANCH  18  20
HETATM   20  C   UNL     1     -12.894  12.285  71.231  1.00  0.00    -0.239 C  
HETATM   21  N   UNL     1     -12.544  11.158  70.485  1.00  0.00    -0.296 N  
HETATM   22  O   UNL     1     -13.449  12.232  72.316  1.00  0.00    -0.520 OA 
HETATM   23  H   UNL     1     -12.366  11.229  69.483  1.00  0.00     0.000 HD 
BRANCH  21  24
HETATM   24  C   UNL     1     -12.439   9.877  71.173  1.00  0.00    -0.368 C  
BRANCH  24  25
HETATM   25  C   UNL     1     -10.990   9.390  71.449  1.00  0.00    -0.373 C  
BRANCH  25  26
HETATM   26  N   UNL     1     -10.431   8.395  70.403  1.00  0.00    -0.210 N  
BRANCH  26  27
HETATM   27  C   UNL     1     -10.370   9.063  68.998  1.00  0.00    -0.219 C  
HETATM   28  C   UNL     1      -9.448  10.271  68.892  1.00  0.00    -0.190 C  
ENDBRANCH  26  27
BRANCH  26  29
HETATM   29  C   UNL     1      -9.021   7.949  70.881  1.00  0.00    -0.143 C  
HETATM   30  C   UNL     1      -8.657   8.350  72.299  1.00  0.00    -0.263 C  
ENDBRANCH  26  29
BRANCH  26  31
HETATM   31  C   UNL     1     -11.375   7.141  70.285  1.00  0.00    -0.269 C  
BRANCH  31  32
HETATM   32  C   UNL     1     -11.063   5.901  71.106  1.00  0.00    -0.305 A  
HETATM   33  C   UNL     1     -11.447   5.826  72.461  1.00  0.00    -0.349 A  
HETATM   34  C   UNL     1     -11.058   4.754  73.273  1.00  0.00    -0.411 A  
HETATM   35  C   UNL     1     -10.259   3.744  72.754  1.00  0.00    -0.236 A  
HETATM   36  C   UNL     1      -9.882   3.784  71.416  1.00  0.00    -0.226 A  
HETATM   37  C   UNL     1     -10.285   4.843  70.596  1.00  0.00    -0.211 A  
HETATM   38 CL   UNL     1      -9.756   4.796  68.953  1.00  0.00    -0.236 Cl 
ENDBRANCH  31  32
ENDBRANCH  26  31
ENDBRANCH  25  26
ENDBRANCH  24  25
ENDBRANCH  21  24
ENDBRANCH  18  20
ENDBRANCH  15  16
ENDBRANCH  14  15
ENDBRANCH   3  14
ENDBRANCH   2   3
TORSDOF 15
ENDMDL
MODEL       30
REMARK 921   NORMALIZED FREE ENERGY PREDICTED BY IDOCK:   -5.55 KCAL/MOL
REMARK 922        TOTAL FREE ENERGY PREDICTED BY IDOCK:  -13.08 KCAL/MOL
REMARK 923 INTER-LIGAND FREE ENERGY PREDICTED BY IDOCK:  -10.55 KCAL/MOL
REMARK 924 INTRA-LIGAND FREE ENERGY PREDICTED BY IDOCK:   -2.54 KCAL/MOL
REMARK 927      BINDING AFFINITY PREDICTED BY RF-SCORE:    0.00 PKD
ROOT
HETATM    1  C   UNL     1     -12.221  12.802  63.389  1.00  0.00    -0.594 C  
HETATM    2  C   UNL     1     -12.597  12.700  64.860  1.00  0.00    -0.450 C  
ENDROOT
BRANCH   2   3
HETATM    3  N   UNL     1     -11.456  13.023  65.873  1.00  0.00    -0.323 N  
BRANCH   3   4
HETATM    4  C   UNL     1     -10.281  13.735  65.142  1.00  0.00    -0.345 C  
HETATM    5  C   UNL     1     -10.207  15.231  65.319  1.00  0.00    -0.397 C  
ENDBRANCH   3   4
BRANCH   3   6
HETATM    6  C   UNL     1     -10.841  11.716  66.426  1.00  0.00    -0.287 C  
BRANCH   6   7
HETATM    7  C   UNL     1      -9.724  10.964  65.708  1.00  0.00    -0.270 A  
HETATM    8  C   UNL     1      -7.343  10.359  65.641  1.00  0.00    -0.148 A  
HETATM    9  C   UNL     1      -9.853  10.295  64.479  1.00  0.00    -0.384 A  
HETATM   10  C   UNL     1      -8.442  10.932  66.295  1.00  0.00    -0.166 A  
HETATM   11  C   UNL     1      -8.775   9.670  63.851  1.00  0.00    -0.241 A  
HETATM   12 CL   UNL     1      -8.164  11.639  67.850  1.00  0.00    -0.133 Cl 
HETATM   13  C   UNL     1      -7.514   9.723  64.417  1.00  0.00    -0.132 A  
ENDBRANCH   6   7
ENDBRANCH   3   6
BRANCH   3  14
HETATM   14  C   UNL     1     -12.122  13.904  67.007  1.00  0.00    -0.415 C  
BRANCH  14  15
HETATM   15  C   UNL     1     -11.539  13.754  68.455  1.00  0.00    -0.338 C  
BRANCH  15  16
HETATM   16  N   UNL     1     -11.920  12.581  69.227  1.00  0.00    -0.281 N  
HETATM   17  H   UNL     1     -11.896  11.655  68.800  1.00  0.00     0.000 HD 
HETATM   18  C   UNL     1     -12.317  12.729  70.553  1.00  0.00    -0.275 C  
HETATM   19  O   UNL     1     -12.190  13.764  71.185  1.00  0.00    -0.349 OA 
BRANCH  18  20
HETATM   20  C   UNL     1     -12.835  11.433  71.225  1.00  0.00    -0.379 C  
HETATM   21  N   UNL     1     -12.604  10.254  70.514  1.00  0.00    -0.465 N  
HETATM   22  O   UNL     1     -13.393  11.469  72.309  1.00  0.00    -0.422 OA 
HETATM   23  H   UNL     1     -12.420  10.276  69.510  1.00  0.00     0.000 HD 
BRANCH  21  24
HETATM   24  C   UNL     1     -12.633   8.990  71.239  1.00  0.00    -0.280 C  
BRANCH  24  25
HETATM   25  C   UNL     1     -11.328   8.634  72.002  1.00  0.00    -0.362 C  
BRANCH  25  26
HETATM   26  N   UNL     1     -10.709   7.266  71.626  1.00  0.00    -0.215 N  
BRANCH  26  27
HETATM   27  C   UNL     1      -9.194   7.428  71.304  1.00  0.00    -0.150 C  
HETATM   28  C   UNL     1      -8.694   8.864  71.233  1.00  0.00    -0.279 C  
ENDBRANCH  26  27
BRANCH  26  29
HETATM   29  C   UNL     1     -10.935   6.299  72.821  1.00  0.00    -0.260 C  
HETATM   30  C   UNL     1     -10.105   6.588  74.059  1.00  0.00    -0.348 C  
ENDBRANCH  26  29
BRANCH  26  31
HETATM   31  C   UNL     1     -11.402   6.690  70.336  1.00  0.00    -0.365 C  
BRANCH  31  32
HETATM   32  C   UNL     1     -10.605   6.601  69.045  1.00  0.00    -0.273 A  
HETATM   33  C   UNL     1     -10.589   7.681  68.138  1.00  0.00    -0.187 A  
HETATM   34  C   UNL     1      -9.973   7.575  66.886  1.00  0.00    -0.318 A  
HETATM   35  C   UNL     1      -9.375   6.381  66.505  1.00  0.00    -0.181 A  
HETATM   36  C   UNL     1      -9.360   5.306  67.387  1.00  0.00    -0.122 A  
HETATM   37  C   UNL     1      -9.958   5.414  68.647  1.00  0.00    -0.170 A  
HETATM   38 CL   UNL     1      -9.886   4.019  69.662  1.00  0.00    -0.242 Cl 
ENDBRANCH  31  32
ENDBRANCH  26  31
ENDBRANCH  25  26
ENDBRANCH  24  25
ENDBRANCH  21  24
ENDBRANCH  18  20
ENDBRANCH  15  16
ENDBRANCH  14  15
ENDBRANCH   3  14
ENDBRANCH   2   3
TORSDOF 15
ENDMDL
MODEL       31
REMARK 921   NORMALIZED FREE ENERGY PREDICTED BY IDOCK:   -5.55 KCAL/MOL
REMARK 922        TOTAL FREE ENERGY PREDICTED BY IDOCK:  -13.07 KCAL/MOL
REMARK 923 INTER-LIGAND FREE ENERGY PREDICTED BY IDOCK:  -11.00 KCAL/MOL
REMARK 924 INTRA-LIGAND FREE ENERGY PREDICTED BY IDOCK:   -2.07 KCAL/MOL
REMARK 927      BINDING AFFINITY PREDICTED BY RF-SCORE:    0.00 PKD
ROOT
HETATM    1  C   UNL     1     -10.328   7.508  73.624  1.00  0.00    -0.311 C  
HETATM    2  C   UNL     1     -10.162   8.190  72.274  1.00  0.00    -0.278 C  
ENDROOT
BRANCH   2   3
HETATM    3  N   UNL     1     -11.431   8.212  71.366  1.00  0.00    -0.256 N  
BRANCH   3   4
HETATM    4  C   UNL     1     -12.659   8.710  72.181  1.00  0.00    -0.391 C  
HETATM    5  C   UNL     1     -13.356   9.932  71.637  1.00  0.00    -0.481 C  
ENDBRANCH   3   4
BRANCH   3   6
HETATM    6  C   UNL     1     -11.805   6.776  70.930  1.00  0.00    -0.385 C  
BRANCH   6   7
HETATM    7  C   UNL     1     -11.073   6.037  69.813  1.00  0.00    -0.476 A  
HETATM    8  C   UNL     1      -9.439   4.309  69.196  1.00  0.00    -0.245 A  
HETATM    9  C   UNL     1     -11.152   6.347  68.445  1.00  0.00    -0.374 A  
HETATM   10  C   UNL     1     -10.229   4.959  70.152  1.00  0.00    -0.240 A  
HETATM   11  C   UNL     1     -10.414   5.662  67.479  1.00  0.00    -0.294 A  
HETATM   12 CL   UNL     1     -10.107   4.415  71.791  1.00  0.00    -0.254 Cl 
HETATM   13  C   UNL     1      -9.537   4.661  67.855  1.00  0.00    -0.205 A  
ENDBRANCH   6   7
ENDBRANCH   3   6
BRANCH   3  14
HETATM   14  C   UNL     1     -11.067   9.140  70.138  1.00  0.00    -0.222 C  
BRANCH  14  15
HETATM   15  C   UNL     1      -9.575   9.609  70.020  1.00  0.00    -0.243 C  
BRANCH  15  16
HETATM   16  N   UNL     1      -9.319  10.961  69.546  1.00  0.00    -0.396 N  
HETATM   17  H   UNL     1      -9.679  11.763  70.064  1.00  0.00     0.000 HD 
HETATM   18  C   UNL     1      -8.581  11.154  68.382  1.00  0.00    -0.152 C  
HETATM   19  O   UNL     1      -7.961  10.266  67.820  1.00  0.00    -0.101 OA 
BRANCH  18  20
HETATM   20  C   UNL     1      -8.497  12.624  67.902  1.00  0.00    -0.173 C  
HETATM   21  N   UNL     1      -8.629  13.591  68.900  1.00  0.00    -0.363 N  
HETATM   22  O   UNL     1      -8.317  12.889  66.725  1.00  0.00    -0.098 OA 
HETATM   23  H   UNL     1      -9.069  13.364  69.793  1.00  0.00     0.000 HD 
BRANCH  21  24
HETATM   24  C   UNL     1      -8.122  14.932  68.637  1.00  0.00    -0.151 C  
BRANCH  24  25
HETATM   25  C   UNL     1      -9.015  16.091  69.159  1.00  0.00    -0.252 C  
BRANCH  25  26
HETATM   26  N   UNL     1      -9.874  16.786  68.075  1.00  0.00    -0.258 N  
BRANCH  26  27
HETATM   27  C   UNL     1      -9.872  18.329  68.288  1.00  0.00    -0.350 C  
HETATM   28  C   UNL     1     -10.561  19.137  67.197  1.00  0.00    -0.564 C  
ENDBRANCH  26  27
BRANCH  26  29
HETATM   29  C   UNL     1      -9.286  16.405  66.688  1.00  0.00    -0.259 C  
HETATM   30  C   UNL     1     -10.259  15.745  65.727  1.00  0.00    -0.394 C  
ENDBRANCH  26  29
BRANCH  26  31
HETATM   31  C   UNL     1     -11.369  16.302  68.171  1.00  0.00    -0.248 C  
BRANCH  31  32
HETATM   32  C   UNL     1     -11.802  15.476  69.370  1.00  0.00    -0.392 A  
HETATM   33  C   UNL     1     -11.881  16.061  70.652  1.00  0.00    -0.342 A  
HETATM   34  C   UNL     1     -12.148  15.293  71.790  1.00  0.00    -0.439 A  
HETATM   35  C   UNL     1     -12.324  13.920  71.678  1.00  0.00    -0.270 A  
HETATM   36  C   UNL     1     -12.270  13.320  70.424  1.00  0.00    -0.404 A  
HETATM   37  C   UNL     1     -12.022  14.087  69.281  1.00  0.00    -0.353 A  
HETATM   38 CL   UNL     1     -11.972  13.241  67.776  1.00  0.00    -0.380 Cl 
ENDBRANCH  31  32
ENDBRANCH  26  31
ENDBRANCH  25  26
ENDBRANCH  24  25
ENDBRANCH  21  24
ENDBRANCH  18  20
ENDBRANCH  15  16
ENDBRANCH  14  15
ENDBRANCH   3  14
ENDBRANCH   2   3
TORSDOF 15
ENDMDL
MODEL       32
REMARK 921   NORMALIZED FREE ENERGY PREDICTED BY IDOCK:   -5.55 KCAL/MOL
REMARK 922        TOTAL FREE ENERGY PREDICTED BY IDOCK:  -13.07 KCAL/MOL
REMARK 923 INTER-LIGAND FREE ENERGY PREDICTED BY IDOCK:  -10.91 KCAL/MOL
REMARK 924 INTRA-LIGAND FREE ENERGY PREDICTED BY IDOCK:   -2.16 KCAL/MOL
REMARK 927      BINDING AFFINITY PREDICTED BY RF-SCORE:    0.00 PKD
ROOT
HETATM    1  C   UNL     1     -12.011  13.014  64.021  1.00  0.00    -0.523 C  
HETATM    2  C   UNL     1     -12.465  13.648  65.328  1.00  0.00    -0.479 C  
ENDROOT
BRANCH   2   3
HETATM    3  N   UNL     1     -11.571  13.349  66.571  1.00  0.00    -0.341 N  
BRANCH   3   4
HETATM    4  C   UNL     1     -11.851  14.392  67.691  1.00  0.00    -0.378 C  
HETATM    5  C   UNL     1     -12.000  13.836  69.085  1.00  0.00    -0.403 C  
ENDBRANCH   3   4
BRANCH   3   6
HETATM    6  C   UNL     1     -10.077  13.542  66.219  1.00  0.00    -0.298 C  
BRANCH   6   7
HETATM    7  C   UNL     1      -9.315  14.824  66.537  1.00  0.00    -0.316 A  
HETATM    8  C   UNL     1      -7.671  15.956  67.971  1.00  0.00    -0.139 A  
HETATM    9  C   UNL     1      -9.517  16.067  65.913  1.00  0.00    -0.351 A  
HETATM   10  C   UNL     1      -8.330  14.795  67.546  1.00  0.00    -0.183 A  
HETATM   11  C   UNL     1      -8.820  17.216  66.290  1.00  0.00    -0.266 A  
HETATM   12 CL   UNL     1      -7.918  13.311  68.335  1.00  0.00    -0.139 Cl 
HETATM   13  C   UNL     1      -7.916  17.168  67.336  1.00  0.00    -0.197 A  
ENDBRANCH   6   7
ENDBRANCH   3   6
BRANCH   3  14
HETATM   14  C   UNL     1     -11.904  11.861  66.994  1.00  0.00    -0.113 C  
BRANCH  14  15
HETATM   15  C   UNL     1     -10.694  10.872  67.120  1.00  0.00    -0.270 C  
BRANCH  15  16
HETATM   16  N   UNL     1     -10.978   9.487  67.467  1.00  0.00    -0.433 N  
HETATM   17  H   UNL     1     -11.692   9.267  68.160  1.00  0.00     0.000 HD 
HETATM   18  C   UNL     1     -10.268   8.463  66.846  1.00  0.00    -0.313 C  
HETATM   19  O   UNL     1      -9.544   8.632  65.879  1.00  0.00    -0.220 OA 
BRANCH  18  20
HETATM   20  C   UNL     1     -10.555   7.045  67.399  1.00  0.00    -0.302 C  
HETATM   21  N   UNL     1      -9.962   6.749  68.628  1.00  0.00    -0.142 N  
HETATM   22  O   UNL     1     -11.264   6.265  66.786  1.00  0.00    -0.310 OA 
HETATM   23  H   UNL     1      -9.157   7.279  68.962  1.00  0.00     0.000 HD 
BRANCH  21  24
HETATM   24  C   UNL     1     -10.522   5.663  69.423  1.00  0.00    -0.297 C  
BRANCH  24  25
HETATM   25  C   UNL     1     -11.401   6.106  70.625  1.00  0.00    -0.298 C  
BRANCH  25  26
HETATM   26  N   UNL     1     -10.734   5.940  72.012  1.00  0.00    -0.224 N  
BRANCH  26  27
HETATM   27  C   UNL     1     -11.643   5.093  72.951  1.00  0.00    -0.205 C  
HETATM   28  C   UNL     1     -10.992   3.846  73.535  1.00  0.00    -0.343 C  
ENDBRANCH  26  27
BRANCH  26  29
HETATM   29  C   UNL     1      -9.354   5.261  71.795  1.00  0.00    -0.146 C  
HETATM   30  C   UNL     1      -8.152   6.063  72.263  1.00  0.00    -0.110 C  
ENDBRANCH  26  29
BRANCH  26  31
HETATM   31  C   UNL     1     -10.536   7.345  72.694  1.00  0.00    -0.275 C  
BRANCH  31  32
HETATM   32  C   UNL     1     -11.347   8.529  72.194  1.00  0.00    -0.442 A  
HETATM   33  C   UNL     1     -12.703   8.671  72.556  1.00  0.00    -0.357 A  
HETATM   34  C   UNL     1     -13.505   9.677  72.005  1.00  0.00    -0.514 A  
HETATM   35  C   UNL     1     -12.975  10.551  71.065  1.00  0.00    -0.475 A  
HETATM   36  C   UNL     1     -11.636  10.446  70.705  1.00  0.00    -0.440 A  
HETATM   37  C   UNL     1     -10.826   9.454  71.267  1.00  0.00    -0.361 A  
HETATM   38 CL   UNL     1      -9.180   9.408  70.746  1.00  0.00    -0.305 Cl 
ENDBRANCH  31  32
ENDBRANCH  26  31
ENDBRANCH  25  26
ENDBRANCH  24  25
ENDBRANCH  21  24
ENDBRANCH  18  20
ENDBRANCH  15  16
ENDBRANCH  14  15
ENDBRANCH   3  14
ENDBRANCH   2   3
TORSDOF 15
ENDMDL
MODEL       33
REMARK 921   NORMALIZED FREE ENERGY PREDICTED BY IDOCK:   -5.53 KCAL/MOL
REMARK 922        TOTAL FREE ENERGY PREDICTED BY IDOCK:  -13.04 KCAL/MOL
REMARK 923 INTER-LIGAND FREE ENERGY PREDICTED BY IDOCK:  -10.92 KCAL/MOL
REMARK 924 INTRA-LIGAND FREE ENERGY PREDICTED BY IDOCK:   -2.12 KCAL/MOL
REMARK 927      BINDING AFFINITY PREDICTED BY RF-SCORE:    0.00 PKD
ROOT
HETATM    1  C   UNL     1     -10.626   7.135  67.383  1.00  0.00    -0.372 C  
HETATM    2  C   UNL     1     -10.846   8.638  67.464  1.00  0.00    -0.017 C  
ENDROOT
BRANCH   2   3
HETATM    3  N   UNL     1      -9.561   9.500  67.666  1.00  0.00    -0.134 N  
BRANCH   3   4
HETATM    4  C   UNL     1      -8.318   8.575  67.815  1.00  0.00    -0.130 C  
HETATM    5  C   UNL     1      -7.018   9.269  68.135  1.00  0.00    -0.076 C  
ENDBRANCH   3   4
BRANCH   3   6
HETATM    6  C   UNL     1      -9.637  10.274  69.002  1.00  0.00    -0.203 C  
BRANCH   6   7
HETATM    7  C   UNL     1     -10.720  10.014  70.045  1.00  0.00    -0.348 A  
HETATM    8  C   UNL     1     -11.401   8.786  72.062  1.00  0.00    -0.441 A  
HETATM    9  C   UNL     1     -12.020  10.544  70.018  1.00  0.00    -0.367 A  
HETATM   10  C   UNL     1     -10.425   9.161  71.130  1.00  0.00    -0.315 A  
HETATM   11  C   UNL     1     -12.981  10.222  70.978  1.00  0.00    -0.488 A  
HETATM   12 CL   UNL     1      -8.835   8.509  71.334  1.00  0.00    -0.227 Cl 
HETATM   13  C   UNL     1     -12.681   9.322  71.986  1.00  0.00    -0.479 A  
ENDBRANCH   6   7
ENDBRANCH   3   6
BRANCH   3  14
HETATM   14  C   UNL     1      -9.487  10.463  66.413  1.00  0.00    -0.169 C  
BRANCH  14  15
HETATM   15  C   UNL     1     -10.842  11.055  65.892  1.00  0.00    -0.115 C  
BRANCH  15  16
HETATM   16  N   UNL     1     -10.871  12.459  65.508  1.00  0.00    -0.273 N  
HETATM   17  H   UNL     1     -10.026  13.027  65.573  1.00  0.00     0.000 HD 
HETATM   18  C   UNL     1     -12.059  13.022  65.050  1.00  0.00    -0.427 C  
HETATM   19  O   UNL     1     -13.049  12.371  64.765  1.00  0.00    -0.806 OA 
BRANCH  18  20
HETATM   20  C   UNL     1     -12.002  14.552  64.809  1.00  0.00    -0.442 C  
HETATM   21  N   UNL     1     -11.255  15.279  65.738  1.00  0.00    -0.294 N  
HETATM   22  O   UNL     1     -12.573  15.057  63.857  1.00  0.00    -0.813 OA 
HETATM   23  H   UNL     1     -11.051  14.894  66.661  1.00  0.00     0.000 HD 
BRANCH  21  24
HETATM   24  C   UNL     1     -10.773  16.601  65.357  1.00  0.00    -0.215 C  
BRANCH  24  25
HETATM   25  C   UNL     1      -9.302  16.908  65.748  1.00  0.00     0.040 C  
BRANCH  25  26
HETATM   26  N   UNL     1      -9.137  17.890  66.933  1.00  0.00    -0.253 N  
BRANCH  26  27
HETATM   27  C   UNL     1      -7.849  18.747  66.751  1.00  0.00    -0.245 C  
HETATM   28  C   UNL     1      -6.540  17.971  66.798  1.00  0.00    -0.220 C  
ENDBRANCH  26  27
BRANCH  26  29
HETATM   29  C   UNL     1     -10.408  18.782  66.989  1.00  0.00    -0.403 C  
HETATM   30  C   UNL     1     -10.411  19.847  68.071  1.00  0.00    -0.547 C  
ENDBRANCH  26  29
BRANCH  26  31
HETATM   31  C   UNL     1      -8.984  17.095  68.282  1.00  0.00    -0.248 C  
BRANCH  31  32
HETATM   32  C   UNL     1     -10.025  16.050  68.647  1.00  0.00    -0.220 A  
HETATM   33  C   UNL     1     -11.223  16.427  69.288  1.00  0.00    -0.272 A  
HETATM   34  C   UNL     1     -12.136  15.472  69.751  1.00  0.00    -0.372 A  
HETATM   35  C   UNL     1     -11.863  14.120  69.601  1.00  0.00    -0.379 A  
HETATM   36  C   UNL     1     -10.698  13.720  68.955  1.00  0.00    -0.249 A  
HETATM   37  C   UNL     1      -9.792  14.671  68.473  1.00  0.00    -0.228 A  
HETATM   38 CL   UNL     1      -8.375  14.067  67.691  1.00  0.00    -0.173 Cl 
ENDBRANCH  31  32
ENDBRANCH  26  31
ENDBRANCH  25  26
ENDBRANCH  24  25
ENDBRANCH  21  24
ENDBRANCH  18  20
ENDBRANCH  15  16
ENDBRANCH  14  15
ENDBRANCH   3  14
ENDBRANCH   2   3
TORSDOF 15
ENDMDL
MODEL       34
REMARK 921   NORMALIZED FREE ENERGY PREDICTED BY IDOCK:   -5.53 KCAL/MOL
REMARK 922        TOTAL FREE ENERGY PREDICTED BY IDOCK:  -13.04 KCAL/MOL
REMARK 923 INTER-LIGAND FREE ENERGY PREDICTED BY IDOCK:  -11.13 KCAL/MOL
REMARK 924 INTRA-LIGAND FREE ENERGY PREDICTED BY IDOCK:   -1.91 KCAL/MOL
REMARK 927      BINDING AFFINITY PREDICTED BY RF-SCORE:    0.00 PKD
ROOT
HETATM    1  C   UNL     1     -10.646   5.595  67.025  1.00  0.00    -0.358 C  
HETATM    2  C   UNL     1     -10.693   7.110  67.161  1.00  0.00    -0.352 C  
ENDROOT
BRANCH   2   3
HETATM    3  N   UNL     1      -9.562   7.746  68.027  1.00  0.00    -0.148 N  
BRANCH   3   4
HETATM    4  C   UNL     1      -8.749   6.629  68.745  1.00  0.00    -0.128 C  
HETATM    5  C   UNL     1      -7.249   6.747  68.653  1.00  0.00    -0.085 C  
ENDBRANCH   3   4
BRANCH   3   6
HETATM    6  C   UNL     1     -10.171   8.587  69.174  1.00  0.00    -0.211 C  
BRANCH   6   7
HETATM    7  C   UNL     1     -10.000   8.220  70.645  1.00  0.00    -0.204 A  
HETATM    8  C   UNL     1     -10.942   7.115  72.627  1.00  0.00    -0.325 A  
HETATM    9  C   UNL     1      -8.947   8.645  71.472  1.00  0.00    -0.302 A  
HETATM   10  C   UNL     1     -10.971   7.399  71.256  1.00  0.00    -0.242 A  
HETATM   11  C   UNL     1      -8.880   8.314  72.827  1.00  0.00    -0.310 A  
HETATM   12 CL   UNL     1     -12.273   6.734  70.331  1.00  0.00    -0.300 Cl 
HETATM   13  C   UNL     1      -9.889   7.571  73.412  1.00  0.00    -0.365 A  
ENDBRANCH   6   7
ENDBRANCH   3   6
BRANCH   3  14
HETATM   14  C   UNL     1      -8.695   8.619  67.032  1.00  0.00    -0.127 C  
BRANCH  14  15
HETATM   15  C   UNL     1      -9.362   9.014  65.669  1.00  0.00    -0.222 C  
BRANCH  15  16
HETATM   16  N   UNL     1     -10.097  10.269  65.606  1.00  0.00    -0.281 N  
HETATM   17  H   UNL     1     -10.391  10.735  66.464  1.00  0.00     0.000 HD 
HETATM   18  C   UNL     1     -10.396  10.829  64.368  1.00  0.00    -0.335 C  
HETATM   19  O   UNL     1      -9.918  10.438  63.316  1.00  0.00    -0.256 OA 
BRANCH  18  20
HETATM   20  C   UNL     1     -11.302  12.085  64.424  1.00  0.00    -0.345 C  
HETATM   21  N   UNL     1     -11.911  12.331  65.656  1.00  0.00    -0.378 N  
HETATM   22  O   UNL     1     -11.445  12.798  63.445  1.00  0.00    -0.490 OA 
HETATM   23  H   UNL     1     -12.020  11.585  66.343  1.00  0.00     0.000 HD 
BRANCH  21  24
HETATM   24  C   UNL     1     -12.388  13.679  65.936  1.00  0.00    -0.471 C  
BRANCH  24  25
HETATM   25  C   UNL     1     -12.284  14.124  67.420  1.00  0.00    -0.243 C  
BRANCH  25  26
HETATM   26  N   UNL     1     -10.918  14.731  67.822  1.00  0.00    -0.282 N  
BRANCH  26  27
HETATM   27  C   UNL     1      -9.754  13.911  67.191  1.00  0.00    -0.244 C  
HETATM   28  C   UNL     1      -8.750  13.339  68.182  1.00  0.00    -0.179 C  
ENDBRANCH  26  27
BRANCH  26  29
HETATM   29  C   UNL     1     -10.896  16.208  67.340  1.00  0.00    -0.265 C  
HETATM   30  C   UNL     1     -10.328  17.209  68.330  1.00  0.00    -0.354 C  
ENDBRANCH  26  29
BRANCH  26  31
HETATM   31  C   UNL     1     -10.735  14.678  69.384  1.00  0.00    -0.222 C  
BRANCH  31  32
HETATM   32  C   UNL     1     -11.950  14.427  70.262  1.00  0.00    -0.388 A  
HETATM   33  C   UNL     1     -12.682  15.508  70.796  1.00  0.00    -0.511 A  
HETATM   34  C   UNL     1     -13.722  15.305  71.711  1.00  0.00    -0.605 A  
HETATM   35  C   UNL     1     -14.041  14.020  72.127  1.00  0.00    -0.641 A  
HETATM   36  C   UNL     1     -13.348  12.934  71.602  1.00  0.00    -0.358 A  
HETATM   37  C   UNL     1     -12.320  13.131  70.672  1.00  0.00    -0.326 A  
HETATM   38 CL   UNL     1     -11.523  11.715  70.087  1.00  0.00    -0.278 Cl 
ENDBRANCH  31  32
ENDBRANCH  26  31
ENDBRANCH  25  26
ENDBRANCH  24  25
ENDBRANCH  21  24
ENDBRANCH  18  20
ENDBRANCH  15  16
ENDBRANCH  14  15
ENDBRANCH   3  14
ENDBRANCH   2   3
TORSDOF 15
ENDMDL
MODEL       35
REMARK 921   NORMALIZED FREE ENERGY PREDICTED BY IDOCK:   -5.52 KCAL/MOL
REMARK 922        TOTAL FREE ENERGY PREDICTED BY IDOCK:  -13.03 KCAL/MOL
REMARK 923 INTER-LIGAND FREE ENERGY PREDICTED BY IDOCK:  -10.10 KCAL/MOL
REMARK 924 INTRA-LIGAND FREE ENERGY PREDICTED BY IDOCK:   -2.93 KCAL/MOL
REMARK 927      BINDING AFFINITY PREDICTED BY RF-SCORE:    0.00 PKD
ROOT
HETATM    1  C   UNL     1      -9.180   4.004  71.322  1.00  0.00    -0.197 C  
HETATM    2  C   UNL     1     -10.105   4.556  70.248  1.00  0.00    -0.160 C  
ENDROOT
BRANCH   2   3
HETATM    3  N   UNL     1     -10.059   6.102  70.044  1.00  0.00    -0.172 N  
BRANCH   3   4
HETATM    4  C   UNL     1     -10.715   6.480  68.684  1.00  0.00    -0.271 C  
HETATM    5  C   UNL     1     -10.394   5.571  67.525  1.00  0.00    -0.268 C  
ENDBRANCH   3   4
BRANCH   3   6
HETATM    6  C   UNL     1      -8.595   6.585  69.921  1.00  0.00    -0.139 C  
BRANCH   6   7
HETATM    7  C   UNL     1      -8.222   7.944  69.337  1.00  0.00    -0.130 A  
HETATM    8  C   UNL     1      -6.904   9.199  67.686  1.00  0.00    -0.077 A  
HETATM    9  C   UNL     1      -8.637   9.188  69.842  1.00  0.00    -0.155 A  
HETATM   10  C   UNL     1      -7.380   7.989  68.206  1.00  0.00    -0.095 A  
HETATM   11  C   UNL     1      -8.215  10.399  69.290  1.00  0.00    -0.163 A  
HETATM   12 CL   UNL     1      -6.866   6.530  67.430  1.00  0.00    -0.073 Cl 
HETATM   13  C   UNL     1      -7.328  10.406  68.228  1.00  0.00    -0.088 A  
ENDBRANCH   6   7
ENDBRANCH   3   6
BRANCH   3  14
HETATM   14  C   UNL     1     -10.796   6.725  71.298  1.00  0.00    -0.232 C  
BRANCH  14  15
HETATM   15  C   UNL     1     -12.168   7.436  71.033  1.00  0.00    -0.282 C  
BRANCH  15  16
HETATM   16  N   UNL     1     -12.157   8.869  70.778  1.00  0.00    -0.476 N  
HETATM   17  H   UNL     1     -11.658   9.243  69.971  1.00  0.00     0.000 HD 
HETATM   18  C   UNL     1     -12.833   9.726  71.641  1.00  0.00    -0.421 C  
HETATM   19  O   UNL     1     -13.604   9.345  72.506  1.00  0.00    -0.459 OA 
BRANCH  18  20
HETATM   20  C   UNL     1     -12.630  11.234  71.350  1.00  0.00    -0.351 C  
HETATM   21  N   UNL     1     -11.729  11.532  70.327  1.00  0.00    -0.465 N  
HETATM   22  O   UNL     1     -13.240  12.081  71.981  1.00  0.00    -0.499 OA 
HETATM   23  H   UNL     1     -11.028  10.852  70.033  1.00  0.00     0.000 HD 
BRANCH  21  24
HETATM   24  C   UNL     1     -11.813  12.840  69.688  1.00  0.00    -0.317 C  
BRANCH  24  25
HETATM   25  C   UNL     1     -10.614  13.208  68.771  1.00  0.00    -0.201 C  
BRANCH  25  26
HETATM   26  N   UNL     1     -11.008  13.787  67.391  1.00  0.00    -0.280 N  
BRANCH  26  27
HETATM   27  C   UNL     1     -11.902  15.050  67.569  1.00  0.00    -0.164 C  
HETATM   28  C   UNL     1     -11.261  16.197  68.339  1.00  0.00    -0.358 C  
ENDBRANCH  26  27
BRANCH  26  29
HETATM   29  C   UNL     1      -9.697  14.123  66.628  1.00  0.00    -0.288 C  
HETATM   30  C   UNL     1      -8.413  13.876  67.398  1.00  0.00    -0.208 C  
ENDBRANCH  26  29
BRANCH  26  31
HETATM   31  C   UNL     1     -11.845  12.733  66.576  1.00  0.00    -0.405 C  
BRANCH  31  32
HETATM   32  C   UNL     1     -11.121  11.783  65.636  1.00  0.00    -0.340 A  
HETATM   33  C   UNL     1     -10.325  10.737  66.148  1.00  0.00    -0.300 A  
HETATM   34  C   UNL     1      -9.546   9.933  65.309  1.00  0.00    -0.361 A  
HETATM   35  C   UNL     1      -9.529  10.168  63.941  1.00  0.00    -0.332 A  
HETATM   36  C   UNL     1     -10.319  11.180  63.406  1.00  0.00    -0.419 A  
HETATM   37  C   UNL     1     -11.115  11.974  64.240  1.00  0.00    -0.351 A  
HETATM   38 CL   UNL     1     -12.053  13.205  63.473  1.00  0.00    -0.605 Cl 
ENDBRANCH  31  32
ENDBRANCH  26  31
ENDBRANCH  25  26
ENDBRANCH  24  25
ENDBRANCH  21  24
ENDBRANCH  18  20
ENDBRANCH  15  16
ENDBRANCH  14  15
ENDBRANCH   3  14
ENDBRANCH   2   3
TORSDOF 15
ENDMDL
MODEL       36
REMARK 921   NORMALIZED FREE ENERGY PREDICTED BY IDOCK:   -5.52 KCAL/MOL
REMARK 922        TOTAL FREE ENERGY PREDICTED BY IDOCK:  -13.02 KCAL/MOL
REMARK 923 INTER-LIGAND FREE ENERGY PREDICTED BY IDOCK:  -10.70 KCAL/MOL
REMARK 924 INTRA-LIGAND FREE ENERGY PREDICTED BY IDOCK:   -2.32 KCAL/MOL
REMARK 927      BINDING AFFINITY PREDICTED BY RF-SCORE:    0.00 PKD
ROOT
HETATM    1  C   UNL     1     -10.954   6.125  67.285  1.00  0.00    -0.418 C  
HETATM    2  C   UNL     1     -10.408   7.432  66.730  1.00  0.00    -0.251 C  
ENDROOT
BRANCH   2   3
HETATM    3  N   UNL     1      -8.917   7.741  67.070  1.00  0.00    -0.125 N  
BRANCH   3   4
HETATM    4  C   UNL     1      -8.024   6.518  66.708  1.00  0.00    -0.108 C  
HETATM    5  C   UNL     1      -7.777   6.298  65.237  1.00  0.00    -0.096 C  
ENDBRANCH   3   4
BRANCH   3   6
HETATM    6  C   UNL     1      -8.739   7.919  68.596  1.00  0.00    -0.128 C  
BRANCH   6   7
HETATM    7  C   UNL     1      -9.782   8.607  69.472  1.00  0.00    -0.179 A  
HETATM    8  C   UNL     1     -11.439   8.395  71.275  1.00  0.00    -0.325 A  
HETATM    9  C   UNL     1     -10.212   9.937  69.333  1.00  0.00    -0.231 A  
HETATM   10  C   UNL     1     -10.394   7.867  70.506  1.00  0.00    -0.205 A  
HETATM   11  C   UNL     1     -11.211  10.489  70.137  1.00  0.00    -0.389 A  
HETATM   12 CL   UNL     1      -9.896   6.245  70.844  1.00  0.00    -0.199 Cl 
HETATM   13  C   UNL     1     -11.844   9.711  71.090  1.00  0.00    -0.448 A  
ENDBRANCH   6   7
ENDBRANCH   3   6
BRANCH   3  14
HETATM   14  C   UNL     1      -8.552   9.052  66.263  1.00  0.00    -0.128 C  
BRANCH  14  15
HETATM   15  C   UNL     1      -9.669   9.650  65.339  1.00  0.00    -0.295 C  
BRANCH  15  16
HETATM   16  N   UNL     1      -9.971  11.068  65.464  1.00  0.00    -0.242 N  
HETATM   17  H   UNL     1      -9.841  11.544  66.356  1.00  0.00     0.000 HD 
HETATM   18  C   UNL     1     -10.438  11.772  64.357  1.00  0.00    -0.311 C  
HETATM   19  O   UNL     1     -10.436  11.325  63.222  1.00  0.00    -0.362 OA 
BRANCH  18  20
HETATM   20  C   UNL     1     -10.860  13.234  64.647  1.00  0.00    -0.382 C  
HETATM   21  N   UNL     1      -9.993  13.957  65.468  1.00  0.00    -0.468 N  
HETATM   22  O   UNL     1     -11.881  13.698  64.168  1.00  0.00    -0.413 OA 
HETATM   23  H   UNL     1      -9.335  13.480  66.083  1.00  0.00     0.000 HD 
BRANCH  21  24
HETATM   24  C   UNL     1     -10.052  15.414  65.425  1.00  0.00    -0.359 C  
BRANCH  24  25
HETATM   25  C   UNL     1      -9.004  16.145  66.307  1.00  0.00    -0.344 C  
BRANCH  25  26
HETATM   26  N   UNL     1      -9.337  16.178  67.818  1.00  0.00    -0.211 N  
BRANCH  26  27
HETATM   27  C   UNL     1      -8.720  14.942  68.537  1.00  0.00    -0.172 C  
HETATM   28  C   UNL     1      -7.610  15.255  69.531  1.00  0.00    -0.219 C  
ENDBRANCH  26  27
BRANCH  26  29
HETATM   29  C   UNL     1      -8.779  17.508  68.397  1.00  0.00    -0.276 C  
HETATM   30  C   UNL     1      -9.703  18.707  68.283  1.00  0.00    -0.394 C  
ENDBRANCH  26  29
BRANCH  26  31
HETATM   31  C   UNL     1     -10.895  16.116  68.034  1.00  0.00    -0.333 C  
BRANCH  31  32
HETATM   32  C   UNL     1     -11.439  15.548  69.334  1.00  0.00    -0.345 A  
HETATM   33  C   UNL     1     -11.337  16.282  70.534  1.00  0.00    -0.318 A  
HETATM   34  C   UNL     1     -11.710  15.729  71.764  1.00  0.00    -0.562 A  
HETATM   35  C   UNL     1     -12.174  14.422  71.825  1.00  0.00    -0.357 A  
HETATM   36  C   UNL     1     -12.303  13.681  70.655  1.00  0.00    -0.440 A  
HETATM   37  C   UNL     1     -11.949  14.237  69.421  1.00  0.00    -0.337 A  
HETATM   38 CL   UNL     1     -12.144  13.230  68.032  1.00  0.00    -0.330 Cl 
ENDBRANCH  31  32
ENDBRANCH  26  31
ENDBRANCH  25  26
ENDBRANCH  24  25
ENDBRANCH  21  24
ENDBRANCH  18  20
ENDBRANCH  15  16
ENDBRANCH  14  15
ENDBRANCH   3  14
ENDBRANCH   2   3
TORSDOF 15
ENDMDL
MODEL       37
REMARK 921   NORMALIZED FREE ENERGY PREDICTED BY IDOCK:   -5.52 KCAL/MOL
REMARK 922        TOTAL FREE ENERGY PREDICTED BY IDOCK:  -13.02 KCAL/MOL
REMARK 923 INTER-LIGAND FREE ENERGY PREDICTED BY IDOCK:  -10.28 KCAL/MOL
REMARK 924 INTRA-LIGAND FREE ENERGY PREDICTED BY IDOCK:   -2.74 KCAL/MOL
REMARK 927      BINDING AFFINITY PREDICTED BY RF-SCORE:    0.00 PKD
ROOT
HETATM    1  C   UNL     1     -10.904  16.493  69.709  1.00  0.00    -0.302 C  
HETATM    2  C   UNL     1     -11.715  15.828  68.608  1.00  0.00    -0.344 C  
ENDROOT
BRANCH   2   3
HETATM    3  N   UNL     1     -11.066  14.567  67.958  1.00  0.00    -0.267 N  
BRANCH   3   4
HETATM    4  C   UNL     1      -9.800  14.976  67.150  1.00  0.00    -0.233 C  
HETATM    5  C   UNL     1      -8.512  14.314  67.569  1.00  0.00    -0.195 C  
ENDBRANCH   3   4
BRANCH   3   6
HETATM    6  C   UNL     1     -12.020  13.951  66.908  1.00  0.00    -0.433 C  
BRANCH   6   7
HETATM    7  C   UNL     1     -11.540  12.998  65.817  1.00  0.00    -0.396 A  
HETATM    8  C   UNL     1     -11.364  12.520  63.413  1.00  0.00    -0.489 A  
HETATM    9  C   UNL     1     -10.975  11.731  66.036  1.00  0.00    -0.355 A  
HETATM   10  C   UNL     1     -11.676  13.387  64.468  1.00  0.00    -0.384 A  
HETATM   11  C   UNL     1     -10.605  10.885  64.989  1.00  0.00    -0.287 A  
HETATM   12 CL   UNL     1     -12.276  14.958  64.058  1.00  0.00    -0.310 Cl 
HETATM   13  C   UNL     1     -10.823  11.267  63.677  1.00  0.00    -0.410 A  
ENDBRANCH   6   7
ENDBRANCH   3   6
BRANCH   3  14
HETATM   14  C   UNL     1     -10.762  13.574  69.152  1.00  0.00    -0.082 C  
BRANCH  14  15
HETATM   15  C   UNL     1     -11.992  13.057  69.975  1.00  0.00    -0.312 C  
BRANCH  15  16
HETATM   16  N   UNL     1     -11.993  11.665  70.400  1.00  0.00    -0.420 N  
HETATM   17  H   UNL     1     -11.381  10.989  69.944  1.00  0.00     0.000 HD 
HETATM   18  C   UNL     1     -12.834  11.261  71.433  1.00  0.00    -0.410 C  
HETATM   19  O   UNL     1     -13.446  12.037  72.148  1.00  0.00    -0.476 OA 
BRANCH  18  20
HETATM   20  C   UNL     1     -12.852   9.735  71.698  1.00  0.00    -0.421 C  
HETATM   21  N   UNL     1     -12.081   8.965  70.825  1.00  0.00    -0.476 N  
HETATM   22  O   UNL     1     -13.497   9.267  72.621  1.00  0.00    -0.444 OA 
HETATM   23  H   UNL     1     -11.807   9.326  69.911  1.00  0.00     0.000 HD 
BRANCH  21  24
HETATM   24  C   UNL     1     -11.675   7.631  71.252  1.00  0.00    -0.284 C  
BRANCH  24  25
HETATM   25  C   UNL     1     -11.753   6.533  70.157  1.00  0.00    -0.353 C  
BRANCH  25  26
HETATM   26  N   UNL     1     -10.475   6.384  69.296  1.00  0.00    -0.208 N  
BRANCH  26  27
HETATM   27  C   UNL     1     -10.042   4.890  69.222  1.00  0.00    -0.178 C  
HETATM   28  C   UNL     1      -9.412   4.333  70.492  1.00  0.00    -0.244 C  
ENDBRANCH  26  27
BRANCH  26  29
HETATM   29  C   UNL     1     -10.787   6.954  67.884  1.00  0.00    -0.218 C  
HETATM   30  C   UNL     1     -10.696   5.956  66.744  1.00  0.00    -0.371 C  
ENDBRANCH  26  29
BRANCH  26  31
HETATM   31  C   UNL     1      -9.285   7.186  69.943  1.00  0.00    -0.141 C  
BRANCH  31  32
HETATM   32  C   UNL     1      -8.630   8.305  69.151  1.00  0.00    -0.138 A  
HETATM   33  C   UNL     1      -8.998   9.648  69.372  1.00  0.00    -0.186 A  
HETATM   34  C   UNL     1      -8.508  10.682  68.567  1.00  0.00    -0.136 A  
HETATM   35  C   UNL     1      -7.654  10.396  67.510  1.00  0.00    -0.094 A  
HETATM   36  C   UNL     1      -7.260   9.082  67.281  1.00  0.00    -0.083 A  
HETATM   37  C   UNL     1      -7.732   8.047  68.096  1.00  0.00    -0.118 A  
HETATM   38 CL   UNL     1      -7.184   6.453  67.721  1.00  0.00    -0.084 Cl 
ENDBRANCH  31  32
ENDBRANCH  26  31
ENDBRANCH  25  26
ENDBRANCH  24  25
ENDBRANCH  21  24
ENDBRANCH  18  20
ENDBRANCH  15  16
ENDBRANCH  14  15
ENDBRANCH   3  14
ENDBRANCH   2   3
TORSDOF 15
ENDMDL
MODEL       38
REMARK 921   NORMALIZED FREE ENERGY PREDICTED BY IDOCK:   -5.52 KCAL/MOL
REMARK 922        TOTAL FREE ENERGY PREDICTED BY IDOCK:  -13.02 KCAL/MOL
REMARK 923 INTER-LIGAND FREE ENERGY PREDICTED BY IDOCK:  -11.06 KCAL/MOL
REMARK 924 INTRA-LIGAND FREE ENERGY PREDICTED BY IDOCK:   -1.96 KCAL/MOL
REMARK 927      BINDING AFFINITY PREDICTED BY RF-SCORE:    0.00 PKD
ROOT
HETATM    1  C   UNL     1     -10.871  19.125  67.413  1.00  0.00    -0.533 C  
HETATM    2  C   UNL     1     -10.023  18.015  66.810  1.00  0.00    -0.346 C  
ENDROOT
BRANCH   2   3
HETATM    3  N   UNL     1      -9.683  16.829  67.766  1.00  0.00    -0.244 N  
BRANCH   3   4
HETATM    4  C   UNL     1      -8.433  17.179  68.624  1.00  0.00    -0.258 C  
HETATM    5  C   UNL     1      -7.255  16.248  68.479  1.00  0.00    -0.159 C  
ENDBRANCH   3   4
BRANCH   3   6
HETATM    6  C   UNL     1      -9.263  15.584  66.950  1.00  0.00    -0.236 C  
BRANCH   6   7
HETATM    7  C   UNL     1     -10.041  14.272  66.991  1.00  0.00    -0.260 A  
HETATM    8  C   UNL     1     -11.899  12.936  66.096  1.00  0.00    -0.487 A  
HETATM    9  C   UNL     1      -9.833  13.232  67.912  1.00  0.00    -0.234 A  
HETATM   10  C   UNL     1     -11.069  14.064  66.048  1.00  0.00    -0.303 A  
HETATM   11  C   UNL     1     -10.618  12.077  67.926  1.00  0.00    -0.227 A  
HETATM   12 CL   UNL     1     -11.373  15.225  64.802  1.00  0.00    -0.416 Cl 
HETATM   13  C   UNL     1     -11.668  11.940  67.036  1.00  0.00    -0.304 A  
ENDBRANCH   6   7
ENDBRANCH   3   6
BRANCH   3  14
HETATM   14  C   UNL     1     -10.989  16.577  68.623  1.00  0.00    -0.344 C  
BRANCH  14  15
HETATM   15  C   UNL     1     -10.785  16.174  70.124  1.00  0.00    -0.289 C  
BRANCH  15  16
HETATM   16  N   UNL     1     -11.342  14.907  70.573  1.00  0.00    -0.371 N  
HETATM   17  H   UNL     1     -10.959  14.027  70.227  1.00  0.00     0.000 HD 
HETATM   18  C   UNL     1     -12.400  14.902  71.478  1.00  0.00    -0.339 C  
HETATM   19  O   UNL     1     -12.780  15.893  72.078  1.00  0.00    -0.440 OA 
BRANCH  18  20
HETATM   20  C   UNL     1     -12.999  13.504  71.769  1.00  0.00    -0.348 C  
HETATM   21  N   UNL     1     -12.567  12.478  70.927  1.00  0.00    -0.304 N  
HETATM   22  O   UNL     1     -13.786  13.338  72.687  1.00  0.00    -0.674 OA 
HETATM   23  H   UNL     1     -12.165  12.686  70.013  1.00  0.00     0.000 HD 
BRANCH  21  24
HETATM   24  C   UNL     1     -12.703  11.101  71.387  1.00  0.00    -0.418 C  
BRANCH  24  25
HETATM   25  C   UNL     1     -11.505  10.170  71.056  1.00  0.00    -0.354 C  
BRANCH  25  26
HETATM   26  N   UNL     1     -11.655   8.715  71.562  1.00  0.00    -0.282 N  
BRANCH  26  27
HETATM   27  C   UNL     1     -10.398   8.294  72.380  1.00  0.00    -0.332 C  
HETATM   28  C   UNL     1     -10.664   7.332  73.530  1.00  0.00    -0.367 C  
ENDBRANCH  26  27
BRANCH  26  29
HETATM   29  C   UNL     1     -12.944   8.645  72.426  1.00  0.00    -0.351 C  
HETATM   30  C   UNL     1     -14.083   7.834  71.833  1.00  0.00    -0.462 C  
ENDBRANCH  26  29
BRANCH  26  31
HETATM   31  C   UNL     1     -11.774   7.724  70.344  1.00  0.00    -0.028 C  
BRANCH  31  32
HETATM   32  C   UNL     1     -10.615   6.793  70.033  1.00  0.00    -0.256 A  
HETATM   33  C   UNL     1     -10.593   5.480  70.549  1.00  0.00    -0.339 A  
HETATM   34  C   UNL     1      -9.479   4.649  70.387  1.00  0.00    -0.241 A  
HETATM   35  C   UNL     1      -8.353   5.118  69.723  1.00  0.00    -0.093 A  
HETATM   36  C   UNL     1      -8.355   6.401  69.188  1.00  0.00    -0.122 A  
HETATM   37  C   UNL     1      -9.474   7.229  69.331  1.00  0.00    -0.154 A  
HETATM   38 CL   UNL     1      -9.368   8.805  68.632  1.00  0.00    -0.141 Cl 
ENDBRANCH  31  32
ENDBRANCH  26  31
ENDBRANCH  25  26
ENDBRANCH  24  25
ENDBRANCH  21  24
ENDBRANCH  18  20
ENDBRANCH  15  16
ENDBRANCH  14  15
ENDBRANCH   3  14
ENDBRANCH   2   3
TORSDOF 15
ENDMDL
MODEL       39
REMARK 921   NORMALIZED FREE ENERGY PREDICTED BY IDOCK:   -5.50 KCAL/MOL
REMARK 922        TOTAL FREE ENERGY PREDICTED BY IDOCK:  -12.99 KCAL/MOL
REMARK 923 INTER-LIGAND FREE ENERGY PREDICTED BY IDOCK:   -9.96 KCAL/MOL
REMARK 924 INTRA-LIGAND FREE ENERGY PREDICTED BY IDOCK:   -3.03 KCAL/MOL
REMARK 927      BINDING AFFINITY PREDICTED BY RF-SCORE:    0.00 PKD
ROOT
HETATM    1  C   UNL     1      -8.103  14.756  67.132  1.00  0.00    -0.226 C  
HETATM    2  C   UNL     1      -9.389  14.561  67.921  1.00  0.00    -0.201 C  
ENDROOT
BRANCH   2   3
HETATM    3  N   UNL     1     -10.666  15.212  67.305  1.00  0.00    -0.298 N  
BRANCH   3   4
HETATM    4  C   UNL     1     -10.985  16.551  68.033  1.00  0.00    -0.320 C  
HETATM    5  C   UNL     1     -10.375  17.789  67.426  1.00  0.00    -0.370 C  
ENDBRANCH   3   4
BRANCH   3   6
HETATM    6  C   UNL     1     -11.903  14.320  67.563  1.00  0.00    -0.395 C  
BRANCH   6   7
HETATM    7  C   UNL     1     -12.032  13.426  68.793  1.00  0.00    -0.359 A  
HETATM    8  C   UNL     1     -12.158  11.142  69.689  1.00  0.00    -0.406 A  
HETATM    9  C   UNL     1     -12.257  13.875  70.105  1.00  0.00    -0.425 A  
HETATM   10  C   UNL     1     -11.937  12.028  68.628  1.00  0.00    -0.235 A  
HETATM   11  C   UNL     1     -12.417  12.997  71.179  1.00  0.00    -0.364 A  
HETATM   12 CL   UNL     1     -11.574  11.345  67.080  1.00  0.00    -0.242 Cl 
HETATM   13  C   UNL     1     -12.395  11.630  70.968  1.00  0.00    -0.405 A  
ENDBRANCH   6   7
ENDBRANCH   3   6
BRANCH   3  14
HETATM   14  C   UNL     1     -10.359  15.388  65.763  1.00  0.00    -0.361 C  
BRANCH  14  15
HETATM   15  C   UNL     1     -10.890  14.268  64.802  1.00  0.00    -0.405 C  
BRANCH  15  16
HETATM   16  N   UNL     1     -10.032  13.118  64.554  1.00  0.00    -0.622 N  
HETATM   17  H   UNL     1      -9.091  13.085  64.946  1.00  0.00     0.000 HD 
HETATM   18  C   UNL     1     -10.504  12.062  63.779  1.00  0.00    -0.429 C  
HETATM   19  O   UNL     1     -11.669  11.941  63.440  1.00  0.00    -0.447 OA 
BRANCH  18  20
HETATM   20  C   UNL     1      -9.455  10.966  63.466  1.00  0.00    -0.294 C  
HETATM   21  N   UNL     1      -8.336  10.950  64.301  1.00  0.00    -0.371 N  
HETATM   22  O   UNL     1      -9.627  10.177  62.552  1.00  0.00    -0.291 OA 
HETATM   23  H   UNL     1      -8.074  11.775  64.840  1.00  0.00     0.000 HD 
BRANCH  21  24
HETATM   24  C   UNL     1      -7.551   9.724  64.384  1.00  0.00    -0.135 C  
BRANCH  24  25
HETATM   25  C   UNL     1      -7.995   8.727  65.488  1.00  0.00    -0.102 C  
BRANCH  25  26
HETATM   26  N   UNL     1      -7.451   9.042  66.903  1.00  0.00    -0.090 N  
BRANCH  26  27
HETATM   27  C   UNL     1      -7.154   7.722  67.675  1.00  0.00    -0.083 C  
HETATM   28  C   UNL     1      -5.862   7.718  68.480  1.00  0.00    -0.031 C  
ENDBRANCH  26  27
BRANCH  26  29
HETATM   29  C   UNL     1      -6.169   9.903  66.736  1.00  0.00    -0.064 C  
HETATM   30  C   UNL     1      -6.214  11.272  67.391  1.00  0.00    -0.071 C  
ENDBRANCH  26  29
BRANCH  26  31
HETATM   31  C   UNL     1      -8.524   9.839  67.734  1.00  0.00    -0.121 C  
BRANCH  31  32
HETATM   32  C   UNL     1      -9.218   9.151  68.898  1.00  0.00    -0.139 A  
HETATM   33  C   UNL     1      -8.845   9.442  70.227  1.00  0.00    -0.269 A  
HETATM   34  C   UNL     1      -9.374   8.728  71.307  1.00  0.00    -0.319 A  
HETATM   35  C   UNL     1     -10.274   7.694  71.084  1.00  0.00    -0.207 A  
HETATM   36  C   UNL     1     -10.674   7.399  69.785  1.00  0.00    -0.252 A  
HETATM   37  C   UNL     1     -10.162   8.122  68.703  1.00  0.00    -0.207 A  
HETATM   38 CL   UNL     1     -10.721   7.670  67.133  1.00  0.00    -0.401 Cl 
ENDBRANCH  31  32
ENDBRANCH  26  31
ENDBRANCH  25  26
ENDBRANCH  24  25
ENDBRANCH  21  24
ENDBRANCH  18  20
ENDBRANCH  15  16
ENDBRANCH  14  15
ENDBRANCH   3  14
ENDBRANCH   2   3
TORSDOF 15
ENDMDL
MODEL       40
REMARK 921   NORMALIZED FREE ENERGY PREDICTED BY IDOCK:   -5.50 KCAL/MOL
REMARK 922        TOTAL FREE ENERGY PREDICTED BY IDOCK:  -12.99 KCAL/MOL
REMARK 923 INTER-LIGAND FREE ENERGY PREDICTED BY IDOCK:  -10.90 KCAL/MOL
REMARK 924 INTRA-LIGAND FREE ENERGY PREDICTED BY IDOCK:   -2.09 KCAL/MOL
REMARK 927      BINDING AFFINITY PREDICTED BY RF-SCORE:    0.00 PKD
ROOT
HETATM    1  C   UNL     1     -11.118   5.996  69.631  1.00  0.00    -0.474 C  
HETATM    2  C   UNL     1     -10.680   7.092  68.671  1.00  0.00    -0.163 C  
ENDROOT
BRANCH   2   3
HETATM    3  N   UNL     1      -9.295   7.743  68.976  1.00  0.00    -0.150 N  
BRANCH   3   4
HETATM    4  C   UNL     1      -8.254   6.641  69.329  1.00  0.00    -0.124 C  
HETATM    5  C   UNL     1      -7.689   5.874  68.161  1.00  0.00    -0.100 C  
ENDBRANCH   3   4
BRANCH   3   6
HETATM    6  C   UNL     1      -9.382   8.623  70.245  1.00  0.00    -0.167 C  
BRANCH   6   7
HETATM    7  C   UNL     1     -10.575   9.527  70.541  1.00  0.00    -0.358 A  
HETATM    8  C   UNL     1     -12.584   9.928  71.899  1.00  0.00    -0.471 A  
HETATM    9  C   UNL     1     -10.940  10.662  69.798  1.00  0.00    -0.340 A  
HETATM   10  C   UNL     1     -11.408   9.213  71.635  1.00  0.00    -0.376 A  
HETATM   11  C   UNL     1     -12.077  11.416  70.093  1.00  0.00    -0.439 A  
HETATM   12 CL   UNL     1     -11.026   7.893  72.687  1.00  0.00    -0.409 Cl 
HETATM   13  C   UNL     1     -12.915  11.035  71.127  1.00  0.00    -0.421 A  
ENDBRANCH   6   7
ENDBRANCH   3   6
BRANCH   3  14
HETATM   14  C   UNL     1      -8.919   8.580  67.687  1.00  0.00    -0.135 C  
BRANCH  14  15
HETATM   15  C   UNL     1     -10.027   8.727  66.588  1.00  0.00    -0.285 C  
BRANCH  15  16
HETATM   16  N   UNL     1     -10.336  10.064  66.103  1.00  0.00    -0.196 N  
HETATM   17  H   UNL     1     -10.837  10.723  66.698  1.00  0.00     0.000 HD 
HETATM   18  C   UNL     1      -9.942  10.439  64.822  1.00  0.00    -0.339 C  
HETATM   19  O   UNL     1      -9.180   9.785  64.130  1.00  0.00    -0.256 OA 
BRANCH  18  20
HETATM   20  C   UNL     1     -10.450  11.830  64.366  1.00  0.00    -0.311 C  
HETATM   21  N   UNL     1     -10.721  12.736  65.393  1.00  0.00    -0.278 N  
HETATM   22  O   UNL     1     -10.585  12.091  63.183  1.00  0.00    -0.383 OA 
HETATM   23  H   UNL     1     -10.890  12.412  66.346  1.00  0.00     0.000 HD 
BRANCH  21  24
HETATM   24  C   UNL     1     -10.756  14.158  65.072  1.00  0.00    -0.416 C  
BRANCH  24  25
HETATM   25  C   UNL     1     -11.264  15.082  66.211  1.00  0.00    -0.309 C  
BRANCH  25  26
HETATM   26  N   UNL     1     -10.163  15.597  67.169  1.00  0.00    -0.264 N  
BRANCH  26  27
HETATM   27  C   UNL     1     -10.079  14.692  68.434  1.00  0.00    -0.237 C  
HETATM   28  C   UNL     1     -11.010  15.081  69.574  1.00  0.00    -0.281 C  
ENDBRANCH  26  27
BRANCH  26  29
HETATM   29  C   UNL     1      -8.820  15.604  66.387  1.00  0.00    -0.330 C  
HETATM   30  C   UNL     1      -7.678  14.852  67.046  1.00  0.00    -0.079 C  
ENDBRANCH  26  29
BRANCH  26  31
HETATM   31  C   UNL     1     -10.503  17.054  67.658  1.00  0.00    -0.343 C  
BRANCH  31  32
HETATM   32  C   UNL     1      -9.402  18.102  67.680  1.00  0.00    -0.260 A  
HETATM   33  C   UNL     1      -8.352  18.017  68.618  1.00  0.00    -0.282 A  
HETATM   34  C   UNL     1      -7.402  19.036  68.745  1.00  0.00    -0.366 A  
HETATM   35  C   UNL     1      -7.490  20.172  67.952  1.00  0.00    -0.316 A  
HETATM   36  C   UNL     1      -8.505  20.274  67.006  1.00  0.00    -0.388 A  
HETATM   37  C   UNL     1      -9.446  19.248  66.862  1.00  0.00    -0.325 A  
HETATM   38 CL   UNL     1     -10.665  19.478  65.661  1.00  0.00    -0.526 Cl 
ENDBRANCH  31  32
ENDBRANCH  26  31
ENDBRANCH  25  26
ENDBRANCH  24  25
ENDBRANCH  21  24
ENDBRANCH  18  20
ENDBRANCH  15  16
ENDBRANCH  14  15
ENDBRANCH   3  14
ENDBRANCH   2   3
TORSDOF 15
ENDMDL
MODEL       41
REMARK 921   NORMALIZED FREE ENERGY PREDICTED BY IDOCK:   -5.50 KCAL/MOL
REMARK 922        TOTAL FREE ENERGY PREDICTED BY IDOCK:  -12.99 KCAL/MOL
REMARK 923 INTER-LIGAND FREE ENERGY PREDICTED BY IDOCK:  -10.75 KCAL/MOL
REMARK 924 INTRA-LIGAND FREE ENERGY PREDICTED BY IDOCK:   -2.23 KCAL/MOL
REMARK 927      BINDING AFFINITY PREDICTED BY RF-SCORE:    0.00 PKD
ROOT
HETATM    1  C   UNL     1     -10.107  17.827  68.765  1.00  0.00    -0.381 C  
HETATM    2  C   UNL     1     -10.449  17.123  67.460  1.00  0.00    -0.348 C  
ENDROOT
BRANCH   2   3
HETATM    3  N   UNL     1     -10.378  15.565  67.495  1.00  0.00    -0.265 N  
BRANCH   3   4
HETATM    4  C   UNL     1      -9.976  15.019  66.094  1.00  0.00    -0.291 C  
HETATM    5  C   UNL     1     -11.071  14.999  65.058  1.00  0.00    -0.421 C  
ENDBRANCH   3   4
BRANCH   3   6
HETATM    6  C   UNL     1     -11.780  14.968  67.762  1.00  0.00    -0.274 C  
BRANCH   6   7
HETATM    7  C   UNL     1     -12.008  13.788  68.702  1.00  0.00    -0.401 A  
HETATM    8  C   UNL     1     -12.517  13.024  70.982  1.00  0.00    -0.385 A  
HETATM    9  C   UNL     1     -11.845  12.435  68.364  1.00  0.00    -0.361 A  
HETATM   10  C   UNL     1     -12.400  14.047  70.032  1.00  0.00    -0.337 A  
HETATM   11  C   UNL     1     -12.019  11.405  69.290  1.00  0.00    -0.400 A  
HETATM   12 CL   UNL     1     -12.722  15.664  70.559  1.00  0.00    -0.457 Cl 
HETATM   13  C   UNL     1     -12.329  11.699  70.606  1.00  0.00    -0.437 A  
ENDBRANCH   6   7
ENDBRANCH   3   6
BRANCH   3  14
HETATM   14  C   UNL     1      -9.342  15.205  68.636  1.00  0.00    -0.199 C  
BRANCH  14  15
HETATM   15  C   UNL     1      -8.173  14.233  68.251  1.00  0.00    -0.148 C  
BRANCH  15  16
HETATM   16  N   UNL     1      -8.229  12.867  68.750  1.00  0.00    -0.351 N  
HETATM   17  H   UNL     1      -8.174  12.684  69.752  1.00  0.00     0.000 HD 
HETATM   18  C   UNL     1      -8.358  11.811  67.852  1.00  0.00    -0.149 C  
HETATM   19  O   UNL     1      -8.621  11.958  66.670  1.00  0.00    -0.187 OA 
BRANCH  18  20
HETATM   20  C   UNL     1      -8.261  10.402  68.487  1.00  0.00    -0.119 C  
HETATM   21  N   UNL     1      -8.443  10.353  69.871  1.00  0.00    -0.371 N  
HETATM   22  O   UNL     1      -8.050   9.417  67.799  1.00  0.00    -0.106 OA 
HETATM   23  H   UNL     1      -8.316  11.187  70.445  1.00  0.00     0.000 HD 
BRANCH  21  24
HETATM   24  C   UNL     1      -8.818   9.081  70.476  1.00  0.00    -0.208 C  
BRANCH  24  25
HETATM   25  C   UNL     1     -10.315   8.694  70.330  1.00  0.00    -0.200 C  
BRANCH  25  26
HETATM   26  N   UNL     1     -10.839   7.712  71.406  1.00  0.00    -0.224 N  
BRANCH  26  27
HETATM   27  C   UNL     1      -9.672   7.238  72.321  1.00  0.00    -0.149 C  
HETATM   28  C   UNL     1     -10.041   7.016  73.782  1.00  0.00    -0.390 C  
ENDBRANCH  26  27
BRANCH  26  29
HETATM   29  C   UNL     1     -11.938   8.447  72.223  1.00  0.00    -0.389 C  
HETATM   30  C   UNL     1     -13.356   8.280  71.705  1.00  0.00    -0.375 C  
ENDBRANCH  26  29
BRANCH  26  31
HETATM   31  C   UNL     1     -11.449   6.431  70.724  1.00  0.00    -0.353 C  
BRANCH  31  32
HETATM   32  C   UNL     1     -10.798   5.884  69.465  1.00  0.00    -0.442 A  
HETATM   33  C   UNL     1     -11.085   6.453  68.206  1.00  0.00    -0.359 A  
HETATM   34  C   UNL     1     -10.603   5.886  67.021  1.00  0.00    -0.376 A  
HETATM   35  C   UNL     1      -9.840   4.727  67.065  1.00  0.00    -0.224 A  
HETATM   36  C   UNL     1      -9.527   4.155  68.294  1.00  0.00    -0.213 A  
HETATM   37  C   UNL     1      -9.990   4.730  69.482  1.00  0.00    -0.216 A  
HETATM   38 CL   UNL     1      -9.547   3.937  70.951  1.00  0.00    -0.247 Cl 
ENDBRANCH  31  32
ENDBRANCH  26  31
ENDBRANCH  25  26
ENDBRANCH  24  25
ENDBRANCH  21  24
ENDBRANCH  18  20
ENDBRANCH  15  16
ENDBRANCH  14  15
ENDBRANCH   3  14
ENDBRANCH   2   3
TORSDOF 15
ENDMDL
MODEL       42
REMARK 921   NORMALIZED FREE ENERGY PREDICTED BY IDOCK:   -5.50 KCAL/MOL
REMARK 922        TOTAL FREE ENERGY PREDICTED BY IDOCK:  -12.98 KCAL/MOL
REMARK 923 INTER-LIGAND FREE ENERGY PREDICTED BY IDOCK:  -10.79 KCAL/MOL
REMARK 924 INTRA-LIGAND FREE ENERGY PREDICTED BY IDOCK:   -2.19 KCAL/MOL
REMARK 927      BINDING AFFINITY PREDICTED BY RF-SCORE:    0.00 PKD
ROOT
HETATM    1  C   UNL     1      -7.796   9.989  69.946  1.00  0.00    -0.185 C  
HETATM    2  C   UNL     1      -8.311   8.590  69.643  1.00  0.00    -0.121 C  
ENDROOT
BRANCH   2   3
HETATM    3  N   UNL     1      -9.823   8.348  69.939  1.00  0.00    -0.184 N  
BRANCH   3   4
HETATM    4  C   UNL     1     -10.017   6.960  70.616  1.00  0.00    -0.186 C  
HETATM    5  C   UNL     1     -11.274   6.216  70.240  1.00  0.00    -0.439 C  
ENDBRANCH   3   4
BRANCH   3   6
HETATM    6  C   UNL     1     -10.622   8.255  68.617  1.00  0.00    -0.108 C  
BRANCH   6   7
HETATM    7  C   UNL     1     -10.142   8.897  67.319  1.00  0.00    -0.303 A  
HETATM    8  C   UNL     1      -8.821   8.669  65.259  1.00  0.00    -0.178 A  
HETATM    9  C   UNL     1     -10.373  10.229  66.936  1.00  0.00    -0.298 A  
HETATM   10  C   UNL     1      -9.391   8.118  66.414  1.00  0.00    -0.210 A  
HETATM   11  C   UNL     1      -9.859  10.768  65.755  1.00  0.00    -0.292 A  
HETATM   12 CL   UNL     1      -9.108   6.438  66.719  1.00  0.00    -0.139 Cl 
HETATM   13  C   UNL     1      -9.061   9.997  64.929  1.00  0.00    -0.265 A  
ENDBRANCH   6   7
ENDBRANCH   3   6
BRANCH   3  14
HETATM   14  C   UNL     1     -10.287   9.562  70.841  1.00  0.00    -0.302 C  
BRANCH  14  15
HETATM   15  C   UNL     1     -11.704  10.164  70.545  1.00  0.00    -0.322 C  
BRANCH  15  16
HETATM   16  N   UNL     1     -11.810  11.604  70.362  1.00  0.00    -0.474 N  
HETATM   17  H   UNL     1     -11.286  12.067  69.619  1.00  0.00     0.000 HD 
HETATM   18  C   UNL     1     -12.631  12.347  71.206  1.00  0.00    -0.230 C  
HETATM   19  O   UNL     1     -13.428  11.849  71.984  1.00  0.00    -0.431 OA 
BRANCH  18  20
HETATM   20  C   UNL     1     -12.550  13.881  71.006  1.00  0.00    -0.371 C  
HETATM   21  N   UNL     1     -11.305  14.370  70.610  1.00  0.00    -0.509 N  
HETATM   22  O   UNL     1     -13.530  14.587  71.180  1.00  0.00    -0.365 OA 
HETATM   23  H   UNL     1     -10.456  13.826  70.763  1.00  0.00     0.000 HD 
BRANCH  21  24
HETATM   24  C   UNL     1     -11.245  15.680  69.972  1.00  0.00    -0.325 C  
BRANCH  24  25
HETATM   25  C   UNL     1     -11.645  15.704  68.472  1.00  0.00    -0.370 C  
BRANCH  25  26
HETATM   26  N   UNL     1     -10.495  15.374  67.489  1.00  0.00    -0.269 N  
BRANCH  26  27
HETATM   27  C   UNL     1      -9.140  15.290  68.250  1.00  0.00    -0.181 C  
HETATM   28  C   UNL     1      -8.378  13.982  68.079  1.00  0.00    -0.163 C  
ENDBRANCH  26  27
BRANCH  26  29
HETATM   29  C   UNL     1     -10.840  14.028  66.793  1.00  0.00    -0.294 C  
HETATM   30  C   UNL     1     -10.919  14.080  65.278  1.00  0.00    -0.335 C  
ENDBRANCH  26  29
BRANCH  26  31
HETATM   31  C   UNL     1     -10.357  16.512  66.410  1.00  0.00    -0.311 C  
BRANCH  31  32
HETATM   32  C   UNL     1      -9.817  17.868  66.832  1.00  0.00    -0.321 A  
HETATM   33  C   UNL     1     -10.680  18.846  67.369  1.00  0.00    -0.519 A  
HETATM   34  C   UNL     1     -10.234  20.144  67.641  1.00  0.00    -0.516 A  
HETATM   35  C   UNL     1      -8.921  20.500  67.366  1.00  0.00    -0.420 A  
HETATM   36  C   UNL     1      -8.043  19.550  66.854  1.00  0.00    -0.306 A  
HETATM   37  C   UNL     1      -8.479  18.246  66.598  1.00  0.00    -0.265 A  
HETATM   38 CL   UNL     1      -7.310  17.147  65.959  1.00  0.00    -0.278 Cl 
ENDBRANCH  31  32
ENDBRANCH  26  31
ENDBRANCH  25  26
ENDBRANCH  24  25
ENDBRANCH  21  24
ENDBRANCH  18  20
ENDBRANCH  15  16
ENDBRANCH  14  15
ENDBRANCH   3  14
ENDBRANCH   2   3
TORSDOF 15
ENDMDL
MODEL       43
REMARK 921   NORMALIZED FREE ENERGY PREDICTED BY IDOCK:   -5.47 KCAL/MOL
REMARK 922        TOTAL FREE ENERGY PREDICTED BY IDOCK:  -12.93 KCAL/MOL
REMARK 923 INTER-LIGAND FREE ENERGY PREDICTED BY IDOCK:  -10.77 KCAL/MOL
REMARK 924 INTRA-LIGAND FREE ENERGY PREDICTED BY IDOCK:   -2.17 KCAL/MOL
REMARK 927      BINDING AFFINITY PREDICTED BY RF-SCORE:    0.00 PKD
ROOT
HETATM    1  C   UNL     1      -8.499  14.229  68.487  1.00  0.00    -0.164 C  
HETATM    2  C   UNL     1      -9.639  13.620  67.683  1.00  0.00    -0.221 C  
ENDROOT
BRANCH   2   3
HETATM    3  N   UNL     1     -10.986  14.405  67.719  1.00  0.00    -0.268 N  
BRANCH   3   4
HETATM    4  C   UNL     1     -10.789  15.829  67.124  1.00  0.00    -0.289 C  
HETATM    5  C   UNL     1     -10.876  16.969  68.108  1.00  0.00    -0.338 C  
ENDBRANCH   3   4
BRANCH   3   6
HETATM    6  C   UNL     1     -11.429  14.647  69.181  1.00  0.00    -0.294 C  
BRANCH   6   7
HETATM    7  C   UNL     1     -12.023  13.547  70.055  1.00  0.00    -0.410 A  
HETATM    8  C   UNL     1     -13.419  12.967  71.993  1.00  0.00    -0.584 A  
HETATM    9  C   UNL     1     -11.741  12.176  69.941  1.00  0.00    -0.361 A  
HETATM   10  C   UNL     1     -12.923  13.907  71.081  1.00  0.00    -0.318 A  
HETATM   11  C   UNL     1     -12.280  11.225  70.810  1.00  0.00    -0.479 A  
HETATM   12 CL   UNL     1     -13.427  15.551  71.276  1.00  0.00    -0.579 Cl 
HETATM   13  C   UNL     1     -13.098  11.622  71.853  1.00  0.00    -0.490 A  
ENDBRANCH   6   7
ENDBRANCH   3   6
BRANCH   3  14
HETATM   14  C   UNL     1     -12.022  13.521  66.914  1.00  0.00    -0.399 C  
BRANCH  14  15
HETATM   15  C   UNL     1     -11.597  13.062  65.476  1.00  0.00    -0.347 C  
BRANCH  15  16
HETATM   16  N   UNL     1     -10.890  11.796  65.344  1.00  0.00    -0.290 N  
HETATM   17  H   UNL     1     -10.961  11.090  66.076  1.00  0.00     0.000 HD 
HETATM   18  C   UNL     1     -10.118  11.555  64.211  1.00  0.00    -0.291 C  
HETATM   19  O   UNL     1     -10.138  12.261  63.217  1.00  0.00    -0.388 OA 
BRANCH  18  20
HETATM   20  C   UNL     1      -9.302  10.239  64.250  1.00  0.00    -0.277 C  
HETATM   21  N   UNL     1      -8.696   9.944  65.472  1.00  0.00    -0.144 N  
HETATM   22  O   UNL     1      -9.222   9.523  63.266  1.00  0.00    -0.205 OA 
HETATM   23  H   UNL     1      -8.525  10.676  66.162  1.00  0.00     0.000 HD 
BRANCH  21  24
HETATM   24  C   UNL     1      -8.312   8.563  65.740  1.00  0.00    -0.140 C  
BRANCH  24  25
HETATM   25  C   UNL     1      -8.229   8.178  67.242  1.00  0.00    -0.121 C  
BRANCH  25  26
HETATM   26  N   UNL     1      -9.599   8.012  67.945  1.00  0.00    -0.152 N  
BRANCH  26  27
HETATM   27  C   UNL     1     -10.055   9.364  68.568  1.00  0.00    -0.187 C  
HETATM   28  C   UNL     1      -8.930  10.273  69.042  1.00  0.00    -0.175 C  
ENDBRANCH  26  27
BRANCH  26  29
HETATM   29  C   UNL     1     -10.616   7.503  66.886  1.00  0.00    -0.297 C  
HETATM   30  C   UNL     1     -10.807   5.998  66.836  1.00  0.00    -0.396 C  
ENDBRANCH  26  29
BRANCH  26  31
HETATM   31  C   UNL     1      -9.486   6.969  69.118  1.00  0.00    -0.143 C  
BRANCH  31  32
HETATM   32  C   UNL     1     -10.286   7.198  70.390  1.00  0.00    -0.203 A  
HETATM   33  C   UNL     1     -11.678   6.966  70.411  1.00  0.00    -0.377 A  
HETATM   34  C   UNL     1     -12.456   7.294  71.526  1.00  0.00    -0.408 A  
HETATM   35  C   UNL     1     -11.866   7.879  72.639  1.00  0.00    -0.352 A  
HETATM   36  C   UNL     1     -10.492   8.101  72.652  1.00  0.00    -0.401 A  
HETATM   37  C   UNL     1      -9.707   7.757  71.547  1.00  0.00    -0.162 A  
HETATM   38 CL   UNL     1      -8.015   8.079  71.667  1.00  0.00    -0.113 Cl 
ENDBRANCH  31  32
ENDBRANCH  26  31
ENDBRANCH  25  26
ENDBRANCH  24  25
ENDBRANCH  21  24
ENDBRANCH  18  20
ENDBRANCH  15  16
ENDBRANCH  14  15
ENDBRANCH   3  14
ENDBRANCH   2   3
TORSDOF 15
ENDMDL
MODEL       44
REMARK 921   NORMALIZED FREE ENERGY PREDICTED BY IDOCK:   -5.47 KCAL/MOL
REMARK 922        TOTAL FREE ENERGY PREDICTED BY IDOCK:  -12.93 KCAL/MOL
REMARK 923 INTER-LIGAND FREE ENERGY PREDICTED BY IDOCK:   -9.92 KCAL/MOL
REMARK 924 INTRA-LIGAND FREE ENERGY PREDICTED BY IDOCK:   -3.01 KCAL/MOL
REMARK 927      BINDING AFFINITY PREDICTED BY RF-SCORE:    0.00 PKD
ROOT
HETATM    1  C   UNL     1      -9.162   8.613  67.247  1.00  0.00    -0.167 C  
HETATM    2  C   UNL     1      -8.494   7.998  68.469  1.00  0.00    -0.128 C  
ENDROOT
BRANCH   2   3
HETATM    3  N   UNL     1      -9.385   7.895  69.745  1.00  0.00    -0.153 N  
BRANCH   3   4
HETATM    4  C   UNL     1      -9.493   6.410  70.200  1.00  0.00    -0.160 C  
HETATM    5  C   UNL     1     -10.531   5.580  69.488  1.00  0.00    -0.368 C  
ENDBRANCH   3   4
BRANCH   3   6
HETATM    6  C   UNL     1     -10.838   8.314  69.423  1.00  0.00    -0.084 C  
BRANCH   6   7
HETATM    7  C   UNL     1     -11.577   9.394  70.208  1.00  0.00    -0.181 A  
HETATM    8  C   UNL     1     -13.234   9.927  71.942  1.00  0.00    -0.558 A  
HETATM    9  C   UNL     1     -11.490  10.776  69.971  1.00  0.00    -0.412 A  
HETATM   10  C   UNL     1     -12.438   9.002  71.255  1.00  0.00    -0.289 A  
HETATM   11  C   UNL     1     -12.236  11.708  70.694  1.00  0.00    -0.461 A  
HETATM   12 CL   UNL     1     -12.572   7.338  71.712  1.00  0.00    -0.372 Cl 
HETATM   13  C   UNL     1     -13.128  11.283  71.662  1.00  0.00    -0.513 A  
ENDBRANCH   6   7
ENDBRANCH   3   6
BRANCH   3  14
HETATM   14  C   UNL     1      -8.709   8.838  70.821  1.00  0.00    -0.189 C  
BRANCH  14  15
HETATM   15  C   UNL     1      -7.370   9.542  70.406  1.00  0.00    -0.141 C  
BRANCH  15  16
HETATM   16  N   UNL     1      -7.437  10.923  69.952  1.00  0.00    -0.349 N  
HETATM   17  H   UNL     1      -7.950  11.617  70.495  1.00  0.00     0.000 HD 
HETATM   18  C   UNL     1      -6.795  11.292  68.773  1.00  0.00    -0.082 C  
HETATM   19  O   UNL     1      -6.011  10.573  68.178  1.00  0.00    -0.044 OA 
BRANCH  18  20
HETATM   20  C   UNL     1      -7.056  12.750  68.320  1.00  0.00    -0.104 C  
HETATM   21  N   UNL     1      -8.284  13.289  68.709  1.00  0.00    -0.349 N  
HETATM   22  O   UNL     1      -6.222  13.365  67.677  1.00  0.00    -0.153 OA 
HETATM   23  H   UNL     1      -9.062  12.683  68.969  1.00  0.00     0.000 HD 
BRANCH  21  24
HETATM   24  C   UNL     1      -8.427  14.740  68.734  1.00  0.00    -0.170 C  
BRANCH  24  25
HETATM   25  C   UNL     1      -9.338  15.335  67.626  1.00  0.00    -0.199 C  
BRANCH  25  26
HETATM   26  N   UNL     1     -10.656  15.964  68.138  1.00  0.00    -0.270 N  
BRANCH  26  27
HETATM   27  C   UNL     1     -10.786  15.769  69.678  1.00  0.00    -0.300 C  
HETATM   28  C   UNL     1     -12.174  15.378  70.168  1.00  0.00    -0.407 C  
ENDBRANCH  26  27
BRANCH  26  29
HETATM   29  C   UNL     1     -10.641  17.470  67.757  1.00  0.00    -0.375 C  
HETATM   30  C   UNL     1      -9.706  17.845  66.621  1.00  0.00    -0.319 C  
ENDBRANCH  26  29
BRANCH  26  31
HETATM   31  C   UNL     1     -11.893  15.257  67.470  1.00  0.00    -0.025 C  
BRANCH  31  32
HETATM   32  C   UNL     1     -11.658  14.078  66.541  1.00  0.00    -0.389 A  
HETATM   33  C   UNL     1     -11.501  12.777  67.063  1.00  0.00    -0.397 A  
HETATM   34  C   UNL     1     -11.153  11.698  66.243  1.00  0.00    -0.345 A  
HETATM   35  C   UNL     1     -10.935  11.897  64.887  1.00  0.00    -0.367 A  
HETATM   36  C   UNL     1     -11.101  13.167  64.342  1.00  0.00    -0.407 A  
HETATM   37  C   UNL     1     -11.468  14.245  65.155  1.00  0.00    -0.351 A  
HETATM   38 CL   UNL     1     -11.643  15.777  64.378  1.00  0.00    -0.338 Cl 
ENDBRANCH  31  32
ENDBRANCH  26  31
ENDBRANCH  25  26
ENDBRANCH  24  25
ENDBRANCH  21  24
ENDBRANCH  18  20
ENDBRANCH  15  16
ENDBRANCH  14  15
ENDBRANCH   3  14
ENDBRANCH   2   3
TORSDOF 15
ENDMDL
MODEL       45
REMARK 921   NORMALIZED FREE ENERGY PREDICTED BY IDOCK:   -5.46 KCAL/MOL
REMARK 922        TOTAL FREE ENERGY PREDICTED BY IDOCK:  -12.91 KCAL/MOL
REMARK 923 INTER-LIGAND FREE ENERGY PREDICTED BY IDOCK:  -10.05 KCAL/MOL
REMARK 924 INTRA-LIGAND FREE ENERGY PREDICTED BY IDOCK:   -2.86 KCAL/MOL
REMARK 927      BINDING AFFINITY PREDICTED BY RF-SCORE:    0.00 PKD
ROOT
HETATM    1  C   UNL     1      -7.969   8.281  71.136  1.00  0.00    -0.112 C  
HETATM    2  C   UNL     1      -8.226   6.783  71.189  1.00  0.00    -0.119 C  
ENDROOT
BRANCH   2   3
HETATM    3  N   UNL     1      -9.378   6.328  72.138  1.00  0.00    -0.151 N  
BRANCH   3   4
HETATM    4  C   UNL     1      -8.843   5.285  73.162  1.00  0.00    -0.119 C  
HETATM    5  C   UNL     1      -7.423   4.825  72.950  1.00  0.00    -0.090 C  
ENDBRANCH   3   4
BRANCH   3   6
HETATM    6  C   UNL     1     -10.466   5.572  71.340  1.00  0.00    -0.240 C  
BRANCH   6   7
HETATM    7  C   UNL     1     -10.472   5.505  69.816  1.00  0.00    -0.389 A  
HETATM    8  C   UNL     1      -9.659   4.379  67.788  1.00  0.00    -0.211 A  
HETATM    9  C   UNL     1     -11.093   6.432  68.963  1.00  0.00    -0.424 A  
HETATM   10  C   UNL     1      -9.793   4.443  69.181  1.00  0.00    -0.128 A  
HETATM   11  C   UNL     1     -11.015   6.339  67.572  1.00  0.00    -0.444 A  
HETATM   12 CL   UNL     1      -9.058   3.183  70.112  1.00  0.00    -0.175 Cl 
HETATM   13  C   UNL     1     -10.276   5.329  66.983  1.00  0.00    -0.274 A  
ENDBRANCH   6   7
ENDBRANCH   3   6
BRANCH   3  14
HETATM   14  C   UNL     1      -9.931   7.649  72.810  1.00  0.00    -0.241 C  
BRANCH  14  15
HETATM   15  C   UNL     1     -11.345   8.141  72.348  1.00  0.00    -0.391 C  
BRANCH  15  16
HETATM   16  N   UNL     1     -11.437   9.436  71.689  1.00  0.00    -0.389 N  
HETATM   17  H   UNL     1     -10.628   9.822  71.202  1.00  0.00     0.000 HD 
HETATM   18  C   UNL     1     -12.635  10.144  71.726  1.00  0.00    -0.403 C  
HETATM   19  O   UNL     1     -13.688   9.669  72.116  1.00  0.00    -0.403 OA 
BRANCH  18  20
HETATM   20  C   UNL     1     -12.568  11.566  71.116  1.00  0.00    -0.359 C  
HETATM   21  N   UNL     1     -11.609  11.747  70.117  1.00  0.00    -0.508 N  
HETATM   22  O   UNL     1     -13.322  12.446  71.495  1.00  0.00    -0.276 OA 
HETATM   23  H   UNL     1     -10.815  11.113  70.034  1.00  0.00     0.000 HD 
BRANCH  21  24
HETATM   24  C   UNL     1     -11.772  12.865  69.195  1.00  0.00    -0.324 C  
BRANCH  24  25
HETATM   25  C   UNL     1     -12.010  12.471  67.712  1.00  0.00    -0.223 C  
BRANCH  25  26
HETATM   26  N   UNL     1     -11.541  13.524  66.678  1.00  0.00    -0.346 N  
BRANCH  26  27
HETATM   27  C   UNL     1     -12.635  13.740  65.591  1.00  0.00    -0.509 C  
HETATM   28  C   UNL     1     -12.659  12.701  64.478  1.00  0.00    -0.491 C  
ENDBRANCH  26  27
BRANCH  26  29
HETATM   29  C   UNL     1     -11.237  14.839  67.447  1.00  0.00    -0.339 C  
HETATM   30  C   UNL     1     -10.573  15.933  66.629  1.00  0.00    -0.305 C  
ENDBRANCH  26  29
BRANCH  26  31
HETATM   31  C   UNL     1     -10.242  13.024  65.943  1.00  0.00    -0.292 C  
BRANCH  31  32
HETATM   32  C   UNL     1      -9.595  11.723  66.389  1.00  0.00    -0.234 A  
HETATM   33  C   UNL     1      -9.962  10.499  65.790  1.00  0.00    -0.318 A  
HETATM   34  C   UNL     1      -9.480   9.277  66.270  1.00  0.00    -0.284 A  
HETATM   35  C   UNL     1      -8.636   9.247  67.372  1.00  0.00    -0.122 A  
HETATM   36  C   UNL     1      -8.242  10.440  67.970  1.00  0.00    -0.114 A  
HETATM   37  C   UNL     1      -8.707  11.666  67.481  1.00  0.00    -0.156 A  
HETATM   38 CL   UNL     1      -8.160  13.085  68.300  1.00  0.00    -0.149 Cl 
ENDBRANCH  31  32
ENDBRANCH  26  31
ENDBRANCH  25  26
ENDBRANCH  24  25
ENDBRANCH  21  24
ENDBRANCH  18  20
ENDBRANCH  15  16
ENDBRANCH  14  15
ENDBRANCH   3  14
ENDBRANCH   2   3
TORSDOF 15
ENDMDL
MODEL       46
REMARK 921   NORMALIZED FREE ENERGY PREDICTED BY IDOCK:   -5.46 KCAL/MOL
REMARK 922        TOTAL FREE ENERGY PREDICTED BY IDOCK:  -12.90 KCAL/MOL
REMARK 923 INTER-LIGAND FREE ENERGY PREDICTED BY IDOCK:   -9.96 KCAL/MOL
REMARK 924 INTRA-LIGAND FREE ENERGY PREDICTED BY IDOCK:   -2.95 KCAL/MOL
REMARK 927      BINDING AFFINITY PREDICTED BY RF-SCORE:    0.00 PKD
ROOT
HETATM    1  C   UNL     1     -10.682   7.177  73.181  1.00  0.00    -0.385 C  
HETATM    2  C   UNL     1      -9.804   6.859  71.979  1.00  0.00    -0.162 C  
ENDROOT
BRANCH   2   3
HETATM    3  N   UNL     1      -9.890   7.869  70.793  1.00  0.00    -0.180 N  
BRANCH   3   4
HETATM    4  C   UNL     1     -10.729   7.258  69.633  1.00  0.00    -0.236 C  
HETATM    5  C   UNL     1     -10.747   5.752  69.558  1.00  0.00    -0.408 C  
ENDBRANCH   3   4
BRANCH   3   6
HETATM    6  C   UNL     1      -8.488   8.103  70.183  1.00  0.00    -0.127 C  
BRANCH   6   7
HETATM    7  C   UNL     1      -8.220   9.162  69.118  1.00  0.00    -0.117 A  
HETATM    8  C   UNL     1      -7.508   9.653  66.818  1.00  0.00    -0.094 A  
HETATM    9  C   UNL     1      -8.267  10.551  69.321  1.00  0.00    -0.151 A  
HETATM   10  C   UNL     1      -7.878   8.742  67.815  1.00  0.00    -0.102 A  
HETATM   11  C   UNL     1      -7.958  11.466  68.314  1.00  0.00    -0.136 A  
HETATM   12 CL   UNL     1      -7.869   7.061  67.404  1.00  0.00    -0.110 Cl 
HETATM   13  C   UNL     1      -7.553  11.019  67.069  1.00  0.00    -0.127 A  
ENDBRANCH   6   7
ENDBRANCH   3   6
BRANCH   3  14
HETATM   14  C   UNL     1     -10.514   9.191  71.396  1.00  0.00    -0.344 C  
BRANCH  14  15
HETATM   15  C   UNL     1     -11.820   9.733  70.718  1.00  0.00    -0.319 C  
BRANCH  15  16
HETATM   16  N   UNL     1     -12.037  11.172  70.707  1.00  0.00    -0.361 N  
HETATM   17  H   UNL     1     -11.518  11.764  70.059  1.00  0.00     0.000 HD 
HETATM   18  C   UNL     1     -12.958  11.736  71.585  1.00  0.00    -0.362 C  
HETATM   19  O   UNL     1     -13.747  11.083  72.247  1.00  0.00    -0.133 OA 
BRANCH  18  20
HETATM   20  C   UNL     1     -12.997  13.285  71.580  1.00  0.00    -0.349 C  
HETATM   21  N   UNL     1     -11.936  13.910  70.923  1.00  0.00    -0.488 N  
HETATM   22  O   UNL     1     -13.912  13.890  72.113  1.00  0.00    -0.472 OA 
HETATM   23  H   UNL     1     -11.059  13.416  70.758  1.00  0.00     0.000 HD 
BRANCH  21  24
HETATM   24  C   UNL     1     -12.112  15.287  70.476  1.00  0.00    -0.354 C  
BRANCH  24  25
HETATM   25  C   UNL     1     -10.828  15.981  69.947  1.00  0.00    -0.351 C  
BRANCH  25  26
HETATM   26  N   UNL     1     -10.642  15.916  68.411  1.00  0.00    -0.255 N  
BRANCH  26  27
HETATM   27  C   UNL     1     -10.620  17.351  67.807  1.00  0.00    -0.371 C  
HETATM   28  C   UNL     1     -10.041  18.429  68.714  1.00  0.00    -0.393 C  
ENDBRANCH  26  27
BRANCH  26  29
HETATM   29  C   UNL     1      -9.314  15.161  68.127  1.00  0.00    -0.192 C  
HETATM   30  C   UNL     1      -8.326  15.122  69.280  1.00  0.00    -0.211 C  
ENDBRANCH  26  29
BRANCH  26  31
HETATM   31  C   UNL     1     -11.845  15.147  67.749  1.00  0.00    -0.144 C  
BRANCH  31  32
HETATM   32  C   UNL     1     -11.565  13.883  66.953  1.00  0.00    -0.400 A  
HETATM   33  C   UNL     1     -11.658  12.616  67.567  1.00  0.00    -0.418 A  
HETATM   34  C   UNL     1     -11.279  11.449  66.895  1.00  0.00    -0.331 A  
HETATM   35  C   UNL     1     -10.781  11.522  65.601  1.00  0.00    -0.323 A  
HETATM   36  C   UNL     1     -10.697  12.756  64.965  1.00  0.00    -0.321 A  
HETATM   37  C   UNL     1     -11.092  13.924  65.626  1.00  0.00    -0.298 A  
HETATM   38 CL   UNL     1     -10.942  15.402  64.747  1.00  0.00    -0.434 Cl 
ENDBRANCH  31  32
ENDBRANCH  26  31
ENDBRANCH  25  26
ENDBRANCH  24  25
ENDBRANCH  21  24
ENDBRANCH  18  20
ENDBRANCH  15  16
ENDBRANCH  14  15
ENDBRANCH   3  14
ENDBRANCH   2   3
TORSDOF 15
ENDMDL
MODEL       47
REMARK 921   NORMALIZED FREE ENERGY PREDICTED BY IDOCK:   -5.45 KCAL/MOL
REMARK 922        TOTAL FREE ENERGY PREDICTED BY IDOCK:  -12.89 KCAL/MOL
REMARK 923 INTER-LIGAND FREE ENERGY PREDICTED BY IDOCK:   -9.96 KCAL/MOL
REMARK 924 INTRA-LIGAND FREE ENERGY PREDICTED BY IDOCK:   -2.93 KCAL/MOL
REMARK 927      BINDING AFFINITY PREDICTED BY RF-SCORE:    0.00 PKD
ROOT
HETATM    1  C   UNL     1      -8.989   7.908  72.965  1.00  0.00    -0.286 C  
HETATM    2  C   UNL     1      -9.911   8.912  72.290  1.00  0.00    -0.112 C  
ENDROOT
BRANCH   2   3
HETATM    3  N   UNL     1     -10.829   8.338  71.166  1.00  0.00    -0.228 N  
BRANCH   3   4
HETATM    4  C   UNL     1     -11.973   7.491  71.794  1.00  0.00    -0.301 C  
HETATM    5  C   UNL     1     -11.729   6.004  71.860  1.00  0.00    -0.287 C  
ENDBRANCH   3   4
BRANCH   3   6
HETATM    6  C   UNL     1     -10.040   7.342  70.284  1.00  0.00    -0.192 C  
BRANCH   6   7
HETATM    7  C   UNL     1      -9.154   7.789  69.126  1.00  0.00    -0.145 A  
HETATM    8  C   UNL     1      -8.742   7.763  66.703  1.00  0.00    -0.151 A  
HETATM    9  C   UNL     1      -7.937   8.480  69.251  1.00  0.00    -0.111 A  
HETATM   10  C   UNL     1      -9.557   7.486  67.808  1.00  0.00    -0.142 A  
HETATM   11  C   UNL     1      -7.149   8.814  68.149  1.00  0.00    -0.078 A  
HETATM   12 CL   UNL     1     -11.077   6.717  67.504  1.00  0.00    -0.398 Cl 
HETATM   13  C   UNL     1      -7.536   8.433  66.876  1.00  0.00    -0.091 A  
ENDBRANCH   6   7
ENDBRANCH   3   6
BRANCH   3  14
HETATM   14  C   UNL     1     -11.344   9.591  70.348  1.00  0.00    -0.264 C  
BRANCH  14  15
HETATM   15  C   UNL     1     -12.229  10.628  71.122  1.00  0.00    -0.374 C  
BRANCH  15  16
HETATM   16  N   UNL     1     -12.109  12.033  70.761  1.00  0.00    -0.446 N  
HETATM   17  H   UNL     1     -11.553  12.309  69.951  1.00  0.00     0.000 HD 
HETATM   18  C   UNL     1     -12.757  12.998  71.526  1.00  0.00    -0.251 C  
HETATM   19  O   UNL     1     -13.586  12.737  72.381  1.00  0.00    -0.565 OA 
BRANCH  18  20
HETATM   20  C   UNL     1     -12.439  14.462  71.132  1.00  0.00    -0.359 C  
HETATM   21  N   UNL     1     -11.126  14.701  70.720  1.00  0.00    -0.509 N  
HETATM   22  O   UNL     1     -13.300  15.324  71.177  1.00  0.00    -0.448 OA 
HETATM   23  H   UNL     1     -10.374  14.060  70.972  1.00  0.00     0.000 HD 
BRANCH  21  24
HETATM   24  C   UNL     1     -10.857  15.889  69.920  1.00  0.00    -0.333 C  
BRANCH  24  25
HETATM   25  C   UNL     1     -10.940  15.685  68.382  1.00  0.00    -0.308 C  
BRANCH  25  26
HETATM   26  N   UNL     1      -9.742  16.259  67.586  1.00  0.00    -0.232 N  
BRANCH  26  27
HETATM   27  C   UNL     1     -10.240  17.274  66.516  1.00  0.00    -0.325 C  
HETATM   28  C   UNL     1      -9.813  18.718  66.741  1.00  0.00    -0.374 C  
ENDBRANCH  26  27
BRANCH  26  29
HETATM   29  C   UNL     1      -8.778  16.933  68.602  1.00  0.00    -0.267 C  
HETATM   30  C   UNL     1      -7.417  16.275  68.742  1.00  0.00    -0.195 C  
ENDBRANCH  26  29
BRANCH  26  31
HETATM   31  C   UNL     1      -8.992  15.105  66.824  1.00  0.00    -0.264 C  
BRANCH  31  32
HETATM   32  C   UNL     1      -9.601  13.713  66.805  1.00  0.00    -0.277 A  
HETATM   33  C   UNL     1      -9.228  12.755  67.771  1.00  0.00    -0.199 A  
HETATM   34  C   UNL     1      -9.673  11.431  67.698  1.00  0.00    -0.183 A  
HETATM   35  C   UNL     1     -10.486  11.028  66.647  1.00  0.00    -0.307 A  
HETATM   36  C   UNL     1     -10.886  11.957  65.691  1.00  0.00    -0.333 A  
HETATM   37  C   UNL     1     -10.458  13.286  65.771  1.00  0.00    -0.284 A  
HETATM   38 CL   UNL     1     -11.009  14.354  64.530  1.00  0.00    -0.342 Cl 
ENDBRANCH  31  32
ENDBRANCH  26  31
ENDBRANCH  25  26
ENDBRANCH  24  25
ENDBRANCH  21  24
ENDBRANCH  18  20
ENDBRANCH  15  16
ENDBRANCH  14  15
ENDBRANCH   3  14
ENDBRANCH   2   3
TORSDOF 15
ENDMDL
MODEL       48
REMARK 921   NORMALIZED FREE ENERGY PREDICTED BY IDOCK:   -5.44 KCAL/MOL
REMARK 922        TOTAL FREE ENERGY PREDICTED BY IDOCK:  -12.86 KCAL/MOL
REMARK 923 INTER-LIGAND FREE ENERGY PREDICTED BY IDOCK:  -10.22 KCAL/MOL
REMARK 924 INTRA-LIGAND FREE ENERGY PREDICTED BY IDOCK:   -2.64 KCAL/MOL
REMARK 927      BINDING AFFINITY PREDICTED BY RF-SCORE:    0.00 PKD
ROOT
HETATM    1  C   UNL     1     -11.909  15.593  70.461  1.00  0.00    -0.402 C  
HETATM    2  C   UNL     1     -10.513  15.632  69.857  1.00  0.00    -0.320 C  
ENDROOT
BRANCH   2   3
HETATM    3  N   UNL     1     -10.439  16.028  68.350  1.00  0.00    -0.252 N  
BRANCH   3   4
HETATM    4  C   UNL     1     -10.649  17.562  68.191  1.00  0.00    -0.366 C  
HETATM    5  C   UNL     1      -9.472  18.333  67.650  1.00  0.00    -0.275 C  
ENDBRANCH   3   4
BRANCH   3   6
HETATM    6  C   UNL     1     -11.611  15.388  67.568  1.00  0.00    -0.169 C  
BRANCH   6   7
HETATM    7  C   UNL     1     -11.440  14.144  66.702  1.00  0.00    -0.378 A  
HETATM    8  C   UNL     1     -11.260  13.205  64.438  1.00  0.00    -0.403 A  
HETATM    9  C   UNL     1     -11.420  12.821  67.173  1.00  0.00    -0.394 A  
HETATM   10  C   UNL     1     -11.305  14.303  65.306  1.00  0.00    -0.336 A  
HETATM   11  C   UNL     1     -11.313  11.723  66.317  1.00  0.00    -0.350 A  
HETATM   12 CL   UNL     1     -11.226  15.881  64.601  1.00  0.00    -0.434 Cl 
HETATM   13  C   UNL     1     -11.260  11.912  64.948  1.00  0.00    -0.350 A  
ENDBRANCH   6   7
ENDBRANCH   3   6
BRANCH   3  14
HETATM   14  C   UNL     1      -9.028  15.526  67.840  1.00  0.00    -0.173 C  
BRANCH  14  15
HETATM   15  C   UNL     1      -7.967  15.160  68.935  1.00  0.00    -0.178 C  
BRANCH  15  16
HETATM   16  N   UNL     1      -7.639  13.754  69.125  1.00  0.00    -0.324 N  
HETATM   17  H   UNL     1      -8.161  13.192  69.797  1.00  0.00     0.000 HD 
HETATM   18  C   UNL     1      -6.609  13.182  68.384  1.00  0.00    -0.092 C  
HETATM   19  O   UNL     1      -6.075  13.730  67.435  1.00  0.00    -0.344 OA 
BRANCH  18  20
HETATM   20  C   UNL     1      -6.259  11.725  68.775  1.00  0.00    -0.057 C  
HETATM   21  N   UNL     1      -6.918  11.231  69.902  1.00  0.00    -0.349 N  
HETATM   22  O   UNL     1      -5.465  11.073  68.117  1.00  0.00    -0.043 OA 
HETATM   23  H   UNL     1      -7.327  11.865  70.589  1.00  0.00     0.000 HD 
BRANCH  21  24
HETATM   24  C   UNL     1      -7.009   9.786  70.074  1.00  0.00    -0.106 C  
BRANCH  24  25
HETATM   25  C   UNL     1      -8.217   9.110  69.371  1.00  0.00    -0.118 C  
BRANCH  25  26
HETATM   26  N   UNL     1      -9.161   8.325  70.314  1.00  0.00    -0.149 N  
BRANCH  26  27
HETATM   27  C   UNL     1      -8.772   6.817  70.336  1.00  0.00    -0.151 C  
HETATM   28  C   UNL     1      -9.815   5.868  69.762  1.00  0.00    -0.217 C  
ENDBRANCH  26  27
BRANCH  26  29
HETATM   29  C   UNL     1      -9.052   8.960  71.728  1.00  0.00    -0.171 C  
HETATM   30  C   UNL     1      -9.176   7.990  72.889  1.00  0.00    -0.332 C  
ENDBRANCH  26  29
BRANCH  26  31
HETATM   31  C   UNL     1     -10.646   8.418  69.800  1.00  0.00    -0.221 C  
BRANCH  31  32
HETATM   32  C   UNL     1     -11.626   9.317  70.534  1.00  0.00    -0.266 A  
HETATM   33  C   UNL     1     -11.623  10.711  70.312  1.00  0.00    -0.424 A  
HETATM   34  C   UNL     1     -12.423  11.573  71.069  1.00  0.00    -0.458 A  
HETATM   35  C   UNL     1     -13.230  11.066  72.079  1.00  0.00    -0.447 A  
HETATM   36  C   UNL     1     -13.267   9.694  72.307  1.00  0.00    -0.492 A  
HETATM   37  C   UNL     1     -12.483   8.826  71.539  1.00  0.00    -0.326 A  
HETATM   38 CL   UNL     1     -12.601   7.143  71.908  1.00  0.00    -0.351 Cl 
ENDBRANCH  31  32
ENDBRANCH  26  31
ENDBRANCH  25  26
ENDBRANCH  24  25
ENDBRANCH  21  24
ENDBRANCH  18  20
ENDBRANCH  15  16
ENDBRANCH  14  15
ENDBRANCH   3  14
ENDBRANCH   2   3
TORSDOF 15
ENDMDL
MODEL       49
REMARK 921   NORMALIZED FREE ENERGY PREDICTED BY IDOCK:   -5.43 KCAL/MOL
REMARK 922        TOTAL FREE ENERGY PREDICTED BY IDOCK:  -12.85 KCAL/MOL
REMARK 923 INTER-LIGAND FREE ENERGY PREDICTED BY IDOCK:  -10.59 KCAL/MOL
REMARK 924 INTRA-LIGAND FREE ENERGY PREDICTED BY IDOCK:   -2.26 KCAL/MOL
REMARK 927      BINDING AFFINITY PREDICTED BY RF-SCORE:    0.00 PKD
ROOT
HETATM    1  C   UNL     1     -10.063  20.116  66.338  1.00  0.00    -0.569 C  
HETATM    2  C   UNL     1     -10.659  18.716  66.316  1.00  0.00    -0.348 C  
ENDROOT
BRANCH   2   3
HETATM    3  N   UNL     1      -9.924  17.655  67.190  1.00  0.00    -0.304 N  
BRANCH   3   4
HETATM    4  C   UNL     1     -10.131  17.971  68.700  1.00  0.00    -0.394 C  
HETATM    5  C   UNL     1     -10.585  16.817  69.557  1.00  0.00    -0.283 C  
ENDBRANCH   3   4
BRANCH   3   6
HETATM    6  C   UNL     1      -8.395  17.747  66.976  1.00  0.00    -0.226 C  
BRANCH   6   7
HETATM    7  C   UNL     1      -7.444  18.280  68.045  1.00  0.00    -0.247 A  
HETATM    8  C   UNL     1      -6.034  17.785  69.996  1.00  0.00    -0.184 A  
HETATM    9  C   UNL     1      -7.129  19.633  68.253  1.00  0.00    -0.337 A  
HETATM   10  C   UNL     1      -6.827  17.362  68.921  1.00  0.00    -0.241 A  
HETATM   11  C   UNL     1      -6.291  20.056  69.286  1.00  0.00    -0.365 A  
HETATM   12 CL   UNL     1      -7.058  15.659  68.722  1.00  0.00    -0.120 Cl 
HETATM   13  C   UNL     1      -5.764  19.136  70.174  1.00  0.00    -0.271 A  
ENDBRANCH   6   7
ENDBRANCH   3   6
BRANCH   3  14
HETATM   14  C   UNL     1     -10.510  16.252  66.751  1.00  0.00    -0.287 C  
BRANCH  14  15
HETATM   15  C   UNL     1     -10.725  16.023  65.215  1.00  0.00    -0.399 C  
BRANCH  15  16
HETATM   16  N   UNL     1     -10.568  14.671  64.698  1.00  0.00    -0.596 N  
HETATM   17  H   UNL     1      -9.638  14.298  64.510  1.00  0.00     0.000 HD 
HETATM   18  C   UNL     1     -11.696  13.890  64.462  1.00  0.00    -0.410 C  
HETATM   19  O   UNL     1     -12.817  14.190  64.838  1.00  0.00    -0.687 OA 
BRANCH  18  20
HETATM   20  C   UNL     1     -11.412  12.529  63.778  1.00  0.00    -0.469 C  
HETATM   21  N   UNL     1     -10.074  12.132  63.763  1.00  0.00    -0.487 N  
HETATM   22  O   UNL     1     -12.318  11.865  63.304  1.00  0.00    -0.545 OA 
HETATM   23  H   UNL     1      -9.325  12.814  63.885  1.00  0.00     0.000 HD 
BRANCH  21  24
HETATM   24  C   UNL     1      -9.772  10.719  63.570  1.00  0.00    -0.341 C  
BRANCH  24  25
HETATM   25  C   UNL     1      -9.845   9.845  64.852  1.00  0.00    -0.212 C  
BRANCH  25  26
HETATM   26  N   UNL     1      -8.471   9.442  65.441  1.00  0.00    -0.139 N  
BRANCH  26  27
HETATM   27  C   UNL     1      -8.339   7.891  65.495  1.00  0.00    -0.147 C  
HETATM   28  C   UNL     1      -7.883   7.232  64.201  1.00  0.00    -0.118 C  
ENDBRANCH  26  27
BRANCH  26  29
HETATM   29  C   UNL     1      -7.369  10.074  64.548  1.00  0.00    -0.142 C  
HETATM   30  C   UNL     1      -6.067  10.407  65.256  1.00  0.00    -0.130 C  
ENDBRANCH  26  29
BRANCH  26  31
HETATM   31  C   UNL     1      -8.334   9.975  66.916  1.00  0.00    -0.125 C  
BRANCH  31  32
HETATM   32  C   UNL     1      -9.494  10.735  67.538  1.00  0.00    -0.168 A  
HETATM   33  C   UNL     1     -10.559  10.039  68.149  1.00  0.00    -0.268 A  
HETATM   34  C   UNL     1     -11.698  10.707  68.611  1.00  0.00    -0.228 A  
HETATM   35  C   UNL     1     -11.809  12.082  68.455  1.00  0.00    -0.369 A  
HETATM   36  C   UNL     1     -10.766  12.795  67.873  1.00  0.00    -0.235 A  
HETATM   37  C   UNL     1      -9.616  12.134  67.428  1.00  0.00    -0.177 A  
HETATM   38 CL   UNL     1      -8.384  13.114  66.717  1.00  0.00    -0.021 Cl 
ENDBRANCH  31  32
ENDBRANCH  26  31
ENDBRANCH  25  26
ENDBRANCH  24  25
ENDBRANCH  21  24
ENDBRANCH  18  20
ENDBRANCH  15  16
ENDBRANCH  14  15
ENDBRANCH   3  14
ENDBRANCH   2   3
TORSDOF 15
ENDMDL
MODEL       50
REMARK 921   NORMALIZED FREE ENERGY PREDICTED BY IDOCK:   -5.42 KCAL/MOL
REMARK 922        TOTAL FREE ENERGY PREDICTED BY IDOCK:  -12.83 KCAL/MOL
REMARK 923 INTER-LIGAND FREE ENERGY PREDICTED BY IDOCK:  -10.40 KCAL/MOL
REMARK 924 INTRA-LIGAND FREE ENERGY PREDICTED BY IDOCK:   -2.44 KCAL/MOL
REMARK 927      BINDING AFFINITY PREDICTED BY RF-SCORE:    0.00 PKD
ROOT
HETATM    1  C   UNL     1     -10.373  20.120  67.817  1.00  0.00    -0.460 C  
HETATM    2  C   UNL     1     -10.359  19.005  66.782  1.00  0.00    -0.412 C  
ENDROOT
BRANCH   2   3
HETATM    3  N   UNL     1      -9.996  17.586  67.321  1.00  0.00    -0.301 N  
BRANCH   3   4
HETATM    4  C   UNL     1     -10.147  17.551  68.869  1.00  0.00    -0.346 C  
HETATM    5  C   UNL     1     -10.815  16.323  69.435  1.00  0.00    -0.331 C  
ENDBRANCH   3   4
BRANCH   3   6
HETATM    6  C   UNL     1      -8.502  17.280  67.065  1.00  0.00    -0.219 C  
BRANCH   6   7
HETATM    7  C   UNL     1      -7.447  17.351  68.165  1.00  0.00    -0.208 A  
HETATM    8  C   UNL     1      -6.208  16.168  69.927  1.00  0.00    -0.154 A  
HETATM    9  C   UNL     1      -6.797  18.520  68.595  1.00  0.00    -0.279 A  
HETATM   10  C   UNL     1      -7.083  16.163  68.833  1.00  0.00    -0.166 A  
HETATM   11  C   UNL     1      -5.878  18.522  69.645  1.00  0.00    -0.254 A  
HETATM   12 CL   UNL     1      -7.740  14.638  68.345  1.00  0.00    -0.118 Cl 
HETATM   13  C   UNL     1      -5.602  17.352  70.330  1.00  0.00    -0.236 A  
ENDBRANCH   6   7
ENDBRANCH   3   6
BRANCH   3  14
HETATM   14  C   UNL     1     -10.956  16.579  66.567  1.00  0.00     0.071 C  
BRANCH  14  15
HETATM   15  C   UNL     1     -10.442  15.992  65.208  1.00  0.00    -0.358 C  
BRANCH  15  16
HETATM   16  N   UNL     1     -10.419  14.544  65.054  1.00  0.00    -0.418 N  
HETATM   17  H   UNL     1      -9.684  13.993  65.496  1.00  0.00     0.000 HD 
HETATM   18  C   UNL     1     -11.407  13.917  64.301  1.00  0.00    -0.294 C  
HETATM   19  O   UNL     1     -12.416  14.478  63.908  1.00  0.00    -0.814 OA 
BRANCH  18  20
HETATM   20  C   UNL     1     -11.197  12.396  64.091  1.00  0.00    -0.376 C  
HETATM   21  N   UNL     1     -10.138  11.833  64.805  1.00  0.00    -0.257 N  
HETATM   22  O   UNL     1     -11.929  11.759  63.354  1.00  0.00    -0.474 OA 
HETATM   23  H   UNL     1      -9.379  12.414  65.161  1.00  0.00     0.000 HD 
BRANCH  21  24
HETATM   24  C   UNL     1     -10.143  10.392  65.030  1.00  0.00    -0.309 C  
BRANCH  24  25
HETATM   25  C   UNL     1      -9.042   9.868  65.992  1.00  0.00    -0.158 C  
BRANCH  25  26
HETATM   26  N   UNL     1      -9.493   9.700  67.464  1.00  0.00    -0.133 N  
BRANCH  26  27
HETATM   27  C   UNL     1      -9.405   8.205  67.889  1.00  0.00    -0.134 C  
HETATM   28  C   UNL     1     -10.405   7.277  67.213  1.00  0.00    -0.349 C  
ENDBRANCH  26  27
BRANCH  26  29
HETATM   29  C   UNL     1      -8.577  10.595  68.344  1.00  0.00    -0.134 C  
HETATM   30  C   UNL     1      -7.905   9.892  69.510  1.00  0.00    -0.140 C  
ENDBRANCH  26  29
BRANCH  26  31
HETATM   31  C   UNL     1     -10.993  10.147  67.629  1.00  0.00    -0.268 C  
BRANCH  31  32
HETATM   32  C   UNL     1     -11.455  10.706  68.964  1.00  0.00    -0.342 A  
HETATM   33  C   UNL     1     -11.784   9.839  70.027  1.00  0.00    -0.131 A  
HETATM   34  C   UNL     1     -12.335  10.320  71.219  1.00  0.00    -0.506 A  
HETATM   35  C   UNL     1     -12.589  11.677  71.369  1.00  0.00    -0.391 A  
HETATM   36  C   UNL     1     -12.257  12.557  70.344  1.00  0.00    -0.368 A  
HETATM   37  C   UNL     1     -11.688  12.082  69.158  1.00  0.00    -0.330 A  
HETATM   38 CL   UNL     1     -11.319  13.259  67.949  1.00  0.00    -0.298 Cl 
ENDBRANCH  31  32
ENDBRANCH  26  31
ENDBRANCH  25  26
ENDBRANCH  24  25
ENDBRANCH  21  24
ENDBRANCH  18  20
ENDBRANCH  15  16
ENDBRANCH  14  15
ENDBRANCH   3  14
ENDBRANCH   2   3
TORSDOF 15
ENDMDL
MODEL       51
REMARK 921   NORMALIZED FREE ENERGY PREDICTED BY IDOCK:   -5.41 KCAL/MOL
REMARK 922        TOTAL FREE ENERGY PREDICTED BY IDOCK:  -12.81 KCAL/MOL
REMARK 923 INTER-LIGAND FREE ENERGY PREDICTED BY IDOCK:  -10.46 KCAL/MOL
REMARK 924 INTRA-LIGAND FREE ENERGY PREDICTED BY IDOCK:   -2.34 KCAL/MOL
REMARK 927      BINDING AFFINITY PREDICTED BY RF-SCORE:    0.00 PKD
ROOT
HETATM    1  C   UNL     1     -11.399   6.177  69.581  1.00  0.00    -0.442 C  
HETATM    2  C   UNL     1     -10.417   7.131  68.918  1.00  0.00    -0.207 C  
ENDROOT
BRANCH   2   3
HETATM    3  N   UNL     1      -9.053   7.315  69.653  1.00  0.00    -0.141 N  
BRANCH   3   4
HETATM    4  C   UNL     1      -8.818   6.136  70.642  1.00  0.00    -0.143 C  
HETATM    5  C   UNL     1      -7.675   6.310  71.610  1.00  0.00    -0.100 C  
ENDBRANCH   3   4
BRANCH   3   6
HETATM    6  C   UNL     1      -9.089   8.577  70.547  1.00  0.00    -0.156 C  
BRANCH   6   7
HETATM    7  C   UNL     1     -10.323   9.466  70.667  1.00  0.00    -0.349 A  
HETATM    8  C   UNL     1     -12.466   9.896  71.791  1.00  0.00    -0.487 A  
HETATM    9  C   UNL     1     -10.633  10.546  69.824  1.00  0.00    -0.274 A  
HETATM   10  C   UNL     1     -11.256   9.196  71.690  1.00  0.00    -0.377 A  
HETATM   11  C   UNL     1     -11.809  11.287  69.957  1.00  0.00    -0.448 A  
HETATM   12 CL   UNL     1     -10.956   7.951  72.853  1.00  0.00    -0.461 Cl 
HETATM   13  C   UNL     1     -12.738  10.947  70.924  1.00  0.00    -0.464 A  
ENDBRANCH   6   7
ENDBRANCH   3   6
BRANCH   3  14
HETATM   14  C   UNL     1      -7.959   7.414  68.514  1.00  0.00    -0.124 C  
BRANCH  14  15
HETATM   15  C   UNL     1      -8.343   8.227  67.230  1.00  0.00    -0.124 C  
BRANCH  15  16
HETATM   16  N   UNL     1      -8.218   9.676  67.276  1.00  0.00    -0.114 N  
HETATM   17  H   UNL     1      -9.001  10.249  67.591  1.00  0.00     0.000 HD 
HETATM   18  C   UNL     1      -7.023  10.276  66.889  1.00  0.00    -0.091 C  
HETATM   19  O   UNL     1      -5.991   9.659  66.688  1.00  0.00    -0.057 OA 
BRANCH  18  20
HETATM   20  C   UNL     1      -7.058  11.825  66.844  1.00  0.00    -0.097 C  
HETATM   21  N   UNL     1      -8.330  12.394  66.759  1.00  0.00    -0.366 N  
HETATM   22  O   UNL     1      -6.028  12.476  66.893  1.00  0.00    -0.278 OA 
HETATM   23  H   UNL     1      -9.125  11.850  66.423  1.00  0.00     0.000 HD 
BRANCH  21  24
HETATM   24  C   UNL     1      -8.495  13.785  67.163  1.00  0.00    -0.175 C  
BRANCH  24  25
HETATM   25  C   UNL     1      -9.819  14.106  67.909  1.00  0.00    -0.224 C  
BRANCH  25  26
HETATM   26  N   UNL     1     -10.708  15.171  67.222  1.00  0.00    -0.298 N  
BRANCH  26  27
HETATM   27  C   UNL     1     -11.702  14.492  66.234  1.00  0.00    -0.358 C  
HETATM   28  C   UNL     1     -11.563  14.915  64.779  1.00  0.00    -0.410 C  
ENDBRANCH  26  27
BRANCH  26  29
HETATM   29  C   UNL     1     -11.460  15.950  68.337  1.00  0.00    -0.348 C  
HETATM   30  C   UNL     1     -11.333  15.372  69.735  1.00  0.00    -0.317 C  
ENDBRANCH  26  29
BRANCH  26  31
HETATM   31  C   UNL     1      -9.820  16.164  66.384  1.00  0.00    -0.284 C  
BRANCH  31  32
HETATM   32  C   UNL     1      -9.821  17.640  66.745  1.00  0.00    -0.304 A  
HETATM   33  C   UNL     1     -10.593  18.558  66.002  1.00  0.00    -0.368 A  
HETATM   34  C   UNL     1     -10.509  19.936  66.230  1.00  0.00    -0.590 A  
HETATM   35  C   UNL     1      -9.637  20.430  67.191  1.00  0.00    -0.587 A  
HETATM   36  C   UNL     1      -8.878  19.546  67.951  1.00  0.00    -0.372 A  
HETATM   37  C   UNL     1      -8.973  18.167  67.740  1.00  0.00    -0.263 A  
HETATM   38 CL   UNL     1      -7.983  17.160  68.734  1.00  0.00    -0.266 Cl 
ENDBRANCH  31  32
ENDBRANCH  26  31
ENDBRANCH  25  26
ENDBRANCH  24  25
ENDBRANCH  21  24
ENDBRANCH  18  20
ENDBRANCH  15  16
ENDBRANCH  14  15
ENDBRANCH   3  14
ENDBRANCH   2   3
TORSDOF 15
ENDMDL
MODEL       52
REMARK 921   NORMALIZED FREE ENERGY PREDICTED BY IDOCK:   -5.39 KCAL/MOL
REMARK 922        TOTAL FREE ENERGY PREDICTED BY IDOCK:  -12.77 KCAL/MOL
REMARK 923 INTER-LIGAND FREE ENERGY PREDICTED BY IDOCK:  -10.68 KCAL/MOL
REMARK 924 INTRA-LIGAND FREE ENERGY PREDICTED BY IDOCK:   -2.08 KCAL/MOL
REMARK 927      BINDING AFFINITY PREDICTED BY RF-SCORE:    0.00 PKD
ROOT
HETATM    1  C   UNL     1     -10.027   7.276  73.265  1.00  0.00    -0.319 C  
HETATM    2  C   UNL     1      -9.376   6.982  71.921  1.00  0.00    -0.140 C  
ENDROOT
BRANCH   2   3
HETATM    3  N   UNL     1      -9.903   7.823  70.717  1.00  0.00    -0.181 N  
BRANCH   3   4
HETATM    4  C   UNL     1     -11.079   7.078  70.021  1.00  0.00    -0.278 C  
HETATM    5  C   UNL     1     -10.811   5.645  69.635  1.00  0.00    -0.365 C  
ENDBRANCH   3   4
BRANCH   3   6
HETATM    6  C   UNL     1      -8.812   7.941  69.626  1.00  0.00    -0.138 C  
BRANCH   6   7
HETATM    7  C   UNL     1      -8.993   8.788  68.370  1.00  0.00    -0.141 A  
HETATM    8  C   UNL     1      -8.600  10.937  67.245  1.00  0.00    -0.128 A  
HETATM    9  C   UNL     1      -9.739   8.416  67.239  1.00  0.00    -0.240 A  
HETATM   10  C   UNL     1      -8.385  10.060  68.315  1.00  0.00    -0.110 A  
HETATM   11  C   UNL     1      -9.907   9.263  66.142  1.00  0.00    -0.363 A  
HETATM   12 CL   UNL     1      -7.366  10.606  69.603  1.00  0.00    -0.146 Cl 
HETATM   13  C   UNL     1      -9.360  10.534  66.154  1.00  0.00    -0.210 A  
ENDBRANCH   6   7
ENDBRANCH   3   6
BRANCH   3  14
HETATM   14  C   UNL     1     -10.311   9.228  71.317  1.00  0.00    -0.327 C  
BRANCH  14  15
HETATM   15  C   UNL     1     -11.552   9.940  70.676  1.00  0.00    -0.335 C  
BRANCH  15  16
HETATM   16  N   UNL     1     -11.423  11.345  70.316  1.00  0.00    -0.503 N  
HETATM   17  H   UNL     1     -11.037  12.012  70.983  1.00  0.00     0.000 HD 
HETATM   18  C   UNL     1     -11.830  11.772  69.055  1.00  0.00    -0.317 C  
HETATM   19  O   UNL     1     -12.117  11.013  68.145  1.00  0.00    -0.610 OA 
BRANCH  18  20
HETATM   20  C   UNL     1     -11.779  13.305  68.840  1.00  0.00    -0.327 C  
HETATM   21  N   UNL     1     -11.165  14.034  69.860  1.00  0.00    -0.462 N  
HETATM   22  O   UNL     1     -12.242  13.812  67.832  1.00  0.00    -0.327 OA 
HETATM   23  H   UNL     1     -11.064  13.641  70.796  1.00  0.00     0.000 HD 
BRANCH  21  24
HETATM   24  C   UNL     1     -10.671  15.371  69.555  1.00  0.00    -0.267 C  
BRANCH  24  25
HETATM   25  C   UNL     1      -9.366  15.420  68.714  1.00  0.00    -0.209 C  
BRANCH  25  26
HETATM   26  N   UNL     1      -9.259  16.628  67.752  1.00  0.00    -0.213 N  
BRANCH  26  27
HETATM   27  C   UNL     1      -7.953  16.535  66.909  1.00  0.00    -0.225 C  
HETATM   28  C   UNL     1      -6.972  15.457  67.349  1.00  0.00    -0.222 C  
ENDBRANCH  26  27
BRANCH  26  29
HETATM   29  C   UNL     1     -10.521  16.624  66.845  1.00  0.00    -0.271 C  
HETATM   30  C   UNL     1     -10.336  15.999  65.474  1.00  0.00    -0.415 C  
ENDBRANCH  26  29
BRANCH  26  31
HETATM   31  C   UNL     1      -9.195  17.971  68.570  1.00  0.00    -0.288 C  
BRANCH  31  32
HETATM   32  C   UNL     1      -8.079  18.961  68.278  1.00  0.00    -0.353 A  
HETATM   33  C   UNL     1      -6.945  19.029  69.115  1.00  0.00    -0.346 A  
HETATM   34  C   UNL     1      -5.970  20.017  68.946  1.00  0.00    -0.309 A  
HETATM   35  C   UNL     1      -6.114  20.972  67.949  1.00  0.00    -0.408 A  
HETATM   36  C   UNL     1      -7.212  20.918  67.097  1.00  0.00    -0.395 A  
HETATM   37  C   UNL     1      -8.180  19.919  67.250  1.00  0.00    -0.313 A  
HETATM   38 CL   UNL     1      -9.504  19.946  66.142  1.00  0.00    -0.481 Cl 
ENDBRANCH  31  32
ENDBRANCH  26  31
ENDBRANCH  25  26
ENDBRANCH  24  25
ENDBRANCH  21  24
ENDBRANCH  18  20
ENDBRANCH  15  16
ENDBRANCH  14  15
ENDBRANCH   3  14
ENDBRANCH   2   3
TORSDOF 15
ENDMDL
MODEL       53
REMARK 921   NORMALIZED FREE ENERGY PREDICTED BY IDOCK:   -5.38 KCAL/MOL
REMARK 922        TOTAL FREE ENERGY PREDICTED BY IDOCK:  -12.76 KCAL/MOL
REMARK 923 INTER-LIGAND FREE ENERGY PREDICTED BY IDOCK:  -11.15 KCAL/MOL
REMARK 924 INTRA-LIGAND FREE ENERGY PREDICTED BY IDOCK:   -1.61 KCAL/MOL
REMARK 927      BINDING AFFINITY PREDICTED BY RF-SCORE:    0.00 PKD
ROOT
HETATM    1  C   UNL     1     -10.506  19.452  65.958  1.00  0.00    -0.596 C  
HETATM    2  C   UNL     1     -10.285  18.820  67.325  1.00  0.00    -0.390 C  
ENDROOT
BRANCH   2   3
HETATM    3  N   UNL     1      -9.624  17.407  67.317  1.00  0.00    -0.253 N  
BRANCH   3   4
HETATM    4  C   UNL     1      -9.883  16.690  68.674  1.00  0.00    -0.252 C  
HETATM    5  C   UNL     1      -8.956  15.546  68.999  1.00  0.00    -0.237 C  
ENDBRANCH   3   4
BRANCH   3   6
HETATM    6  C   UNL     1      -8.085  17.533  67.227  1.00  0.00    -0.203 C  
BRANCH   6   7
HETATM    7  C   UNL     1      -7.311  18.667  67.892  1.00  0.00    -0.251 A  
HETATM    8  C   UNL     1      -5.860  20.630  67.610  1.00  0.00    -0.292 A  
HETATM    9  C   UNL     1      -7.151  18.839  69.277  1.00  0.00    -0.214 A  
HETATM   10  C   UNL     1      -6.681  19.629  67.075  1.00  0.00    -0.194 A  
HETATM   11  C   UNL     1      -6.384  19.872  69.819  1.00  0.00    -0.402 A  
HETATM   12 CL   UNL     1      -6.869  19.586  65.356  1.00  0.00    -0.302 Cl 
HETATM   13  C   UNL     1      -5.717  20.753  68.987  1.00  0.00    -0.401 A  
ENDBRANCH   6   7
ENDBRANCH   3   6
BRANCH   3  14
HETATM   14  C   UNL     1     -10.241  16.648  66.072  1.00  0.00    -0.351 C  
BRANCH  14  15
HETATM   15  C   UNL     1     -11.285  15.519  66.377  1.00  0.00    -0.098 C  
BRANCH  15  16
HETATM   16  N   UNL     1     -10.869  14.136  66.193  1.00  0.00    -0.293 N  
HETATM   17  H   UNL     1      -9.984  13.811  66.581  1.00  0.00     0.000 HD 
HETATM   18  C   UNL     1     -11.687  13.261  65.484  1.00  0.00    -0.346 C  
HETATM   19  O   UNL     1     -12.833  13.519  65.160  1.00  0.00    -0.681 OA 
BRANCH  18  20
HETATM   20  C   UNL     1     -11.074  11.860  65.231  1.00  0.00    -0.299 C  
HETATM   21  N   UNL     1     -10.293  11.350  66.270  1.00  0.00    -0.235 N  
HETATM   22  O   UNL     1     -11.286  11.263  64.189  1.00  0.00    -0.321 OA 
HETATM   23  H   UNL     1      -9.892  11.968  66.975  1.00  0.00     0.000 HD 
BRANCH  21  24
HETATM   24  C   UNL     1     -10.065   9.911  66.322  1.00  0.00    -0.241 C  
BRANCH  24  25
HETATM   25  C   UNL     1     -10.645   9.194  67.572  1.00  0.00    -0.249 C  
BRANCH  25  26
HETATM   26  N   UNL     1      -9.583   8.667  68.568  1.00  0.00    -0.152 N  
BRANCH  26  27
HETATM   27  C   UNL     1      -9.927   7.213  69.008  1.00  0.00    -0.174 C  
HETATM   28  C   UNL     1     -10.941   6.492  68.131  1.00  0.00    -0.365 C  
ENDBRANCH  26  27
BRANCH  26  29
HETATM   29  C   UNL     1      -8.199   8.736  67.865  1.00  0.00    -0.111 C  
HETATM   30  C   UNL     1      -7.338   7.492  67.999  1.00  0.00    -0.096 C  
ENDBRANCH  26  29
BRANCH  26  31
HETATM   31  C   UNL     1      -9.566   9.557  69.867  1.00  0.00    -0.223 C  
BRANCH  31  32
HETATM   32  C   UNL     1     -10.826   9.659  70.709  1.00  0.00    -0.400 A  
HETATM   33  C   UNL     1     -11.195   8.608  71.575  1.00  0.00    -0.360 A  
HETATM   34  C   UNL     1     -12.415   8.621  72.260  1.00  0.00    -0.460 A  
HETATM   35  C   UNL     1     -13.303   9.673  72.082  1.00  0.00    -0.545 A  
HETATM   36  C   UNL     1     -12.956  10.732  71.249  1.00  0.00    -0.502 A  
HETATM   37  C   UNL     1     -11.729  10.733  70.576  1.00  0.00    -0.351 A  
HETATM   38 CL   UNL     1     -11.400  12.094  69.564  1.00  0.00    -0.306 Cl 
ENDBRANCH  31  32
ENDBRANCH  26  31
ENDBRANCH  25  26
ENDBRANCH  24  25
ENDBRANCH  21  24
ENDBRANCH  18  20
ENDBRANCH  15  16
ENDBRANCH  14  15
ENDBRANCH   3  14
ENDBRANCH   2   3
TORSDOF 15
ENDMDL
MODEL       54
REMARK 921   NORMALIZED FREE ENERGY PREDICTED BY IDOCK:   -5.38 KCAL/MOL
REMARK 922        TOTAL FREE ENERGY PREDICTED BY IDOCK:  -12.75 KCAL/MOL
REMARK 923 INTER-LIGAND FREE ENERGY PREDICTED BY IDOCK:  -10.24 KCAL/MOL
REMARK 924 INTRA-LIGAND FREE ENERGY PREDICTED BY IDOCK:   -2.51 KCAL/MOL
REMARK 927      BINDING AFFINITY PREDICTED BY RF-SCORE:    0.00 PKD
ROOT
HETATM    1  C   UNL     1     -10.521   6.987  68.686  1.00  0.00    -0.224 C  
HETATM    2  C   UNL     1      -9.818   7.026  70.034  1.00  0.00    -0.177 C  
ENDROOT
BRANCH   2   3
HETATM    3  N   UNL     1     -10.451   7.974  71.100  1.00  0.00    -0.197 N  
BRANCH   3   4
HETATM    4  C   UNL     1     -10.962   7.144  72.314  1.00  0.00    -0.243 C  
HETATM    5  C   UNL     1     -12.125   6.225  72.038  1.00  0.00    -0.321 C  
ENDBRANCH   3   4
BRANCH   3   6
HETATM    6  C   UNL     1     -11.716   8.656  70.529  1.00  0.00    -0.081 C  
BRANCH   6   7
HETATM    7  C   UNL     1     -12.019  10.136  70.738  1.00  0.00    -0.442 A  
HETATM    8  C   UNL     1     -13.403  11.831  71.858  1.00  0.00    -0.401 A  
HETATM    9  C   UNL     1     -11.415  11.196  70.041  1.00  0.00    -0.376 A  
HETATM   10  C   UNL     1     -12.991  10.502  71.693  1.00  0.00    -0.476 A  
HETATM   11  C   UNL     1     -11.778  12.529  70.245  1.00  0.00    -0.200 A  
HETATM   12 CL   UNL     1     -13.749   9.303  72.684  1.00  0.00    -0.464 Cl 
HETATM   13  C   UNL     1     -12.790  12.846  71.133  1.00  0.00    -0.326 A  
ENDBRANCH   6   7
ENDBRANCH   3   6
BRANCH   3  14
HETATM   14  C   UNL     1      -9.321   9.016  71.476  1.00  0.00    -0.224 C  
BRANCH  14  15
HETATM   15  C   UNL     1      -8.021   8.999  70.601  1.00  0.00    -0.141 C  
BRANCH  15  16
HETATM   16  N   UNL     1      -7.578  10.254  70.010  1.00  0.00    -0.276 N  
HETATM   17  H   UNL     1      -6.885  10.830  70.488  1.00  0.00     0.000 HD 
HETATM   18  C   UNL     1      -8.105  10.663  68.789  1.00  0.00    -0.139 C  
HETATM   19  O   UNL     1      -8.784   9.947  68.072  1.00  0.00    -0.124 OA 
BRANCH  18  20
HETATM   20  C   UNL     1      -7.668  12.078  68.333  1.00  0.00    -0.138 C  
HETATM   21  N   UNL     1      -8.644  13.070  68.436  1.00  0.00    -0.280 N  
HETATM   22  O   UNL     1      -6.536  12.283  67.927  1.00  0.00    -0.069 OA 
HETATM   23  H   UNL     1      -9.634  12.828  68.484  1.00  0.00     0.000 HD 
BRANCH  21  24
HETATM   24  C   UNL     1      -8.215  14.463  68.473  1.00  0.00    -0.151 C  
BRANCH  24  25
HETATM   25  C   UNL     1      -8.031  15.136  67.086  1.00  0.00    -0.215 C  
BRANCH  25  26
HETATM   26  N   UNL     1      -8.678  16.537  66.953  1.00  0.00    -0.190 N  
BRANCH  26  27
HETATM   27  C   UNL     1      -9.038  17.102  68.359  1.00  0.00    -0.263 C  
HETATM   28  C   UNL     1      -9.917  18.345  68.354  1.00  0.00    -0.406 C  
ENDBRANCH  26  27
BRANCH  26  29
HETATM   29  C   UNL     1      -7.668  17.457  66.213  1.00  0.00    -0.305 C  
HETATM   30  C   UNL     1      -6.207  17.232  66.560  1.00  0.00    -0.256 C  
ENDBRANCH  26  29
BRANCH  26  31
HETATM   31  C   UNL     1     -10.016  16.443  66.130  1.00  0.00    -0.339 C  
BRANCH  31  32
HETATM   32  C   UNL     1     -10.659  15.082  65.917  1.00  0.00    -0.338 A  
HETATM   33  C   UNL     1     -10.471  14.384  64.706  1.00  0.00    -0.394 A  
HETATM   34  C   UNL     1     -11.156  13.195  64.434  1.00  0.00    -0.407 A  
HETATM   35  C   UNL     1     -12.059  12.686  65.358  1.00  0.00    -0.516 A  
HETATM   36  C   UNL     1     -12.249  13.344  66.569  1.00  0.00    -0.414 A  
HETATM   37  C   UNL     1     -11.552  14.523  66.853  1.00  0.00    -0.385 A  
HETATM   38 CL   UNL     1     -11.866  15.261  68.382  1.00  0.00    -0.335 Cl 
ENDBRANCH  31  32
ENDBRANCH  26  31
ENDBRANCH  25  26
ENDBRANCH  24  25
ENDBRANCH  21  24
ENDBRANCH  18  20
ENDBRANCH  15  16
ENDBRANCH  14  15
ENDBRANCH   3  14
ENDBRANCH   2   3
TORSDOF 15
ENDMDL
MODEL       55
REMARK 921   NORMALIZED FREE ENERGY PREDICTED BY IDOCK:   -5.37 KCAL/MOL
REMARK 922        TOTAL FREE ENERGY PREDICTED BY IDOCK:  -12.74 KCAL/MOL
REMARK 923 INTER-LIGAND FREE ENERGY PREDICTED BY IDOCK:  -10.61 KCAL/MOL
REMARK 924 INTRA-LIGAND FREE ENERGY PREDICTED BY IDOCK:   -2.13 KCAL/MOL
REMARK 927      BINDING AFFINITY PREDICTED BY RF-SCORE:    0.00 PKD
ROOT
HETATM    1  C   UNL     1      -9.417   3.700  70.828  1.00  0.00    -0.238 C  
HETATM    2  C   UNL     1      -9.898   4.363  69.546  1.00  0.00    -0.188 C  
ENDROOT
BRANCH   2   3
HETATM    3  N   UNL     1     -10.165   5.897  69.637  1.00  0.00    -0.198 N  
BRANCH   3   4
HETATM    4  C   UNL     1      -8.841   6.683  69.413  1.00  0.00    -0.134 C  
HETATM    5  C   UNL     1      -7.689   5.883  68.858  1.00  0.00    -0.091 C  
ENDBRANCH   3   4
BRANCH   3   6
HETATM    6  C   UNL     1     -10.613   6.281  71.067  1.00  0.00    -0.238 C  
BRANCH   6   7
HETATM    7  C   UNL     1     -11.748   7.264  71.338  1.00  0.00    -0.317 A  
HETATM    8  C   UNL     1     -12.408   9.560  71.915  1.00  0.00    -0.450 A  
HETATM    9  C   UNL     1     -13.111   6.931  71.415  1.00  0.00    -0.316 A  
HETATM   10  C   UNL     1     -11.433   8.623  71.549  1.00  0.00    -0.295 A  
HETATM   11  C   UNL     1     -14.095   7.873  71.720  1.00  0.00    -0.520 A  
HETATM   12 CL   UNL     1      -9.804   9.185  71.396  1.00  0.00    -0.374 Cl 
HETATM   13  C   UNL     1     -13.743   9.182  71.996  1.00  0.00    -0.508 A  
ENDBRANCH   6   7
ENDBRANCH   3   6
BRANCH   3  14
HETATM   14  C   UNL     1     -11.276   6.207  68.553  1.00  0.00    -0.145 C  
BRANCH  14  15
HETATM   15  C   UNL     1     -10.782   6.502  67.095  1.00  0.00    -0.368 C  
BRANCH  15  16
HETATM   16  N   UNL     1     -10.422   7.872  66.760  1.00  0.00    -0.439 N  
HETATM   17  H   UNL     1     -10.911   8.653  67.198  1.00  0.00     0.000 HD 
HETATM   18  C   UNL     1      -9.407   8.111  65.838  1.00  0.00    -0.056 C  
HETATM   19  O   UNL     1      -8.655   7.246  65.422  1.00  0.00    -0.121 OA 
BRANCH  18  20
HETATM   20  C   UNL     1      -9.214   9.600  65.456  1.00  0.00    -0.234 C  
HETATM   21  N   UNL     1      -9.701  10.525  66.381  1.00  0.00    -0.191 N  
HETATM   22  O   UNL     1      -8.658   9.913  64.417  1.00  0.00    -0.156 OA 
HETATM   23  H   UNL     1     -10.407  10.257  67.067  1.00  0.00     0.000 HD 
BRANCH  21  24
HETATM   24  C   UNL     1      -9.178  11.886  66.342  1.00  0.00    -0.215 C  
BRANCH  24  25
HETATM   25  C   UNL     1     -10.126  12.943  65.714  1.00  0.00    -0.287 C  
BRANCH  25  26
HETATM   26  N   UNL     1     -10.520  14.104  66.660  1.00  0.00    -0.276 N  
BRANCH  26  27
HETATM   27  C   UNL     1      -9.808  15.419  66.227  1.00  0.00    -0.297 C  
HETATM   28  C   UNL     1      -8.438  15.652  66.850  1.00  0.00    -0.286 C  
ENDBRANCH  26  27
BRANCH  26  29
HETATM   29  C   UNL     1     -12.066  14.252  66.608  1.00  0.00    -0.420 C  
HETATM   30  C   UNL     1     -12.753  13.526  65.466  1.00  0.00    -0.493 C  
ENDBRANCH  26  29
BRANCH  26  31
HETATM   31  C   UNL     1     -10.063  13.786  68.132  1.00  0.00    -0.245 C  
BRANCH  31  32
HETATM   32  C   UNL     1     -11.037  14.023  69.275  1.00  0.00    -0.271 A  
HETATM   33  C   UNL     1     -11.044  15.254  69.965  1.00  0.00    -0.303 A  
HETATM   34  C   UNL     1     -11.836  15.449  71.101  1.00  0.00    -0.422 A  
HETATM   35  C   UNL     1     -12.624  14.414  71.586  1.00  0.00    -0.429 A  
HETATM   36  C   UNL     1     -12.650  13.196  70.914  1.00  0.00    -0.377 A  
HETATM   37  C   UNL     1     -11.875  13.003  69.766  1.00  0.00    -0.311 A  
HETATM   38 CL   UNL     1     -11.978  11.452  69.013  1.00  0.00    -0.401 Cl 
ENDBRANCH  31  32
ENDBRANCH  26  31
ENDBRANCH  25  26
ENDBRANCH  24  25
ENDBRANCH  21  24
ENDBRANCH  18  20
ENDBRANCH  15  16
ENDBRANCH  14  15
ENDBRANCH   3  14
ENDBRANCH   2   3
TORSDOF 15
ENDMDL
MODEL       56
REMARK 921   NORMALIZED FREE ENERGY PREDICTED BY IDOCK:   -5.36 KCAL/MOL
REMARK 922        TOTAL FREE ENERGY PREDICTED BY IDOCK:  -12.72 KCAL/MOL
REMARK 923 INTER-LIGAND FREE ENERGY PREDICTED BY IDOCK:   -9.77 KCAL/MOL
REMARK 924 INTRA-LIGAND FREE ENERGY PREDICTED BY IDOCK:   -2.95 KCAL/MOL
REMARK 927      BINDING AFFINITY PREDICTED BY RF-SCORE:    0.00 PKD
ROOT
HETATM    1  C   UNL     1     -10.732  17.267  68.278  1.00  0.00    -0.349 C  
HETATM    2  C   UNL     1     -10.894  16.202  67.203  1.00  0.00    -0.216 C  
ENDROOT
BRANCH   2   3
HETATM    3  N   UNL     1     -10.959  14.729  67.715  1.00  0.00    -0.282 N  
BRANCH   3   4
HETATM    4  C   UNL     1     -12.284  14.060  67.246  1.00  0.00    -0.290 C  
HETATM    5  C   UNL     1     -12.386  13.770  65.771  1.00  0.00    -0.523 C  
ENDBRANCH   3   4
BRANCH   3   6
HETATM    6  C   UNL     1     -11.029  14.699  69.260  1.00  0.00    -0.260 C  
BRANCH   6   7
HETATM    7  C   UNL     1     -11.795  13.627  70.029  1.00  0.00    -0.378 A  
HETATM    8  C   UNL     1     -13.332  13.099  71.873  1.00  0.00    -0.546 A  
HETATM    9  C   UNL     1     -11.687  12.242  69.821  1.00  0.00    -0.368 A  
HETATM   10  C   UNL     1     -12.682  14.028  71.050  1.00  0.00    -0.361 A  
HETATM   11  C   UNL     1     -12.379  11.312  70.598  1.00  0.00    -0.477 A  
HETATM   12 CL   UNL     1     -12.978  15.706  71.354  1.00  0.00    -0.535 Cl 
HETATM   13  C   UNL     1     -13.182  11.738  71.641  1.00  0.00    -0.368 A  
ENDBRANCH   6   7
ENDBRANCH   3   6
BRANCH   3  14
HETATM   14  C   UNL     1      -9.659  14.020  67.156  1.00  0.00    -0.245 C  
BRANCH  14  15
HETATM   15  C   UNL     1      -8.527  13.696  68.191  1.00  0.00    -0.175 C  
BRANCH  15  16
HETATM   16  N   UNL     1      -8.465  12.348  68.736  1.00  0.00    -0.360 N  
HETATM   17  H   UNL     1      -9.125  12.054  69.456  1.00  0.00     0.000 HD 
HETATM   18  C   UNL     1      -7.499  11.461  68.269  1.00  0.00    -0.101 C  
HETATM   19  O   UNL     1      -6.807  11.672  67.287  1.00  0.00    -0.106 OA 
BRANCH  18  20
HETATM   20  C   UNL     1      -7.439  10.110  69.023  1.00  0.00    -0.091 C  
HETATM   21  N   UNL     1      -8.128  10.068  70.237  1.00  0.00    -0.303 N  
HETATM   22  O   UNL     1      -6.832   9.159  68.558  1.00  0.00    -0.062 OA 
HETATM   23  H   UNL     1      -8.360  10.926  70.736  1.00  0.00     0.000 HD 
BRANCH  21  24
HETATM   24  C   UNL     1      -8.507   8.766  70.773  1.00  0.00    -0.173 C  
BRANCH  24  25
HETATM   25  C   UNL     1      -9.976   8.340  70.501  1.00  0.00    -0.184 C  
BRANCH  25  26
HETATM   26  N   UNL     1     -10.138   6.927  69.890  1.00  0.00    -0.185 N  
BRANCH  26  27
HETATM   27  C   UNL     1      -8.754   6.222  69.779  1.00  0.00    -0.137 C  
HETATM   28  C   UNL     1      -8.807   4.711  69.600  1.00  0.00    -0.121 C  
ENDBRANCH  26  27
BRANCH  26  29
HETATM   29  C   UNL     1     -11.111   6.127  70.799  1.00  0.00    -0.309 C  
HETATM   30  C   UNL     1     -11.978   6.965  71.722  1.00  0.00    -0.372 C  
ENDBRANCH  26  29
BRANCH  26  31
HETATM   31  C   UNL     1     -10.730   7.029  68.435  1.00  0.00    -0.179 C  
BRANCH  31  32
HETATM   32  C   UNL     1     -10.280   8.164  67.531  1.00  0.00    -0.309 A  
HETATM   33  C   UNL     1     -10.868   9.442  67.640  1.00  0.00    -0.222 A  
HETATM   34  C   UNL     1     -10.566  10.465  66.735  1.00  0.00    -0.270 A  
HETATM   35  C   UNL     1      -9.684  10.230  65.689  1.00  0.00    -0.308 A  
HETATM   36  C   UNL     1      -9.075   8.986  65.569  1.00  0.00    -0.271 A  
HETATM   37  C   UNL     1      -9.359   7.965  66.483  1.00  0.00    -0.200 A  
HETATM   38 CL   UNL     1      -8.552   6.458  66.239  1.00  0.00    -0.134 Cl 
ENDBRANCH  31  32
ENDBRANCH  26  31
ENDBRANCH  25  26
ENDBRANCH  24  25
ENDBRANCH  21  24
ENDBRANCH  18  20
ENDBRANCH  15  16
ENDBRANCH  14  15
ENDBRANCH   3  14
ENDBRANCH   2   3
TORSDOF 15
ENDMDL
MODEL       57
REMARK 921   NORMALIZED FREE ENERGY PREDICTED BY IDOCK:   -5.36 KCAL/MOL
REMARK 922        TOTAL FREE ENERGY PREDICTED BY IDOCK:  -12.72 KCAL/MOL
REMARK 923 INTER-LIGAND FREE ENERGY PREDICTED BY IDOCK:  -10.89 KCAL/MOL
REMARK 924 INTRA-LIGAND FREE ENERGY PREDICTED BY IDOCK:   -1.83 KCAL/MOL
REMARK 927      BINDING AFFINITY PREDICTED BY RF-SCORE:    0.00 PKD
ROOT
HETATM    1  C   UNL     1      -6.746  17.000  66.558  1.00  0.00    -0.267 C  
HETATM    2  C   UNL     1      -7.945  17.872  66.217  1.00  0.00    -0.244 C  
ENDROOT
BRANCH   2   3
HETATM    3  N   UNL     1      -9.051  17.959  67.314  1.00  0.00    -0.248 N  
BRANCH   3   4
HETATM    4  C   UNL     1      -9.000  19.348  68.013  1.00  0.00    -0.322 C  
HETATM    5  C   UNL     1     -10.317  20.074  68.128  1.00  0.00    -0.503 C  
ENDBRANCH   3   4
BRANCH   3   6
HETATM    6  C   UNL     1      -8.770  16.940  68.444  1.00  0.00    -0.244 C  
BRANCH   6   7
HETATM    7  C   UNL     1      -9.866  16.090  69.078  1.00  0.00    -0.239 A  
HETATM    8  C   UNL     1     -10.897  13.871  69.305  1.00  0.00    -0.170 A  
HETATM    9  C   UNL     1     -10.915  16.577  69.876  1.00  0.00    -0.273 A  
HETATM   10  C   UNL     1      -9.862  14.698  68.851  1.00  0.00    -0.211 A  
HETATM   11  C   UNL     1     -11.917  15.749  70.383  1.00  0.00    -0.385 A  
HETATM   12 CL   UNL     1      -8.579  13.953  67.959  1.00  0.00    -0.168 Cl 
HETATM   13  C   UNL     1     -11.925  14.400  70.076  1.00  0.00    -0.394 A  
ENDBRANCH   6   7
ENDBRANCH   3   6
BRANCH   3  14
HETATM   14  C   UNL     1     -10.419  17.673  66.572  1.00  0.00    -0.283 C  
BRANCH  14  15
HETATM   15  C   UNL     1     -10.400  16.587  65.442  1.00  0.00    -0.221 C  
BRANCH  15  16
HETATM   16  N   UNL     1     -10.831  15.239  65.783  1.00  0.00    -0.346 N  
HETATM   17  H   UNL     1     -10.496  14.793  66.637  1.00  0.00     0.000 HD 
HETATM   18  C   UNL     1     -11.705  14.562  64.937  1.00  0.00    -0.402 C  
HETATM   19  O   UNL     1     -12.294  15.091  64.010  1.00  0.00    -0.706 OA 
BRANCH  18  20
HETATM   20  C   UNL     1     -11.977  13.088  65.329  1.00  0.00    -0.407 C  
HETATM   21  N   UNL     1     -10.947  12.451  66.023  1.00  0.00    -0.278 N  
HETATM   22  O   UNL     1     -13.035  12.550  65.047  1.00  0.00    -0.779 OA 
HETATM   23  H   UNL     1      -9.991  12.804  65.980  1.00  0.00     0.000 HD 
BRANCH  21  24
HETATM   24  C   UNL     1     -11.270  11.267  66.811  1.00  0.00    -0.195 C  
BRANCH  24  25
HETATM   25  C   UNL     1     -10.371  10.029  66.545  1.00  0.00    -0.198 C  
BRANCH  25  26
HETATM   26  N   UNL     1      -9.700   9.432  67.807  1.00  0.00    -0.147 N  
BRANCH  26  27
HETATM   27  C   UNL     1     -10.147   7.955  68.010  1.00  0.00    -0.192 C  
HETATM   28  C   UNL     1      -9.608   6.966  66.985  1.00  0.00    -0.197 C  
ENDBRANCH  26  27
BRANCH  26  29
HETATM   29  C   UNL     1      -8.161   9.539  67.620  1.00  0.00    -0.121 C  
HETATM   30  C   UNL     1      -7.702  10.004  66.249  1.00  0.00    -0.105 C  
ENDBRANCH  26  29
BRANCH  26  31
HETATM   31  C   UNL     1     -10.138  10.235  69.088  1.00  0.00    -0.218 C  
BRANCH  31  32
HETATM   32  C   UNL     1     -10.432   9.475  70.371  1.00  0.00    -0.336 A  
HETATM   33  C   UNL     1      -9.578   8.436  70.798  1.00  0.00    -0.203 A  
HETATM   34  C   UNL     1      -9.896   7.637  71.902  1.00  0.00    -0.205 A  
HETATM   35  C   UNL     1     -11.083   7.843  72.591  1.00  0.00    -0.447 A  
HETATM   36  C   UNL     1     -11.934   8.873  72.203  1.00  0.00    -0.419 A  
HETATM   37  C   UNL     1     -11.611   9.687  71.112  1.00  0.00    -0.381 A  
HETATM   38 CL   UNL     1     -12.739  10.933  70.713  1.00  0.00    -0.436 Cl 
ENDBRANCH  31  32
ENDBRANCH  26  31
ENDBRANCH  25  26
ENDBRANCH  24  25
ENDBRANCH  21  24
ENDBRANCH  18  20
ENDBRANCH  15  16
ENDBRANCH  14  15
ENDBRANCH   3  14
ENDBRANCH   2   3
TORSDOF 15
ENDMDL
MODEL       58
REMARK 921   NORMALIZED FREE ENERGY PREDICTED BY IDOCK:   -5.36 KCAL/MOL
REMARK 922        TOTAL FREE ENERGY PREDICTED BY IDOCK:  -12.72 KCAL/MOL
REMARK 923 INTER-LIGAND FREE ENERGY PREDICTED BY IDOCK:  -10.97 KCAL/MOL
REMARK 924 INTRA-LIGAND FREE ENERGY PREDICTED BY IDOCK:   -1.75 KCAL/MOL
REMARK 927      BINDING AFFINITY PREDICTED BY RF-SCORE:    0.00 PKD
ROOT
HETATM    1  C   UNL     1      -8.939  11.758  66.527  1.00  0.00    -0.196 C  
HETATM    2  C   UNL     1      -9.878  12.840  66.013  1.00  0.00    -0.255 C  
ENDROOT
BRANCH   2   3
HETATM    3  N   UNL     1     -11.396  12.596  66.275  1.00  0.00    -0.311 N  
BRANCH   3   4
HETATM    4  C   UNL     1     -12.143  12.384  64.926  1.00  0.00    -0.407 C  
HETATM    5  C   UNL     1     -11.317  12.583  63.681  1.00  0.00    -0.555 C  
ENDBRANCH   3   4
BRANCH   3   6
HETATM    6  C   UNL     1     -12.046  13.859  66.888  1.00  0.00    -0.430 C  
BRANCH   6   7
HETATM    7  C   UNL     1     -11.330  15.206  66.950  1.00  0.00    -0.264 A  
HETATM    8  C   UNL     1     -10.666  17.138  68.315  1.00  0.00    -0.363 A  
HETATM    9  C   UNL     1     -10.781  15.887  65.850  1.00  0.00    -0.303 A  
HETATM   10  C   UNL     1     -11.207  15.852  68.198  1.00  0.00    -0.339 A  
HETATM   11  C   UNL     1     -10.186  17.144  65.970  1.00  0.00    -0.332 A  
HETATM   12 CL   UNL     1     -11.760  15.085  69.647  1.00  0.00    -0.326 Cl 
HETATM   13  C   UNL     1     -10.150  17.782  67.196  1.00  0.00    -0.338 A  
ENDBRANCH   6   7
ENDBRANCH   3   6
BRANCH   3  14
HETATM   14  C   UNL     1     -11.473  11.348  67.244  1.00  0.00    -0.224 C  
BRANCH  14  15
HETATM   15  C   UNL     1     -11.949  11.618  68.713  1.00  0.00    -0.264 C  
BRANCH  15  16
HETATM   16  N   UNL     1     -12.241  10.470  69.559  1.00  0.00    -0.540 N  
HETATM   17  H   UNL     1     -12.018   9.528  69.240  1.00  0.00     0.000 HD 
HETATM   18  C   UNL     1     -12.825  10.666  70.807  1.00  0.00    -0.352 C  
HETATM   19  O   UNL     1     -12.943  11.760  71.334  1.00  0.00    -0.398 OA 
BRANCH  18  20
HETATM   20  C   UNL     1     -13.219   9.366  71.552  1.00  0.00    -0.384 C  
HETATM   21  N   UNL     1     -12.641   8.194  71.060  1.00  0.00    -0.503 N  
HETATM   22  O   UNL     1     -13.977   9.396  72.507  1.00  0.00    -0.419 OA 
HETATM   23  H   UNL     1     -12.270   8.152  70.111  1.00  0.00     0.000 HD 
BRANCH  21  24
HETATM   24  C   UNL     1     -12.579   7.031  71.937  1.00  0.00    -0.295 C  
BRANCH  24  25
HETATM   25  C   UNL     1     -11.597   5.915  71.490  1.00  0.00    -0.078 C  
BRANCH  25  26
HETATM   26  N   UNL     1     -10.193   5.988  72.140  1.00  0.00    -0.189 N  
BRANCH  26  27
HETATM   27  C   UNL     1     -10.132   7.156  73.167  1.00  0.00    -0.251 C  
HETATM   28  C   UNL     1      -8.958   8.111  72.997  1.00  0.00    -0.335 C  
ENDBRANCH  26  27
BRANCH  26  29
HETATM   29  C   UNL     1      -9.916   4.619  72.821  1.00  0.00    -0.155 C  
HETATM   30  C   UNL     1     -11.099   3.998  73.542  1.00  0.00    -0.350 C  
ENDBRANCH  26  29
BRANCH  26  31
HETATM   31  C   UNL     1      -9.099   6.270  71.044  1.00  0.00    -0.154 C  
BRANCH  31  32
HETATM   32  C   UNL     1      -9.530   6.438  69.596  1.00  0.00    -0.154 A  
HETATM   33  C   UNL     1      -9.727   7.725  69.053  1.00  0.00    -0.157 A  
HETATM   34  C   UNL     1     -10.248   7.903  67.767  1.00  0.00    -0.276 A  
HETATM   35  C   UNL     1     -10.603   6.801  67.002  1.00  0.00    -0.405 A  
HETATM   36  C   UNL     1     -10.402   5.520  67.505  1.00  0.00    -0.268 A  
HETATM   37  C   UNL     1      -9.863   5.336  68.783  1.00  0.00    -0.161 A  
HETATM   38 CL   UNL     1      -9.659   3.705  69.312  1.00  0.00    -0.237 Cl 
ENDBRANCH  31  32
ENDBRANCH  26  31
ENDBRANCH  25  26
ENDBRANCH  24  25
ENDBRANCH  21  24
ENDBRANCH  18  20
ENDBRANCH  15  16
ENDBRANCH  14  15
ENDBRANCH   3  14
ENDBRANCH   2   3
TORSDOF 15
ENDMDL
MODEL       59
REMARK 921   NORMALIZED FREE ENERGY PREDICTED BY IDOCK:   -5.36 KCAL/MOL
REMARK 922        TOTAL FREE ENERGY PREDICTED BY IDOCK:  -12.71 KCAL/MOL
REMARK 923 INTER-LIGAND FREE ENERGY PREDICTED BY IDOCK:  -10.00 KCAL/MOL
REMARK 924 INTRA-LIGAND FREE ENERGY PREDICTED BY IDOCK:   -2.71 KCAL/MOL
REMARK 927      BINDING AFFINITY PREDICTED BY RF-SCORE:    0.00 PKD
ROOT
HETATM    1  C   UNL     1     -10.343  18.076  67.245  1.00  0.00    -0.387 C  
HETATM    2  C   UNL     1     -10.908  17.268  68.404  1.00  0.00    -0.273 C  
ENDROOT
BRANCH   2   3
HETATM    3  N   UNL     1     -10.679  15.727  68.328  1.00  0.00    -0.270 N  
BRANCH   3   4
HETATM    4  C   UNL     1      -9.334  15.423  67.606  1.00  0.00    -0.203 C  
HETATM    5  C   UNL     1      -8.235  14.864  68.474  1.00  0.00    -0.153 C  
ENDBRANCH   3   4
BRANCH   3   6
HETATM    6  C   UNL     1     -11.760  15.066  67.439  1.00  0.00    -0.239 C  
BRANCH   6   7
HETATM    7  C   UNL     1     -11.444  13.942  66.458  1.00  0.00    -0.361 A  
HETATM    8  C   UNL     1     -11.098  13.270  64.119  1.00  0.00    -0.393 A  
HETATM    9  C   UNL     1     -11.317  12.583  66.790  1.00  0.00    -0.390 A  
HETATM   10  C   UNL     1     -11.276  14.260  65.094  1.00  0.00    -0.345 A  
HETATM   11  C   UNL     1     -11.079  11.597  65.831  1.00  0.00    -0.320 A  
HETATM   12 CL   UNL     1     -11.319  15.906  64.559  1.00  0.00    -0.403 Cl 
HETATM   13  C   UNL     1     -10.995  11.935  64.492  1.00  0.00    -0.376 A  
ENDBRANCH   6   7
ENDBRANCH   3   6
BRANCH   3  14
HETATM   14  C   UNL     1     -10.727  15.208  69.822  1.00  0.00    -0.274 C  
BRANCH  14  15
HETATM   15  C   UNL     1     -12.056  14.522  70.292  1.00  0.00    -0.323 C  
BRANCH  15  16
HETATM   16  N   UNL     1     -12.030  13.089  70.551  1.00  0.00    -0.534 N  
HETATM   17  H   UNL     1     -11.377  12.489  70.048  1.00  0.00     0.000 HD 
HETATM   18  C   UNL     1     -12.901  12.544  71.490  1.00  0.00    -0.265 C  
HETATM   19  O   UNL     1     -13.568  13.213  72.261  1.00  0.00    -0.542 OA 
BRANCH  18  20
HETATM   20  C   UNL     1     -12.881  10.997  71.573  1.00  0.00    -0.450 C  
HETATM   21  N   UNL     1     -11.965  10.362  70.733  1.00  0.00    -0.333 N  
HETATM   22  O   UNL     1     -13.620  10.402  72.340  1.00  0.00    -0.235 OA 
HETATM   23  H   UNL     1     -11.590  10.839  69.912  1.00  0.00     0.000 HD 
BRANCH  21  24
HETATM   24  C   UNL     1     -11.556   9.001  71.056  1.00  0.00    -0.300 C  
BRANCH  24  25
HETATM   25  C   UNL     1     -10.138   8.865  71.677  1.00  0.00    -0.341 C  
BRANCH  25  26
HETATM   26  N   UNL     1      -9.485   7.472  71.503  1.00  0.00    -0.150 N  
BRANCH  26  27
HETATM   27  C   UNL     1      -8.607   7.127  72.742  1.00  0.00    -0.114 C  
HETATM   28  C   UNL     1      -8.644   8.150  73.869  1.00  0.00    -0.288 C  
ENDBRANCH  26  27
BRANCH  26  29
HETATM   29  C   UNL     1     -10.626   6.435  71.309  1.00  0.00    -0.230 C  
HETATM   30  C   UNL     1     -10.537   5.595  70.047  1.00  0.00    -0.388 C  
ENDBRANCH  26  29
BRANCH  26  31
HETATM   31  C   UNL     1      -8.541   7.467  70.243  1.00  0.00    -0.145 C  
BRANCH  31  32
HETATM   32  C   UNL     1      -8.101   8.792  69.644  1.00  0.00    -0.101 A  
HETATM   33  C   UNL     1      -7.038   9.520  70.220  1.00  0.00    -0.110 A  
HETATM   34  C   UNL     1      -6.701  10.800  69.769  1.00  0.00    -0.139 A  
HETATM   35  C   UNL     1      -7.430  11.392  68.746  1.00  0.00    -0.124 A  
HETATM   36  C   UNL     1      -8.471  10.689  68.147  1.00  0.00    -0.122 A  
HETATM   37  C   UNL     1      -8.799   9.400  68.582  1.00  0.00    -0.132 A  
HETATM   38 CL   UNL     1     -10.111   8.620  67.774  1.00  0.00    -0.248 Cl 
ENDBRANCH  31  32
ENDBRANCH  26  31
ENDBRANCH  25  26
ENDBRANCH  24  25
ENDBRANCH  21  24
ENDBRANCH  18  20
ENDBRANCH  15  16
ENDBRANCH  14  15
ENDBRANCH   3  14
ENDBRANCH   2   3
TORSDOF 15
ENDMDL
MODEL       60
REMARK 921   NORMALIZED FREE ENERGY PREDICTED BY IDOCK:   -5.35 KCAL/MOL
REMARK 922        TOTAL FREE ENERGY PREDICTED BY IDOCK:  -12.71 KCAL/MOL
REMARK 923 INTER-LIGAND FREE ENERGY PREDICTED BY IDOCK:  -10.03 KCAL/MOL
REMARK 924 INTRA-LIGAND FREE ENERGY PREDICTED BY IDOCK:   -2.68 KCAL/MOL
REMARK 927      BINDING AFFINITY PREDICTED BY RF-SCORE:    0.00 PKD
ROOT
HETATM    1  C   UNL     1      -9.276   4.501  67.837  1.00  0.00    -0.162 C  
HETATM    2  C   UNL     1      -9.166   5.943  67.364  1.00  0.00    -0.108 C  
ENDROOT
BRANCH   2   3
HETATM    3  N   UNL     1      -8.563   6.948  68.393  1.00  0.00    -0.126 N  
BRANCH   3   4
HETATM    4  C   UNL     1      -7.009   6.888  68.349  1.00  0.00    -0.080 C  
HETATM    5  C   UNL     1      -6.332   6.460  69.627  1.00  0.00    -0.038 C  
ENDBRANCH   3   4
BRANCH   3   6
HETATM    6  C   UNL     1      -8.932   6.527  69.835  1.00  0.00    -0.143 C  
BRANCH   6   7
HETATM    7  C   UNL     1     -10.179   7.041  70.549  1.00  0.00    -0.209 A  
HETATM    8  C   UNL     1     -11.113   8.458  72.327  1.00  0.00    -0.438 A  
HETATM    9  C   UNL     1     -11.493   6.606  70.308  1.00  0.00    -0.449 A  
HETATM   10  C   UNL     1     -10.030   8.023  71.551  1.00  0.00    -0.177 A  
HETATM   11  C   UNL     1     -12.585   7.081  71.036  1.00  0.00    -0.338 A  
HETATM   12 CL   UNL     1      -8.479   8.711  71.890  1.00  0.00    -0.229 Cl 
HETATM   13  C   UNL     1     -12.393   7.987  72.063  1.00  0.00    -0.366 A  
ENDBRANCH   6   7
ENDBRANCH   3   6
BRANCH   3  14
HETATM   14  C   UNL     1      -9.152   8.365  68.009  1.00  0.00    -0.137 C  
BRANCH  14  15
HETATM   15  C   UNL     1     -10.045   8.437  66.722  1.00  0.00    -0.303 C  
BRANCH  15  16
HETATM   16  N   UNL     1     -10.299   9.746  66.138  1.00  0.00    -0.196 N  
HETATM   17  H   UNL     1     -10.822  10.449  66.661  1.00  0.00     0.000 HD 
HETATM   18  C   UNL     1      -9.823  10.035  64.862  1.00  0.00    -0.281 C  
HETATM   19  O   UNL     1      -9.034   9.326  64.259  1.00  0.00    -0.193 OA 
BRANCH  18  20
HETATM   20  C   UNL     1     -10.277  11.402  64.293  1.00  0.00    -0.315 C  
HETATM   21  N   UNL     1     -11.195  12.104  65.076  1.00  0.00    -0.315 N  
HETATM   22  O   UNL     1      -9.836  11.817  63.234  1.00  0.00    -0.392 OA 
HETATM   23  H   UNL     1     -11.761  11.623  65.775  1.00  0.00     0.000 HD 
BRANCH  21  24
HETATM   24  C   UNL     1     -11.325  13.541  64.872  1.00  0.00    -0.334 C  
BRANCH  24  25
HETATM   25  C   UNL     1     -10.240  14.410  65.566  1.00  0.00    -0.363 C  
BRANCH  25  26
HETATM   26  N   UNL     1     -10.528  14.743  67.050  1.00  0.00    -0.267 N  
BRANCH  26  27
HETATM   27  C   UNL     1      -9.434  14.121  67.967  1.00  0.00    -0.213 C  
HETATM   28  C   UNL     1      -8.836  15.066  68.999  1.00  0.00    -0.205 C  
ENDBRANCH  26  27
BRANCH  26  29
HETATM   29  C   UNL     1     -10.570  16.290  67.187  1.00  0.00    -0.291 C  
HETATM   30  C   UNL     1     -10.469  17.063  65.885  1.00  0.00    -0.282 C  
ENDBRANCH  26  29
BRANCH  26  31
HETATM   31  C   UNL     1     -11.910  14.131  67.487  1.00  0.00    -0.401 C  
BRANCH  31  32
HETATM   32  C   UNL     1     -11.971  13.254  68.727  1.00  0.00    -0.335 A  
HETATM   33  C   UNL     1     -11.773  11.861  68.628  1.00  0.00    -0.380 A  
HETATM   34  C   UNL     1     -11.953  11.017  69.729  1.00  0.00    -0.428 A  
HETATM   35  C   UNL     1     -12.354  11.543  70.950  1.00  0.00    -0.460 A  
HETATM   36  C   UNL     1     -12.538  12.916  71.081  1.00  0.00    -0.373 A  
HETATM   37  C   UNL     1     -12.340  13.766  69.987  1.00  0.00    -0.300 A  
HETATM   38 CL   UNL     1     -12.600  15.451  70.257  1.00  0.00    -0.402 Cl 
ENDBRANCH  31  32
ENDBRANCH  26  31
ENDBRANCH  25  26
ENDBRANCH  24  25
ENDBRANCH  21  24
ENDBRANCH  18  20
ENDBRANCH  15  16
ENDBRANCH  14  15
ENDBRANCH   3  14
ENDBRANCH   2   3
TORSDOF 15
ENDMDL
MODEL       61
REMARK 921   NORMALIZED FREE ENERGY PREDICTED BY IDOCK:   -5.34 KCAL/MOL
REMARK 922        TOTAL FREE ENERGY PREDICTED BY IDOCK:  -12.68 KCAL/MOL
REMARK 923 INTER-LIGAND FREE ENERGY PREDICTED BY IDOCK:  -10.55 KCAL/MOL
REMARK 924 INTRA-LIGAND FREE ENERGY PREDICTED BY IDOCK:   -2.13 KCAL/MOL
REMARK 927      BINDING AFFINITY PREDICTED BY RF-SCORE:    0.00 PKD
ROOT
HETATM    1  C   UNL     1     -11.983  13.115  66.153  1.00  0.00    -0.478 C  
HETATM    2  C   UNL     1     -12.016  14.464  66.857  1.00  0.00    -0.399 C  
ENDROOT
BRANCH   2   3
HETATM    3  N   UNL     1     -10.629  15.133  67.102  1.00  0.00    -0.289 N  
BRANCH   3   4
HETATM    4  C   UNL     1     -10.620  15.850  68.484  1.00  0.00    -0.263 C  
HETATM    5  C   UNL     1     -11.858  15.667  69.326  1.00  0.00    -0.378 C  
ENDBRANCH   3   4
BRANCH   3   6
HETATM    6  C   UNL     1     -10.386  16.261  66.073  1.00  0.00    -0.349 C  
BRANCH   6   7
HETATM    7  C   UNL     1      -9.931  17.661  66.477  1.00  0.00    -0.332 A  
HETATM    8  C   UNL     1      -8.063  19.137  67.085  1.00  0.00    -0.281 A  
HETATM    9  C   UNL     1     -10.781  18.746  66.750  1.00  0.00    -0.381 A  
HETATM   10  C   UNL     1      -8.549  17.913  66.609  1.00  0.00    -0.262 A  
HETATM   11  C   UNL     1     -10.299  19.988  67.167  1.00  0.00    -0.554 A  
HETATM   12 CL   UNL     1      -7.388  16.691  66.218  1.00  0.00    -0.216 Cl 
HETATM   13  C   UNL     1      -8.942  20.177  67.360  1.00  0.00    -0.453 A  
ENDBRANCH   6   7
ENDBRANCH   3   6
BRANCH   3  14
HETATM   14  C   UNL     1      -9.562  13.970  66.986  1.00  0.00    -0.253 C  
BRANCH  14  15
HETATM   15  C   UNL     1      -8.645  13.722  68.233  1.00  0.00    -0.175 C  
BRANCH  15  16
HETATM   16  N   UNL     1      -8.574  12.372  68.772  1.00  0.00    -0.365 N  
HETATM   17  H   UNL     1      -9.112  12.121  69.602  1.00  0.00     0.000 HD 
HETATM   18  C   UNL     1      -7.769  11.423  68.147  1.00  0.00    -0.118 C  
HETATM   19  O   UNL     1      -7.254  11.589  67.054  1.00  0.00    -0.130 OA 
BRANCH  18  20
HETATM   20  C   UNL     1      -7.663  10.069  68.892  1.00  0.00    -0.089 C  
HETATM   21  N   UNL     1      -7.942  10.112  70.259  1.00  0.00    -0.290 N  
HETATM   22  O   UNL     1      -7.366   9.048  68.295  1.00  0.00    -0.080 OA 
HETATM   23  H   UNL     1      -7.889  10.990  70.776  1.00  0.00     0.000 HD 
BRANCH  21  24
HETATM   24  C   UNL     1      -8.310   8.872  70.931  1.00  0.00    -0.182 C  
BRANCH  24  25
HETATM   25  C   UNL     1      -9.730   8.855  71.559  1.00  0.00    -0.302 C  
BRANCH  25  26
HETATM   26  N   UNL     1     -10.638   7.696  71.081  1.00  0.00    -0.220 N  
BRANCH  26  27
HETATM   27  C   UNL     1      -9.888   6.817  70.037  1.00  0.00    -0.169 C  
HETATM   28  C   UNL     1     -10.275   5.344  70.030  1.00  0.00    -0.349 C  
ENDBRANCH  26  27
BRANCH  26  29
HETATM   29  C   UNL     1     -11.047   6.869  72.330  1.00  0.00    -0.260 C  
HETATM   30  C   UNL     1     -10.443   7.331  73.644  1.00  0.00    -0.391 C  
ENDBRANCH  26  29
BRANCH  26  31
HETATM   31  C   UNL     1     -11.924   8.267  70.374  1.00  0.00     0.188 C  
BRANCH  31  32
HETATM   32  C   UNL     1     -12.297   9.724  70.585  1.00  0.00    -0.248 A  
HETATM   33  C   UNL     1     -11.789  10.724  69.730  1.00  0.00    -0.409 A  
HETATM   34  C   UNL     1     -12.010  12.083  69.981  1.00  0.00    -0.400 A  
HETATM   35  C   UNL     1     -12.728  12.474  71.103  1.00  0.00    -0.340 A  
HETATM   36  C   UNL     1     -13.257  11.509  71.953  1.00  0.00    -0.479 A  
HETATM   37  C   UNL     1     -13.054  10.149  71.695  1.00  0.00    -0.447 A  
HETATM   38 CL   UNL     1     -13.750   9.035  72.817  1.00  0.00    -0.412 Cl 
ENDBRANCH  31  32
ENDBRANCH  26  31
ENDBRANCH  25  26
ENDBRANCH  24  25
ENDBRANCH  21  24
ENDBRANCH  18  20
ENDBRANCH  15  16
ENDBRANCH  14  15
ENDBRANCH   3  14
ENDBRANCH   2   3
TORSDOF 15
ENDMDL
MODEL       62
REMARK 921   NORMALIZED FREE ENERGY PREDICTED BY IDOCK:   -5.33 KCAL/MOL
REMARK 922        TOTAL FREE ENERGY PREDICTED BY IDOCK:  -12.67 KCAL/MOL
REMARK 923 INTER-LIGAND FREE ENERGY PREDICTED BY IDOCK:  -10.31 KCAL/MOL
REMARK 924 INTRA-LIGAND FREE ENERGY PREDICTED BY IDOCK:   -2.36 KCAL/MOL
REMARK 927      BINDING AFFINITY PREDICTED BY RF-SCORE:    0.00 PKD
ROOT
HETATM    1  C   UNL     1     -12.270  14.790  64.306  1.00  0.00    -0.402 C  
HETATM    2  C   UNL     1     -11.317  15.060  65.461  1.00  0.00    -0.312 C  
ENDROOT
BRANCH   2   3
HETATM    3  N   UNL     1     -11.175  13.907  66.503  1.00  0.00    -0.315 N  
BRANCH   3   4
HETATM    4  C   UNL     1      -9.670  13.630  66.789  1.00  0.00    -0.275 C  
HETATM    5  C   UNL     1      -8.745  14.812  66.643  1.00  0.00    -0.229 C  
ENDBRANCH   3   4
BRANCH   3   6
HETATM    6  C   UNL     1     -11.714  12.582  65.917  1.00  0.00    -0.426 C  
BRANCH   6   7
HETATM    7  C   UNL     1     -10.841  11.620  65.115  1.00  0.00    -0.346 A  
HETATM    8  C   UNL     1      -9.417   9.618  65.125  1.00  0.00    -0.332 A  
HETATM    9  C   UNL     1     -10.490  11.774  63.764  1.00  0.00    -0.466 A  
HETATM   10  C   UNL     1     -10.316  10.482  65.762  1.00  0.00    -0.200 A  
HETATM   11  C   UNL     1      -9.642  10.882  63.105  1.00  0.00    -0.384 A  
HETATM   12 CL   UNL     1     -10.740  10.124  67.401  1.00  0.00    -0.333 Cl 
HETATM   13  C   UNL     1      -9.084   9.818  63.790  1.00  0.00    -0.270 A  
ENDBRANCH   6   7
ENDBRANCH   3   6
BRANCH   3  14
HETATM   14  C   UNL     1     -11.985  14.376  67.779  1.00  0.00    -0.333 C  
BRANCH  14  15
HETATM   15  C   UNL     1     -11.338  14.083  69.177  1.00  0.00    -0.281 C  
BRANCH  15  16
HETATM   16  N   UNL     1     -11.415  12.725  69.694  1.00  0.00    -0.467 N  
HETATM   17  H   UNL     1     -10.810  11.996  69.315  1.00  0.00     0.000 HD 
HETATM   18  C   UNL     1     -12.319  12.425  70.709  1.00  0.00    -0.286 C  
HETATM   19  O   UNL     1     -12.932  13.270  71.339  1.00  0.00    -0.352 OA 
BRANCH  18  20
HETATM   20  C   UNL     1     -12.411  10.922  71.075  1.00  0.00    -0.411 C  
HETATM   21  N   UNL     1     -11.216  10.207  70.978  1.00  0.00    -0.315 N  
HETATM   22  O   UNL     1     -13.467  10.428  71.431  1.00  0.00    -0.300 OA 
HETATM   23  H   UNL     1     -10.445  10.552  70.407  1.00  0.00     0.000 HD 
BRANCH  21  24
HETATM   24  C   UNL     1     -11.098   8.954  71.714  1.00  0.00    -0.363 C  
BRANCH  24  25
HETATM   25  C   UNL     1      -9.648   8.535  72.079  1.00  0.00    -0.301 C  
BRANCH  25  26
HETATM   26  N   UNL     1      -9.518   7.124  72.702  1.00  0.00    -0.144 N  
BRANCH  26  27
HETATM   27  C   UNL     1      -8.405   7.113  73.791  1.00  0.00    -0.140 C  
HETATM   28  C   UNL     1      -7.322   6.059  73.604  1.00  0.00    -0.089 C  
ENDBRANCH  26  27
BRANCH  26  29
HETATM   29  C   UNL     1     -10.900   6.741  73.300  1.00  0.00    -0.272 C  
HETATM   30  C   UNL     1     -11.260   5.268  73.220  1.00  0.00    -0.359 C  
ENDBRANCH  26  29
BRANCH  26  31
HETATM   31  C   UNL     1      -9.105   6.077  71.601  1.00  0.00    -0.142 C  
BRANCH  31  32
HETATM   32  C   UNL     1      -9.435   6.366  70.146  1.00  0.00    -0.170 A  
HETATM   33  C   UNL     1     -10.677   5.974  69.602  1.00  0.00    -0.405 A  
HETATM   34  C   UNL     1     -10.952   6.110  68.237  1.00  0.00    -0.397 A  
HETATM   35  C   UNL     1      -9.987   6.623  67.381  1.00  0.00    -0.185 A  
HETATM   36  C   UNL     1      -8.761   7.036  67.894  1.00  0.00    -0.125 A  
HETATM   37  C   UNL     1      -8.489   6.919  69.261  1.00  0.00    -0.129 A  
HETATM   38 CL   UNL     1      -6.935   7.457  69.791  1.00  0.00    -0.055 Cl 
ENDBRANCH  31  32
ENDBRANCH  26  31
ENDBRANCH  25  26
ENDBRANCH  24  25
ENDBRANCH  21  24
ENDBRANCH  18  20
ENDBRANCH  15  16
ENDBRANCH  14  15
ENDBRANCH   3  14
ENDBRANCH   2   3
TORSDOF 15
ENDMDL
MODEL       63
REMARK 921   NORMALIZED FREE ENERGY PREDICTED BY IDOCK:   -5.33 KCAL/MOL
REMARK 922        TOTAL FREE ENERGY PREDICTED BY IDOCK:  -12.66 KCAL/MOL
REMARK 923 INTER-LIGAND FREE ENERGY PREDICTED BY IDOCK:   -9.95 KCAL/MOL
REMARK 924 INTRA-LIGAND FREE ENERGY PREDICTED BY IDOCK:   -2.72 KCAL/MOL
REMARK 927      BINDING AFFINITY PREDICTED BY RF-SCORE:    0.00 PKD
ROOT
HETATM    1  C   UNL     1     -11.699  14.846  64.691  1.00  0.00    -0.406 C  
HETATM    2  C   UNL     1     -10.495  13.918  64.626  1.00  0.00    -0.396 C  
ENDROOT
BRANCH   2   3
HETATM    3  N   UNL     1     -10.351  12.914  65.811  1.00  0.00    -0.280 N  
BRANCH   3   4
HETATM    4  C   UNL     1      -9.968  11.505  65.272  1.00  0.00    -0.260 C  
HETATM    5  C   UNL     1     -10.571  11.125  63.943  1.00  0.00    -0.431 C  
ENDBRANCH   3   4
BRANCH   3   6
HETATM    6  C   UNL     1     -11.714  12.710  66.512  1.00  0.00    -0.400 C  
BRANCH   6   7
HETATM    7  C   UNL     1     -11.891  12.832  68.023  1.00  0.00    -0.386 A  
HETATM    8  C   UNL     1     -12.044  11.683  70.190  1.00  0.00    -0.414 A  
HETATM    9  C   UNL     1     -12.172  14.021  68.716  1.00  0.00    -0.237 A  
HETATM   10  C   UNL     1     -11.782  11.669  68.814  1.00  0.00    -0.330 A  
HETATM   11  C   UNL     1     -12.373  14.053  70.097  1.00  0.00    -0.409 A  
HETATM   12 CL   UNL     1     -11.353  10.152  68.100  1.00  0.00    -0.251 Cl 
HETATM   13  C   UNL     1     -12.336  12.881  70.832  1.00  0.00    -0.365 A  
ENDBRANCH   6   7
ENDBRANCH   3   6
BRANCH   3  14
HETATM   14  C   UNL     1      -9.264  13.539  66.777  1.00  0.00    -0.240 C  
BRANCH  14  15
HETATM   15  C   UNL     1      -8.089  12.601  67.223  1.00  0.00    -0.178 C  
BRANCH  15  16
HETATM   16  N   UNL     1      -8.207  11.922  68.506  1.00  0.00    -0.229 N  
HETATM   17  H   UNL     1      -8.599  12.410  69.311  1.00  0.00     0.000 HD 
HETATM   18  C   UNL     1      -7.781  10.602  68.626  1.00  0.00    -0.110 C  
HETATM   19  O   UNL     1      -7.485   9.898  67.676  1.00  0.00    -0.089 OA 
BRANCH  18  20
HETATM   20  C   UNL     1      -7.823  10.036  70.068  1.00  0.00    -0.158 C  
HETATM   21  N   UNL     1      -9.090   9.694  70.543  1.00  0.00    -0.321 N  
HETATM   22  O   UNL     1      -6.799   9.898  70.716  1.00  0.00    -0.247 OA 
HETATM   23  H   UNL     1      -9.931  10.088  70.120  1.00  0.00     0.000 HD 
BRANCH  21  24
HETATM   24  C   UNL     1      -9.184   8.761  71.659  1.00  0.00    -0.263 C  
BRANCH  24  25
HETATM   25  C   UNL     1      -9.310   7.265  71.263  1.00  0.00    -0.154 C  
BRANCH  25  26
HETATM   26  N   UNL     1     -10.531   6.533  71.873  1.00  0.00    -0.204 N  
BRANCH  26  27
HETATM   27  C   UNL     1     -10.080   5.614  73.046  1.00  0.00    -0.181 C  
HETATM   28  C   UNL     1     -11.046   4.493  73.402  1.00  0.00    -0.408 C  
ENDBRANCH  26  27
BRANCH  26  29
HETATM   29  C   UNL     1     -11.538   7.613  72.354  1.00  0.00    -0.336 C  
HETATM   30  C   UNL     1     -12.917   7.545  71.723  1.00  0.00    -0.364 C  
ENDBRANCH  26  29
BRANCH  26  31
HETATM   31  C   UNL     1     -11.211   5.613  70.792  1.00  0.00    -0.028 C  
BRANCH  31  32
HETATM   32  C   UNL     1     -10.667   5.614  69.373  1.00  0.00    -0.365 A  
HETATM   33  C   UNL     1     -11.106   6.576  68.439  1.00  0.00    -0.340 A  
HETATM   34  C   UNL     1     -10.722   6.518  67.095  1.00  0.00    -0.438 A  
HETATM   35  C   UNL     1      -9.907   5.487  66.649  1.00  0.00    -0.190 A  
HETATM   36  C   UNL     1      -9.444   4.535  67.552  1.00  0.00    -0.193 A  
HETATM   37  C   UNL     1      -9.810   4.600  68.901  1.00  0.00    -0.140 A  
HETATM   38 CL   UNL     1      -9.184   3.367  69.935  1.00  0.00    -0.206 Cl 
ENDBRANCH  31  32
ENDBRANCH  26  31
ENDBRANCH  25  26
ENDBRANCH  24  25
ENDBRANCH  21  24
ENDBRANCH  18  20
ENDBRANCH  15  16
ENDBRANCH  14  15
ENDBRANCH   3  14
ENDBRANCH   2   3
TORSDOF 15
ENDMDL
MODEL       64
REMARK 921   NORMALIZED FREE ENERGY PREDICTED BY IDOCK:   -5.32 KCAL/MOL
REMARK 922        TOTAL FREE ENERGY PREDICTED BY IDOCK:  -12.65 KCAL/MOL
REMARK 923 INTER-LIGAND FREE ENERGY PREDICTED BY IDOCK:  -11.53 KCAL/MOL
REMARK 924 INTRA-LIGAND FREE ENERGY PREDICTED BY IDOCK:   -1.12 KCAL/MOL
REMARK 927      BINDING AFFINITY PREDICTED BY RF-SCORE:    0.00 PKD
ROOT
HETATM    1  C   UNL     1      -9.432   8.585  72.211  1.00  0.00    -0.365 C  
HETATM    2  C   UNL     1     -10.637   7.674  72.396  1.00  0.00    -0.260 C  
ENDROOT
BRANCH   2   3
HETATM    3  N   UNL     1     -11.783   7.847  71.352  1.00  0.00    -0.274 N  
BRANCH   3   4
HETATM    4  C   UNL     1     -12.898   6.791  71.606  1.00  0.00    -0.276 C  
HETATM    5  C   UNL     1     -14.315   7.286  71.461  1.00  0.00    -0.558 C  
ENDBRANCH   3   4
BRANCH   3   6
HETATM    6  C   UNL     1     -11.264   7.536  69.928  1.00  0.00    -0.108 C  
BRANCH   6   7
HETATM    7  C   UNL     1     -10.625   6.201  69.558  1.00  0.00    -0.350 A  
HETATM    8  C   UNL     1     -10.082   4.583  67.789  1.00  0.00    -0.060 A  
HETATM    9  C   UNL     1     -10.103   5.268  70.470  1.00  0.00    -0.315 A  
HETATM   10  C   UNL     1     -10.551   5.839  68.197  1.00  0.00    -0.216 A  
HETATM   11  C   UNL     1      -9.578   4.039  70.065  1.00  0.00    -0.274 A  
HETATM   12 CL   UNL     1     -11.076   6.932  66.962  1.00  0.00    -0.427 Cl 
HETATM   13  C   UNL     1      -9.591   3.684  68.728  1.00  0.00    -0.159 A  
ENDBRANCH   6   7
ENDBRANCH   3   6
BRANCH   3  14
HETATM   14  C   UNL     1     -12.280   9.342  71.500  1.00  0.00    -0.362 C  
BRANCH  14  15
HETATM   15  C   UNL     1     -12.084  10.280  70.260  1.00  0.00    -0.249 C  
BRANCH  15  16
HETATM   16  N   UNL     1     -11.807  11.688  70.505  1.00  0.00    -0.488 N  
HETATM   17  H   UNL     1     -11.525  12.001  71.434  1.00  0.00     0.000 HD 
HETATM   18  C   UNL     1     -11.930  12.605  69.465  1.00  0.00    -0.270 C  
HETATM   19  O   UNL     1     -12.072  12.286  68.297  1.00  0.00    -0.363 OA 
BRANCH  18  20
HETATM   20  C   UNL     1     -11.751  14.087  69.880  1.00  0.00    -0.303 C  
HETATM   21  N   UNL     1     -10.502  14.643  69.598  1.00  0.00    -0.427 N  
HETATM   22  O   UNL     1     -12.662  14.704  70.407  1.00  0.00    -0.348 OA 
HETATM   23  H   UNL     1      -9.687  14.048  69.446  1.00  0.00     0.000 HD 
BRANCH  21  24
HETATM   24  C   UNL     1     -10.390  16.095  69.526  1.00  0.00    -0.282 C  
BRANCH  24  25
HETATM   25  C   UNL     1     -10.914  16.735  68.212  1.00  0.00    -0.327 C  
BRANCH  25  26
HETATM   26  N   UNL     1      -9.937  17.733  67.542  1.00  0.00    -0.311 N  
BRANCH  26  27
HETATM   27  C   UNL     1     -10.653  19.087  67.264  1.00  0.00    -0.470 C  
HETATM   28  C   UNL     1     -10.443  19.658  65.868  1.00  0.00    -0.591 C  
ENDBRANCH  26  27
BRANCH  26  29
HETATM   29  C   UNL     1      -8.723  17.918  68.495  1.00  0.00    -0.292 C  
HETATM   30  C   UNL     1      -8.340  19.357  68.790  1.00  0.00    -0.379 C  
ENDBRANCH  26  29
BRANCH  26  31
HETATM   31  C   UNL     1      -9.446  17.168  66.157  1.00  0.00    -0.201 C  
BRANCH  31  32
HETATM   32  C   UNL     1     -10.155  15.966  65.556  1.00  0.00    -0.353 A  
HETATM   33  C   UNL     1     -11.279  16.142  64.722  1.00  0.00    -0.313 A  
HETATM   34  C   UNL     1     -12.027  15.051  64.264  1.00  0.00    -0.310 A  
HETATM   35  C   UNL     1     -11.680  13.762  64.645  1.00  0.00    -0.417 A  
HETATM   36  C   UNL     1     -10.565  13.559  65.451  1.00  0.00    -0.313 A  
HETATM   37  C   UNL     1      -9.803  14.645  65.895  1.00  0.00    -0.330 A  
HETATM   38 CL   UNL     1      -8.443  14.281  66.895  1.00  0.00    -0.183 Cl 
ENDBRANCH  31  32
ENDBRANCH  26  31
ENDBRANCH  25  26
ENDBRANCH  24  25
ENDBRANCH  21  24
ENDBRANCH  18  20
ENDBRANCH  15  16
ENDBRANCH  14  15
ENDBRANCH   3  14
ENDBRANCH   2   3
TORSDOF 15
ENDMDL
MODEL       65
REMARK 921   NORMALIZED FREE ENERGY PREDICTED BY IDOCK:   -5.29 KCAL/MOL
REMARK 922        TOTAL FREE ENERGY PREDICTED BY IDOCK:  -12.59 KCAL/MOL
REMARK 923 INTER-LIGAND FREE ENERGY PREDICTED BY IDOCK:  -10.70 KCAL/MOL
REMARK 924 INTRA-LIGAND FREE ENERGY PREDICTED BY IDOCK:   -1.89 KCAL/MOL
REMARK 927      BINDING AFFINITY PREDICTED BY RF-SCORE:    0.00 PKD
ROOT
HETATM    1  C   UNL     1      -7.688   9.633  70.536  1.00  0.00    -0.152 C  
HETATM    2  C   UNL     1      -8.670   9.665  69.375  1.00  0.00    -0.171 C  
ENDROOT
BRANCH   2   3
HETATM    3  N   UNL     1     -10.074   9.048  69.660  1.00  0.00    -0.190 N  
BRANCH   3   4
HETATM    4  C   UNL     1      -9.923   7.567  70.113  1.00  0.00    -0.192 C  
HETATM    5  C   UNL     1     -11.054   6.645  69.732  1.00  0.00    -0.398 C  
ENDBRANCH   3   4
BRANCH   3   6
HETATM    6  C   UNL     1     -10.906   8.977  68.358  1.00  0.00    -0.011 C  
BRANCH   6   7
HETATM    7  C   UNL     1     -10.512   9.725  67.088  1.00  0.00    -0.316 A  
HETATM    8  C   UNL     1      -9.298   9.683  64.951  1.00  0.00    -0.306 A  
HETATM    9  C   UNL     1     -10.793  11.075  66.817  1.00  0.00    -0.307 A  
HETATM   10  C   UNL     1      -9.792   9.034  66.090  1.00  0.00    -0.278 A  
HETATM   11  C   UNL     1     -10.356  11.712  65.655  1.00  0.00    -0.306 A  
HETATM   12 CL   UNL     1      -9.455   7.345  66.254  1.00  0.00    -0.184 Cl 
HETATM   13  C   UNL     1      -9.586  11.025  64.733  1.00  0.00    -0.292 A  
ENDBRANCH   6   7
ENDBRANCH   3   6
BRANCH   3  14
HETATM   14  C   UNL     1     -10.741   9.979  70.752  1.00  0.00    -0.202 C  
BRANCH  14  15
HETATM   15  C   UNL     1     -11.963  10.847  70.293  1.00  0.00    -0.361 C  
BRANCH  15  16
HETATM   16  N   UNL     1     -11.738  12.261  70.033  1.00  0.00    -0.503 N  
HETATM   17  H   UNL     1     -11.137  12.551  69.262  1.00  0.00     0.000 HD 
HETATM   18  C   UNL     1     -12.348  13.215  70.842  1.00  0.00    -0.307 C  
HETATM   19  O   UNL     1     -13.222  12.956  71.652  1.00  0.00    -0.388 OA 
BRANCH  18  20
HETATM   20  C   UNL     1     -11.920  14.677  70.559  1.00  0.00    -0.310 C  
HETATM   21  N   UNL     1     -10.597  14.846  70.147  1.00  0.00    -0.473 N  
HETATM   22  O   UNL     1     -12.711  15.597  70.685  1.00  0.00    -0.454 OA 
HETATM   23  H   UNL     1      -9.895  14.131  70.336  1.00  0.00     0.000 HD 
BRANCH  21  24
HETATM   24  C   UNL     1     -10.243  16.070  69.438  1.00  0.00    -0.270 C  
BRANCH  24  25
HETATM   25  C   UNL     1      -9.794  15.876  67.964  1.00  0.00    -0.218 C  
BRANCH  25  26
HETATM   26  N   UNL     1      -9.743  17.176  67.125  1.00  0.00    -0.254 N  
BRANCH  26  27
HETATM   27  C   UNL     1     -10.586  17.016  65.826  1.00  0.00    -0.211 C  
HETATM   28  C   UNL     1     -10.670  15.598  65.276  1.00  0.00    -0.444 C  
ENDBRANCH  26  27
BRANCH  26  29
HETATM   29  C   UNL     1     -10.281  18.333  68.012  1.00  0.00    -0.385 C  
HETATM   30  C   UNL     1     -11.013  19.436  67.269  1.00  0.00    -0.454 C  
ENDBRANCH  26  29
BRANCH  26  31
HETATM   31  C   UNL     1      -8.262  17.484  66.688  1.00  0.00    -0.256 C  
BRANCH  31  32
HETATM   32  C   UNL     1      -7.566  18.712  67.249  1.00  0.00    -0.233 A  
HETATM   33  C   UNL     1      -7.557  19.923  66.525  1.00  0.00    -0.303 A  
HETATM   34  C   UNL     1      -6.814  21.027  66.957  1.00  0.00    -0.397 A  
HETATM   35  C   UNL     1      -6.048  20.941  68.111  1.00  0.00    -0.395 A  
HETATM   36  C   UNL     1      -6.053  19.765  68.855  1.00  0.00    -0.299 A  
HETATM   37  C   UNL     1      -6.810  18.665  68.437  1.00  0.00    -0.249 A  
HETATM   38 CL   UNL     1      -6.743  17.255  69.432  1.00  0.00    -0.229 Cl 
ENDBRANCH  31  32
ENDBRANCH  26  31
ENDBRANCH  25  26
ENDBRANCH  24  25
ENDBRANCH  21  24
ENDBRANCH  18  20
ENDBRANCH  15  16
ENDBRANCH  14  15
ENDBRANCH   3  14
ENDBRANCH   2   3
TORSDOF 15
ENDMDL
MODEL       66
REMARK 921   NORMALIZED FREE ENERGY PREDICTED BY IDOCK:   -5.29 KCAL/MOL
REMARK 922        TOTAL FREE ENERGY PREDICTED BY IDOCK:  -12.58 KCAL/MOL
REMARK 923 INTER-LIGAND FREE ENERGY PREDICTED BY IDOCK:  -10.47 KCAL/MOL
REMARK 924 INTRA-LIGAND FREE ENERGY PREDICTED BY IDOCK:   -2.11 KCAL/MOL
REMARK 927      BINDING AFFINITY PREDICTED BY RF-SCORE:    0.00 PKD
ROOT
HETATM    1  C   UNL     1     -12.145   8.043  72.375  1.00  0.00    -0.374 C  
HETATM    2  C   UNL     1     -12.148   8.053  70.853  1.00  0.00    -0.152 C  
ENDROOT
BRANCH   2   3
HETATM    3  N   UNL     1     -11.078   8.968  70.181  1.00  0.00    -0.232 N  
BRANCH   3   4
HETATM    4  C   UNL     1     -10.352   8.191  69.044  1.00  0.00    -0.218 C  
HETATM    5  C   UNL     1     -10.324   8.872  67.699  1.00  0.00    -0.313 C  
ENDBRANCH   3   4
BRANCH   3   6
HETATM    6  C   UNL     1      -9.960   9.319  71.191  1.00  0.00    -0.286 C  
BRANCH   6   7
HETATM    7  C   UNL     1      -8.668   8.516  71.302  1.00  0.00    -0.228 A  
HETATM    8  C   UNL     1      -6.338   8.229  70.576  1.00  0.00    -0.036 A  
HETATM    9  C   UNL     1      -8.510   7.326  72.032  1.00  0.00    -0.116 A  
HETATM   10  C   UNL     1      -7.524   8.973  70.614  1.00  0.00    -0.110 A  
HETATM   11  C   UNL     1      -7.311   6.611  72.048  1.00  0.00    -0.090 A  
HETATM   12 CL   UNL     1      -7.554  10.471  69.748  1.00  0.00    -0.140 Cl 
HETATM   13  C   UNL     1      -6.232   7.047  71.300  1.00  0.00    -0.037 A  
ENDBRANCH   6   7
ENDBRANCH   3   6
BRANCH   3  14
HETATM   14  C   UNL     1     -11.859  10.247  69.676  1.00  0.00    -0.111 C  
BRANCH  14  15
HETATM   15  C   UNL     1     -12.356  11.253  70.771  1.00  0.00    -0.398 C  
BRANCH  15  16
HETATM   16  N   UNL     1     -12.072  12.668  70.579  1.00  0.00    -0.500 N  
HETATM   17  H   UNL     1     -11.415  12.966  69.857  1.00  0.00     0.000 HD 
HETATM   18  C   UNL     1     -12.701  13.612  71.385  1.00  0.00    -0.352 C  
HETATM   19  O   UNL     1     -13.631  13.352  72.130  1.00  0.00    -0.486 OA 
BRANCH  18  20
HETATM   20  C   UNL     1     -12.212  15.068  71.184  1.00  0.00    -0.320 C  
HETATM   21  N   UNL     1     -11.047  15.211  70.428  1.00  0.00    -0.344 N  
HETATM   22  O   UNL     1     -12.830  16.007  71.657  1.00  0.00    -0.441 OA 
HETATM   23  H   UNL     1     -10.402  14.430  70.308  1.00  0.00     0.000 HD 
BRANCH  21  24
HETATM   24  C   UNL     1     -10.773  16.505  69.815  1.00  0.00    -0.298 C  
BRANCH  24  25
HETATM   25  C   UNL     1     -10.778  16.516  68.262  1.00  0.00    -0.345 C  
BRANCH  25  26
HETATM   26  N   UNL     1      -9.391  16.743  67.611  1.00  0.00    -0.227 N  
BRANCH  26  27
HETATM   27  C   UNL     1      -9.362  18.107  66.860  1.00  0.00    -0.278 C  
HETATM   28  C   UNL     1     -10.617  18.956  67.006  1.00  0.00    -0.510 C  
ENDBRANCH  26  27
BRANCH  26  29
HETATM   29  C   UNL     1      -8.325  16.693  68.739  1.00  0.00    -0.252 C  
HETATM   30  C   UNL     1      -7.314  17.826  68.731  1.00  0.00    -0.271 C  
ENDBRANCH  26  29
BRANCH  26  31
HETATM   31  C   UNL     1      -9.097  15.618  66.550  1.00  0.00    -0.303 C  
BRANCH  31  32
HETATM   32  C   UNL     1     -10.240  14.741  66.066  1.00  0.00    -0.320 A  
HETATM   33  C   UNL     1     -11.070  15.167  65.007  1.00  0.00    -0.428 A  
HETATM   34  C   UNL     1     -12.205  14.441  64.632  1.00  0.00    -0.479 A  
HETATM   35  C   UNL     1     -12.550  13.284  65.318  1.00  0.00    -0.528 A  
HETATM   36  C   UNL     1     -11.739  12.831  66.353  1.00  0.00    -0.464 A  
HETATM   37  C   UNL     1     -10.592  13.543  66.720  1.00  0.00    -0.272 A  
HETATM   38 CL   UNL     1      -9.659  12.896  68.021  1.00  0.00    -0.215 Cl 
ENDBRANCH  31  32
ENDBRANCH  26  31
ENDBRANCH  25  26
ENDBRANCH  24  25
ENDBRANCH  21  24
ENDBRANCH  18  20
ENDBRANCH  15  16
ENDBRANCH  14  15
ENDBRANCH   3  14
ENDBRANCH   2   3
TORSDOF 15
ENDMDL
MODEL       67
REMARK 921   NORMALIZED FREE ENERGY PREDICTED BY IDOCK:   -5.28 KCAL/MOL
REMARK 922        TOTAL FREE ENERGY PREDICTED BY IDOCK:  -12.57 KCAL/MOL
REMARK 923 INTER-LIGAND FREE ENERGY PREDICTED BY IDOCK:  -10.68 KCAL/MOL
REMARK 924 INTRA-LIGAND FREE ENERGY PREDICTED BY IDOCK:   -1.89 KCAL/MOL
REMARK 927      BINDING AFFINITY PREDICTED BY RF-SCORE:    0.00 PKD
ROOT
HETATM    1  C   UNL     1     -10.328  17.030  66.587  1.00  0.00    -0.299 C  
HETATM    2  C   UNL     1     -10.988  16.399  67.804  1.00  0.00    -0.261 C  
ENDROOT
BRANCH   2   3
HETATM    3  N   UNL     1     -10.814  14.856  67.945  1.00  0.00    -0.269 N  
BRANCH   3   4
HETATM    4  C   UNL     1      -9.562  14.386  67.147  1.00  0.00    -0.250 C  
HETATM    5  C   UNL     1      -8.562  13.564  67.920  1.00  0.00    -0.182 C  
ENDBRANCH   3   4
BRANCH   3   6
HETATM    6  C   UNL     1     -12.001  14.118  67.282  1.00  0.00    -0.414 C  
BRANCH   6   7
HETATM    7  C   UNL     1     -11.879  13.399  65.942  1.00  0.00    -0.414 A  
HETATM    8  C   UNL     1     -11.229  11.359  64.736  1.00  0.00    -0.197 A  
HETATM    9  C   UNL     1     -12.127  13.975  64.684  1.00  0.00    -0.462 A  
HETATM   10  C   UNL     1     -11.472  12.049  65.930  1.00  0.00    -0.333 A  
HETATM   11  C   UNL     1     -11.945  13.274  63.491  1.00  0.00    -0.537 A  
HETATM   12 CL   UNL     1     -11.220  11.191  67.412  1.00  0.00    -0.365 Cl 
HETATM   13  C   UNL     1     -11.471  11.975  63.514  1.00  0.00    -0.536 A  
ENDBRANCH   6   7
ENDBRANCH   3   6
BRANCH   3  14
HETATM   14  C   UNL     1     -10.718  14.571  69.498  1.00  0.00    -0.146 C  
BRANCH  14  15
HETATM   15  C   UNL     1     -12.002  14.002  70.196  1.00  0.00    -0.330 C  
BRANCH  15  16
HETATM   16  N   UNL     1     -12.013  12.594  70.562  1.00  0.00    -0.533 N  
HETATM   17  H   UNL     1     -11.353  11.946  70.131  1.00  0.00     0.000 HD 
HETATM   18  C   UNL     1     -12.929  12.135  71.504  1.00  0.00    -0.295 C  
HETATM   19  O   UNL     1     -13.612  12.871  72.197  1.00  0.00    -0.528 OA 
BRANCH  18  20
HETATM   20  C   UNL     1     -12.942  10.599  71.704  1.00  0.00    -0.477 C  
HETATM   21  N   UNL     1     -11.734   9.950  71.444  1.00  0.00    -0.381 N  
HETATM   22  O   UNL     1     -13.951  10.024  72.075  1.00  0.00    -0.142 OA 
HETATM   23  H   UNL     1     -11.019  10.388  70.863  1.00  0.00     0.000 HD 
BRANCH  21  24
HETATM   24  C   UNL     1     -11.518   8.629  72.024  1.00  0.00    -0.367 C  
BRANCH  24  25
HETATM   25  C   UNL     1     -10.054   8.113  71.968  1.00  0.00    -0.237 C  
BRANCH  25  26
HETATM   26  N   UNL     1      -9.784   7.045  70.881  1.00  0.00    -0.174 N  
BRANCH  26  27
HETATM   27  C   UNL     1     -11.127   6.509  70.303  1.00  0.00    -0.335 C  
HETATM   28  C   UNL     1     -11.096   6.133  68.828  1.00  0.00    -0.398 C  
ENDBRANCH  26  27
BRANCH  26  29
HETATM   29  C   UNL     1      -8.914   7.704  69.776  1.00  0.00    -0.140 C  
HETATM   30  C   UNL     1      -8.354   9.074  70.117  1.00  0.00    -0.156 C  
ENDBRANCH  26  29
BRANCH  26  31
HETATM   31  C   UNL     1      -9.018   5.817  71.501  1.00  0.00    -0.140 C  
BRANCH  31  32
HETATM   32  C   UNL     1      -9.816   4.706  72.163  1.00  0.00    -0.232 A  
HETATM   33  C   UNL     1     -10.395   4.900  73.435  1.00  0.00    -0.236 A  
HETATM   34  C   UNL     1     -11.020   3.853  74.120  1.00  0.00    -0.165 A  
HETATM   35  C   UNL     1     -11.065   2.584  73.560  1.00  0.00    -0.315 A  
HETATM   36  C   UNL     1     -10.519   2.369  72.299  1.00  0.00    -0.075 A  
HETATM   37  C   UNL     1      -9.910   3.417  71.601  1.00  0.00    -0.152 A  
HETATM   38 CL   UNL     1      -9.260   3.040  70.046  1.00  0.00    -0.203 Cl 
ENDBRANCH  31  32
ENDBRANCH  26  31
ENDBRANCH  25  26
ENDBRANCH  24  25
ENDBRANCH  21  24
ENDBRANCH  18  20
ENDBRANCH  15  16
ENDBRANCH  14  15
ENDBRANCH   3  14
ENDBRANCH   2   3
TORSDOF 15
ENDMDL
MODEL       68
REMARK 921   NORMALIZED FREE ENERGY PREDICTED BY IDOCK:   -5.28 KCAL/MOL
REMARK 922        TOTAL FREE ENERGY PREDICTED BY IDOCK:  -12.57 KCAL/MOL
REMARK 923 INTER-LIGAND FREE ENERGY PREDICTED BY IDOCK:   -9.94 KCAL/MOL
REMARK 924 INTRA-LIGAND FREE ENERGY PREDICTED BY IDOCK:   -2.63 KCAL/MOL
REMARK 927      BINDING AFFINITY PREDICTED BY RF-SCORE:    0.00 PKD
ROOT
HETATM    1  C   UNL     1     -10.735  15.887  65.147  1.00  0.00    -0.449 C  
HETATM    2  C   UNL     1     -10.285  14.453  65.385  1.00  0.00    -0.382 C  
ENDROOT
BRANCH   2   3
HETATM    3  N   UNL     1     -10.798  13.794  66.703  1.00  0.00    -0.287 N  
BRANCH   3   4
HETATM    4  C   UNL     1     -11.668  12.546  66.371  1.00  0.00    -0.397 C  
HETATM    5  C   UNL     1     -12.216  12.483  64.968  1.00  0.00    -0.519 C  
ENDBRANCH   3   4
BRANCH   3   6
HETATM    6  C   UNL     1     -11.756  14.754  67.447  1.00  0.00    -0.350 C  
BRANCH   6   7
HETATM    7  C   UNL     1     -11.853  14.805  68.969  1.00  0.00    -0.337 A  
HETATM    8  C   UNL     1     -11.345  16.031  71.037  1.00  0.00    -0.423 A  
HETATM    9  C   UNL     1     -12.356  13.780  69.787  1.00  0.00    -0.311 A  
HETATM   10  C   UNL     1     -11.394  15.958  69.639  1.00  0.00    -0.342 A  
HETATM   11  C   UNL     1     -12.367  13.871  71.180  1.00  0.00    -0.440 A  
HETATM   12 CL   UNL     1     -10.831  17.331  68.749  1.00  0.00    -0.236 Cl 
HETATM   13  C   UNL     1     -11.838  14.985  71.808  1.00  0.00    -0.455 A  
ENDBRANCH   6   7
ENDBRANCH   3   6
BRANCH   3  14
HETATM   14  C   UNL     1      -9.504  13.457  67.549  1.00  0.00    -0.219 C  
BRANCH  14  15
HETATM   15  C   UNL     1      -8.319  12.768  66.789  1.00  0.00     0.019 C  
BRANCH  15  16
HETATM   16  N   UNL     1      -8.093  11.348  67.019  1.00  0.00    -0.151 N  
HETATM   17  H   UNL     1      -7.666  11.032  67.889  1.00  0.00     0.000 HD 
HETATM   18  C   UNL     1      -8.464  10.426  66.046  1.00  0.00    -0.146 C  
HETATM   19  O   UNL     1      -9.148  10.705  65.075  1.00  0.00    -0.187 OA 
BRANCH  18  20
HETATM   20  C   UNL     1      -8.044   8.964  66.341  1.00  0.00    -0.110 C  
HETATM   21  N   UNL     1      -7.678   8.701  67.663  1.00  0.00    -0.101 N  
HETATM   22  O   UNL     1      -8.053   8.120  65.462  1.00  0.00    -0.114 OA 
HETATM   23  H   UNL     1      -7.393   9.455  68.287  1.00  0.00     0.000 HD 
BRANCH  21  24
HETATM   24  C   UNL     1      -7.713   7.320  68.129  1.00  0.00    -0.117 C  
BRANCH  24  25
HETATM   25  C   UNL     1      -7.698   7.141  69.671  1.00  0.00    -0.109 C  
BRANCH  25  26
HETATM   26  N   UNL     1      -9.097   7.109  70.334  1.00  0.00    -0.155 N  
BRANCH  26  27
HETATM   27  C   UNL     1     -10.212   7.143  69.247  1.00  0.00    -0.190 C  
HETATM   28  C   UNL     1     -11.103   5.909  69.193  1.00  0.00    -0.328 C  
ENDBRANCH  26  27
BRANCH  26  29
HETATM   29  C   UNL     1      -9.184   5.819  71.196  1.00  0.00    -0.153 C  
HETATM   30  C   UNL     1      -7.995   5.562  72.104  1.00  0.00    -0.107 C  
ENDBRANCH  26  29
BRANCH  26  31
HETATM   31  C   UNL     1      -9.296   8.375  71.248  1.00  0.00    -0.187 C  
BRANCH  31  32
HETATM   32  C   UNL     1     -10.706   8.859  71.543  1.00  0.00    -0.398 A  
HETATM   33  C   UNL     1     -11.513   8.183  72.482  1.00  0.00    -0.470 A  
HETATM   34  C   UNL     1     -12.855   8.527  72.675  1.00  0.00    -0.224 A  
HETATM   35  C   UNL     1     -13.428   9.542  71.920  1.00  0.00    -0.502 A  
HETATM   36  C   UNL     1     -12.650  10.239  71.001  1.00  0.00    -0.487 A  
HETATM   37  C   UNL     1     -11.302   9.910  70.818  1.00  0.00    -0.353 A  
HETATM   38 CL   UNL     1     -10.430  10.834  69.649  1.00  0.00    -0.223 Cl 
ENDBRANCH  31  32
ENDBRANCH  26  31
ENDBRANCH  25  26
ENDBRANCH  24  25
ENDBRANCH  21  24
ENDBRANCH  18  20
ENDBRANCH  15  16
ENDBRANCH  14  15
ENDBRANCH   3  14
ENDBRANCH   2   3
TORSDOF 15
ENDMDL
MODEL       69
REMARK 921   NORMALIZED FREE ENERGY PREDICTED BY IDOCK:   -5.27 KCAL/MOL
REMARK 922        TOTAL FREE ENERGY PREDICTED BY IDOCK:  -12.55 KCAL/MOL
REMARK 923 INTER-LIGAND FREE ENERGY PREDICTED BY IDOCK:  -10.77 KCAL/MOL
REMARK 924 INTRA-LIGAND FREE ENERGY PREDICTED BY IDOCK:   -1.78 KCAL/MOL
REMARK 927      BINDING AFFINITY PREDICTED BY RF-SCORE:    0.00 PKD
ROOT
HETATM    1  C   UNL     1     -10.655   5.921  68.891  1.00  0.00    -0.357 C  
HETATM    2  C   UNL     1      -9.416   6.696  69.313  1.00  0.00    -0.141 C  
ENDROOT
BRANCH   2   3
HETATM    3  N   UNL     1      -9.311   8.153  68.765  1.00  0.00    -0.144 N  
BRANCH   3   4
HETATM    4  C   UNL     1      -7.863   8.431  68.265  1.00  0.00    -0.110 C  
HETATM    5  C   UNL     1      -7.437   9.877  68.259  1.00  0.00    -0.080 C  
ENDBRANCH   3   4
BRANCH   3   6
HETATM    6  C   UNL     1      -9.536   9.175  69.904  1.00  0.00    -0.186 C  
BRANCH   6   7
HETATM    7  C   UNL     1     -10.836   9.248  70.699  1.00  0.00    -0.339 A  
HETATM    8  C   UNL     1     -12.898  10.493  71.189  1.00  0.00    -0.513 A  
HETATM    9  C   UNL     1     -11.220   8.358  71.716  1.00  0.00    -0.360 A  
HETATM   10  C   UNL     1     -11.741  10.295  70.424  1.00  0.00    -0.319 A  
HETATM   11  C   UNL     1     -12.402   8.515  72.442  1.00  0.00    -0.424 A  
HETATM   12 CL   UNL     1     -11.435  11.411  69.137  1.00  0.00    -0.328 Cl 
HETATM   13  C   UNL     1     -13.229   9.596  72.197  1.00  0.00    -0.535 A  
ENDBRANCH   6   7
ENDBRANCH   3   6
BRANCH   3  14
HETATM   14  C   UNL     1     -10.406   8.266  67.628  1.00  0.00    -0.248 C  
BRANCH  14  15
HETATM   15  C   UNL     1      -9.938   8.844  66.247  1.00  0.00    -0.266 C  
BRANCH  15  16
HETATM   16  N   UNL     1     -10.190  10.251  65.974  1.00  0.00    -0.248 N  
HETATM   17  H   UNL     1     -10.398  10.893  66.739  1.00  0.00     0.000 HD 
HETATM   18  C   UNL     1     -10.146  10.716  64.663  1.00  0.00    -0.349 C  
HETATM   19  O   UNL     1      -9.721  10.060  63.728  1.00  0.00    -0.242 OA 
BRANCH  18  20
HETATM   20  C   UNL     1     -10.572  12.195  64.484  1.00  0.00    -0.310 C  
HETATM   21  N   UNL     1     -11.506  12.668  65.408  1.00  0.00    -0.323 N  
HETATM   22  O   UNL     1     -10.098  12.879  63.592  1.00  0.00    -0.339 OA 
HETATM   23  H   UNL     1     -12.096  12.021  65.933  1.00  0.00     0.000 HD 
BRANCH  21  24
HETATM   24  C   UNL     1     -11.617  14.108  65.606  1.00  0.00    -0.339 C  
BRANCH  24  25
HETATM   25  C   UNL     1     -11.854  14.558  67.073  1.00  0.00    -0.385 C  
BRANCH  25  26
HETATM   26  N   UNL     1     -10.653  15.277  67.734  1.00  0.00    -0.260 N  
BRANCH  26  27
HETATM   27  C   UNL     1     -11.149  16.255  68.840  1.00  0.00    -0.345 C  
HETATM   28  C   UNL     1     -11.878  15.601  70.006  1.00  0.00    -0.381 C  
ENDBRANCH  26  27
BRANCH  26  29
HETATM   29  C   UNL     1      -9.713  14.188  68.319  1.00  0.00    -0.227 C  
HETATM   30  C   UNL     1      -8.678  13.634  67.356  1.00  0.00    -0.214 C  
ENDBRANCH  26  29
BRANCH  26  31
HETATM   31  C   UNL     1      -9.877  16.134  66.666  1.00  0.00    -0.249 C  
BRANCH  31  32
HETATM   32  C   UNL     1      -9.083  17.345  67.126  1.00  0.00    -0.242 A  
HETATM   33  C   UNL     1      -7.979  17.191  67.991  1.00  0.00    -0.212 A  
HETATM   34  C   UNL     1      -7.315  18.297  68.532  1.00  0.00    -0.297 A  
HETATM   35  C   UNL     1      -7.749  19.582  68.237  1.00  0.00    -0.356 A  
HETATM   36  C   UNL     1      -8.823  19.764  67.372  1.00  0.00    -0.393 A  
HETATM   37  C   UNL     1      -9.478  18.661  66.813  1.00  0.00    -0.316 A  
HETATM   38 CL   UNL     1     -10.801  18.999  65.756  1.00  0.00    -0.390 Cl 
ENDBRANCH  31  32
ENDBRANCH  26  31
ENDBRANCH  25  26
ENDBRANCH  24  25
ENDBRANCH  21  24
ENDBRANCH  18  20
ENDBRANCH  15  16
ENDBRANCH  14  15
ENDBRANCH   3  14
ENDBRANCH   2   3
TORSDOF 15
ENDMDL
MODEL       70
REMARK 921   NORMALIZED FREE ENERGY PREDICTED BY IDOCK:   -5.26 KCAL/MOL
REMARK 922        TOTAL FREE ENERGY PREDICTED BY IDOCK:  -12.53 KCAL/MOL
REMARK 923 INTER-LIGAND FREE ENERGY PREDICTED BY IDOCK:  -10.65 KCAL/MOL
REMARK 924 INTRA-LIGAND FREE ENERGY PREDICTED BY IDOCK:   -1.88 KCAL/MOL
REMARK 927      BINDING AFFINITY PREDICTED BY RF-SCORE:    0.00 PKD
ROOT
HETATM    1  C   UNL     1     -10.765   6.876  67.204  1.00  0.00    -0.436 C  
HETATM    2  C   UNL     1     -10.661   8.385  67.376  1.00  0.00    -0.243 C  
ENDROOT
BRANCH   2   3
HETATM    3  N   UNL     1      -9.251   8.924  67.769  1.00  0.00    -0.140 N  
BRANCH   3   4
HETATM    4  C   UNL     1      -8.305   7.738  68.117  1.00  0.00    -0.124 C  
HETATM    5  C   UNL     1      -7.547   7.861  69.414  1.00  0.00    -0.103 C  
ENDBRANCH   3   4
BRANCH   3   6
HETATM    6  C   UNL     1      -9.336   9.753  69.072  1.00  0.00    -0.161 C  
BRANCH   6   7
HETATM    7  C   UNL     1     -10.591   9.797  69.940  1.00  0.00    -0.301 A  
HETATM    8  C   UNL     1     -12.496  11.113  70.762  1.00  0.00    -0.479 A  
HETATM    9  C   UNL     1     -11.023   8.772  70.798  1.00  0.00    -0.294 A  
HETATM   10  C   UNL     1     -11.396  10.955  69.910  1.00  0.00    -0.305 A  
HETATM   11  C   UNL     1     -12.155   8.899  71.605  1.00  0.00    -0.415 A  
HETATM   12 CL   UNL     1     -11.028  12.258  68.832  1.00  0.00    -0.265 Cl 
HETATM   13  C   UNL     1     -12.877  10.079  71.608  1.00  0.00    -0.543 A  
ENDBRANCH   6   7
ENDBRANCH   3   6
BRANCH   3  14
HETATM   14  C   UNL     1      -8.759   9.786  66.537  1.00  0.00    -0.128 C  
BRANCH  14  15
HETATM   15  C   UNL     1      -9.839  10.179  65.470  1.00  0.00    -0.298 C  
BRANCH  15  16
HETATM   16  N   UNL     1     -10.340  11.545  65.476  1.00  0.00    -0.263 N  
HETATM   17  H   UNL     1     -10.119  12.170  66.252  1.00  0.00     0.000 HD 
HETATM   18  C   UNL     1     -11.123  11.996  64.417  1.00  0.00    -0.342 C  
HETATM   19  O   UNL     1     -11.269  11.380  63.375  1.00  0.00    -0.357 OA 
BRANCH  18  20
HETATM   20  C   UNL     1     -11.715  13.415  64.605  1.00  0.00    -0.372 C  
HETATM   21  N   UNL     1     -11.369  14.058  65.794  1.00  0.00    -0.307 N  
HETATM   22  O   UNL     1     -12.423  13.916  63.748  1.00  0.00    -0.706 OA 
HETATM   23  H   UNL     1     -11.042  13.525  66.601  1.00  0.00     0.000 HD 
BRANCH  21  24
HETATM   24  C   UNL     1     -11.485  15.510  65.857  1.00  0.00     0.082 C  
BRANCH  24  25
HETATM   25  C   UNL     1     -10.179  16.293  65.547  1.00  0.00    -0.298 C  
BRANCH  25  26
HETATM   26  N   UNL     1      -9.545  17.004  66.767  1.00  0.00    -0.254 N  
BRANCH  26  27
HETATM   27  C   UNL     1     -10.251  18.367  67.027  1.00  0.00    -0.379 C  
HETATM   28  C   UNL     1     -10.568  19.183  65.781  1.00  0.00    -0.417 C  
ENDBRANCH  26  27
BRANCH  26  29
HETATM   29  C   UNL     1      -9.676  16.054  67.990  1.00  0.00    -0.217 C  
HETATM   30  C   UNL     1     -10.375  16.645  69.201  1.00  0.00    -0.326 C  
ENDBRANCH  26  29
BRANCH  26  31
HETATM   31  C   UNL     1      -8.026  17.309  66.490  1.00  0.00    -0.283 C  
BRANCH  31  32
HETATM   32  C   UNL     1      -7.306  18.326  67.360  1.00  0.00    -0.218 A  
HETATM   33  C   UNL     1      -7.080  18.065  68.728  1.00  0.00    -0.279 A  
HETATM   34  C   UNL     1      -6.539  19.036  69.578  1.00  0.00    -0.280 A  
HETATM   35  C   UNL     1      -6.229  20.296  69.085  1.00  0.00    -0.363 A  
HETATM   36  C   UNL     1      -6.424  20.575  67.736  1.00  0.00    -0.330 A  
HETATM   37  C   UNL     1      -6.946  19.600  66.878  1.00  0.00    -0.198 A  
HETATM   38 CL   UNL     1      -7.151  20.052  65.224  1.00  0.00    -0.310 Cl 
ENDBRANCH  31  32
ENDBRANCH  26  31
ENDBRANCH  25  26
ENDBRANCH  24  25
ENDBRANCH  21  24
ENDBRANCH  18  20
ENDBRANCH  15  16
ENDBRANCH  14  15
ENDBRANCH   3  14
ENDBRANCH   2   3
TORSDOF 15
ENDMDL
MODEL       71
REMARK 921   NORMALIZED FREE ENERGY PREDICTED BY IDOCK:   -5.25 KCAL/MOL
REMARK 922        TOTAL FREE ENERGY PREDICTED BY IDOCK:  -12.52 KCAL/MOL
REMARK 923 INTER-LIGAND FREE ENERGY PREDICTED BY IDOCK:  -11.14 KCAL/MOL
REMARK 924 INTRA-LIGAND FREE ENERGY PREDICTED BY IDOCK:   -1.38 KCAL/MOL
REMARK 927      BINDING AFFINITY PREDICTED BY RF-SCORE:    0.00 PKD
ROOT
HETATM    1  C   UNL     1      -9.212   7.563  73.663  1.00  0.00    -0.320 C  
HETATM    2  C   UNL     1     -10.678   7.518  73.258  1.00  0.00    -0.382 C  
ENDROOT
BRANCH   2   3
HETATM    3  N   UNL     1     -10.991   6.746  71.939  1.00  0.00    -0.233 N  
BRANCH   3   4
HETATM    4  C   UNL     1     -10.662   5.235  72.116  1.00  0.00    -0.209 C  
HETATM    5  C   UNL     1     -11.273   4.567  73.321  1.00  0.00    -0.388 C  
ENDBRANCH   3   4
BRANCH   3   6
HETATM    6  C   UNL     1     -10.055   7.221  70.802  1.00  0.00    -0.190 C  
BRANCH   6   7
HETATM    7  C   UNL     1     -10.006   6.540  69.438  1.00  0.00    -0.178 A  
HETATM    8  C   UNL     1      -8.684   5.264  67.806  1.00  0.00    -0.103 A  
HETATM    9  C   UNL     1     -11.026   6.577  68.472  1.00  0.00    -0.360 A  
HETATM   10  C   UNL     1      -8.847   5.818  69.082  1.00  0.00    -0.112 A  
HETATM   11  C   UNL     1     -10.893   5.975  67.220  1.00  0.00    -0.403 A  
HETATM   12 CL   UNL     1      -7.551   5.617  70.210  1.00  0.00    -0.080 Cl 
HETATM   13  C   UNL     1      -9.713   5.340  66.875  1.00  0.00    -0.170 A  
ENDBRANCH   6   7
ENDBRANCH   3   6
BRANCH   3  14
HETATM   14  C   UNL     1     -12.515   7.029  71.624  1.00  0.00    -0.374 C  
BRANCH  14  15
HETATM   15  C   UNL     1     -12.969   8.530  71.609  1.00  0.00    -0.343 C  
BRANCH  15  16
HETATM   16  N   UNL     1     -12.607   9.342  70.456  1.00  0.00    -0.466 N  
HETATM   17  H   UNL     1     -12.405   8.899  69.560  1.00  0.00     0.000 HD 
HETATM   18  C   UNL     1     -12.537  10.726  70.584  1.00  0.00    -0.357 C  
HETATM   19  O   UNL     1     -12.945  11.336  71.558  1.00  0.00    -0.428 OA 
BRANCH  18  20
HETATM   20  C   UNL     1     -12.003  11.468  69.333  1.00  0.00    -0.325 C  
HETATM   21  N   UNL     1     -11.157  12.548  69.591  1.00  0.00    -0.472 N  
HETATM   22  O   UNL     1     -12.309  11.103  68.211  1.00  0.00    -0.532 OA 
HETATM   23  H   UNL     1     -11.159  13.009  70.502  1.00  0.00     0.000 HD 
BRANCH  21  24
HETATM   24  C   UNL     1     -10.269  13.003  68.528  1.00  0.00    -0.215 C  
BRANCH  24  25
HETATM   25  C   UNL     1     -10.462  14.480  68.090  1.00  0.00    -0.239 C  
BRANCH  25  26
HETATM   26  N   UNL     1      -9.151  15.291  67.947  1.00  0.00    -0.174 N  
BRANCH  26  27
HETATM   27  C   UNL     1      -7.926  14.413  68.340  1.00  0.00    -0.141 C  
HETATM   28  C   UNL     1      -7.072  14.960  69.475  1.00  0.00    -0.184 C  
ENDBRANCH  26  27
BRANCH  26  29
HETATM   29  C   UNL     1      -9.052  15.775  66.474  1.00  0.00    -0.293 C  
HETATM   30  C   UNL     1     -10.018  15.116  65.505  1.00  0.00    -0.384 C  
ENDBRANCH  26  29
BRANCH  26  31
HETATM   31  C   UNL     1      -9.169  16.531  68.916  1.00  0.00    -0.258 C  
BRANCH  31  32
HETATM   32  C   UNL     1      -9.402  17.917  68.339  1.00  0.00    -0.290 A  
HETATM   33  C   UNL     1     -10.661  18.268  67.807  1.00  0.00    -0.415 A  
HETATM   34  C   UNL     1     -10.863  19.487  67.152  1.00  0.00    -0.555 A  
HETATM   35  C   UNL     1      -9.808  20.376  66.996  1.00  0.00    -0.594 A  
HETATM   36  C   UNL     1      -8.561  20.064  67.527  1.00  0.00    -0.401 A  
HETATM   37  C   UNL     1      -8.359  18.854  68.199  1.00  0.00    -0.309 A  
HETATM   38 CL   UNL     1      -6.771  18.564  68.815  1.00  0.00    -0.268 Cl 
ENDBRANCH  31  32
ENDBRANCH  26  31
ENDBRANCH  25  26
ENDBRANCH  24  25
ENDBRANCH  21  24
ENDBRANCH  18  20
ENDBRANCH  15  16
ENDBRANCH  14  15
ENDBRANCH   3  14
ENDBRANCH   2   3
TORSDOF 15
ENDMDL
MODEL       72
REMARK 921   NORMALIZED FREE ENERGY PREDICTED BY IDOCK:   -5.24 KCAL/MOL
REMARK 922        TOTAL FREE ENERGY PREDICTED BY IDOCK:  -12.50 KCAL/MOL
REMARK 923 INTER-LIGAND FREE ENERGY PREDICTED BY IDOCK:  -10.68 KCAL/MOL
REMARK 924 INTRA-LIGAND FREE ENERGY PREDICTED BY IDOCK:   -1.83 KCAL/MOL
REMARK 927      BINDING AFFINITY PREDICTED BY RF-SCORE:    0.00 PKD
ROOT
HETATM    1  C   UNL     1      -9.396  11.229  63.242  1.00  0.00    -0.291 C  
HETATM    2  C   UNL     1     -10.514  10.972  64.241  1.00  0.00    -0.359 C  
ENDROOT
BRANCH   2   3
HETATM    3  N   UNL     1     -11.021  12.222  65.025  1.00  0.00    -0.293 N  
BRANCH   3   4
HETATM    4  C   UNL     1     -12.379  12.705  64.436  1.00  0.00    -0.446 C  
HETATM    5  C   UNL     1     -12.958  11.851  63.336  1.00  0.00    -0.258 C  
ENDBRANCH   3   4
BRANCH   3   6
HETATM    6  C   UNL     1     -10.057  13.414  64.817  1.00  0.00    -0.237 C  
BRANCH   6   7
HETATM    7  C   UNL     1      -9.856  14.503  65.867  1.00  0.00    -0.347 A  
HETATM    8  C   UNL     1     -10.275  16.826  66.549  1.00  0.00    -0.319 A  
HETATM    9  C   UNL     1      -9.057  14.387  67.017  1.00  0.00    -0.250 A  
HETATM   10  C   UNL     1     -10.502  15.744  65.689  1.00  0.00    -0.383 A  
HETATM   11  C   UNL     1      -8.874  15.443  67.911  1.00  0.00    -0.168 A  
HETATM   12 CL   UNL     1     -11.586  15.994  64.363  1.00  0.00    -0.343 Cl 
HETATM   13  C   UNL     1      -9.461  16.671  67.665  1.00  0.00    -0.226 A  
ENDBRANCH   6   7
ENDBRANCH   3   6
BRANCH   3  14
HETATM   14  C   UNL     1     -11.111  11.775  66.540  1.00  0.00    -0.310 C  
BRANCH  14  15
HETATM   15  C   UNL     1     -10.045  10.739  67.038  1.00  0.00    -0.208 C  
BRANCH  15  16
HETATM   16  N   UNL     1     -10.505   9.408  67.405  1.00  0.00    -0.269 N  
HETATM   17  H   UNL     1     -11.278   9.295  68.060  1.00  0.00     0.000 HD 
HETATM   18  C   UNL     1      -9.884   8.290  66.855  1.00  0.00    -0.247 C  
HETATM   19  O   UNL     1      -9.093   8.343  65.929  1.00  0.00    -0.186 OA 
BRANCH  18  20
HETATM   20  C   UNL     1     -10.364   6.933  67.429  1.00  0.00    -0.231 C  
HETATM   21  N   UNL     1      -9.742   6.528  68.611  1.00  0.00    -0.127 N  
HETATM   22  O   UNL     1     -11.235   6.289  66.869  1.00  0.00    -0.335 OA 
HETATM   23  H   UNL     1      -8.838   6.912  68.885  1.00  0.00     0.000 HD 
BRANCH  21  24
HETATM   24  C   UNL     1     -10.417   5.541  69.446  1.00  0.00    -0.290 C  
BRANCH  24  25
HETATM   25  C   UNL     1     -11.258   6.124  70.613  1.00  0.00    -0.319 C  
BRANCH  25  26
HETATM   26  N   UNL     1     -10.593   6.023  72.007  1.00  0.00    -0.215 N  
BRANCH  26  27
HETATM   27  C   UNL     1     -11.499   5.215  72.982  1.00  0.00    -0.274 C  
HETATM   28  C   UNL     1     -10.934   3.877  73.437  1.00  0.00    -0.327 C  
ENDBRANCH  26  27
BRANCH  26  29
HETATM   29  C   UNL     1      -9.209   5.341  71.822  1.00  0.00    -0.138 C  
HETATM   30  C   UNL     1      -8.006   6.205  72.156  1.00  0.00    -0.109 C  
ENDBRANCH  26  29
BRANCH  26  31
HETATM   31  C   UNL     1     -10.401   7.458  72.625  1.00  0.00    -0.244 C  
BRANCH  31  32
HETATM   32  C   UNL     1     -11.216   8.615  72.072  1.00  0.00    -0.434 A  
HETATM   33  C   UNL     1     -12.577   8.760  72.415  1.00  0.00    -0.430 A  
HETATM   34  C   UNL     1     -13.381   9.737  71.818  1.00  0.00    -0.506 A  
HETATM   35  C   UNL     1     -12.849  10.579  70.851  1.00  0.00    -0.485 A  
HETATM   36  C   UNL     1     -11.506  10.471  70.508  1.00  0.00    -0.433 A  
HETATM   37  C   UNL     1     -10.693   9.508  71.116  1.00  0.00    -0.338 A  
HETATM   38 CL   UNL     1      -9.042   9.457  70.613  1.00  0.00    -0.301 Cl 
ENDBRANCH  31  32
ENDBRANCH  26  31
ENDBRANCH  25  26
ENDBRANCH  24  25
ENDBRANCH  21  24
ENDBRANCH  18  20
ENDBRANCH  15  16
ENDBRANCH  14  15
ENDBRANCH   3  14
ENDBRANCH   2   3
TORSDOF 15
ENDMDL
MODEL       73
REMARK 921   NORMALIZED FREE ENERGY PREDICTED BY IDOCK:   -5.24 KCAL/MOL
REMARK 922        TOTAL FREE ENERGY PREDICTED BY IDOCK:  -12.49 KCAL/MOL
REMARK 923 INTER-LIGAND FREE ENERGY PREDICTED BY IDOCK:   -9.78 KCAL/MOL
REMARK 924 INTRA-LIGAND FREE ENERGY PREDICTED BY IDOCK:   -2.71 KCAL/MOL
REMARK 927      BINDING AFFINITY PREDICTED BY RF-SCORE:    0.00 PKD
ROOT
HETATM    1  C   UNL     1      -8.140   7.405  67.761  1.00  0.00    -0.119 C  
HETATM    2  C   UNL     1      -8.054   8.066  66.393  1.00  0.00    -0.107 C  
ENDROOT
BRANCH   2   3
HETATM    3  N   UNL     1      -8.439   9.577  66.348  1.00  0.00    -0.125 N  
BRANCH   3   4
HETATM    4  C   UNL     1      -7.292  10.400  65.693  1.00  0.00    -0.148 C  
HETATM    5  C   UNL     1      -6.532  11.318  66.616  1.00  0.00    -0.128 C  
ENDBRANCH   3   4
BRANCH   3   6
HETATM    6  C   UNL     1      -8.560  10.145  67.782  1.00  0.00    -0.118 C  
BRANCH   6   7
HETATM    7  C   UNL     1      -9.709  11.051  68.214  1.00  0.00    -0.181 A  
HETATM    8  C   UNL     1     -11.951  11.224  69.205  1.00  0.00    -0.411 A  
HETATM    9  C   UNL     1      -9.780  12.437  67.994  1.00  0.00    -0.210 A  
HETATM   10  C   UNL     1     -10.812  10.477  68.881  1.00  0.00    -0.235 A  
HETATM   11  C   UNL     1     -10.887  13.199  68.370  1.00  0.00    -0.283 A  
HETATM   12 CL   UNL     1     -10.816   8.796  69.295  1.00  0.00    -0.154 Cl 
HETATM   13  C   UNL     1     -11.984  12.590  68.952  1.00  0.00    -0.282 A  
ENDBRANCH   6   7
ENDBRANCH   3   6
BRANCH   3  14
HETATM   14  C   UNL     1      -9.805   9.651  65.552  1.00  0.00    -0.281 C  
BRANCH  14  15
HETATM   15  C   UNL     1      -9.858  10.623  64.323  1.00  0.00    -0.330 C  
BRANCH  15  16
HETATM   16  N   UNL     1     -10.152  12.026  64.573  1.00  0.00    -0.318 N  
HETATM   17  H   UNL     1      -9.461  12.621  65.031  1.00  0.00     0.000 HD 
HETATM   18  C   UNL     1     -11.380  12.552  64.183  1.00  0.00    -0.380 C  
HETATM   19  O   UNL     1     -12.171  11.962  63.467  1.00  0.00    -0.524 OA 
BRANCH  18  20
HETATM   20  C   UNL     1     -11.632  14.014  64.630  1.00  0.00    -0.392 C  
HETATM   21  N   UNL     1     -10.507  14.707  65.079  1.00  0.00    -0.417 N  
HETATM   22  O   UNL     1     -12.748  14.503  64.571  1.00  0.00    -0.653 OA 
HETATM   23  H   UNL     1      -9.677  14.207  65.397  1.00  0.00     0.000 HD 
BRANCH  21  24
HETATM   24  C   UNL     1     -10.547  16.165  65.081  1.00  0.00    -0.343 C  
BRANCH  24  25
HETATM   25  C   UNL     1     -10.528  16.826  66.486  1.00  0.00    -0.258 C  
BRANCH  25  26
HETATM   26  N   UNL     1      -9.367  17.823  66.718  1.00  0.00    -0.272 N  
BRANCH  26  27
HETATM   27  C   UNL     1      -8.092  17.357  65.955  1.00  0.00    -0.144 C  
HETATM   28  C   UNL     1      -7.100  18.461  65.613  1.00  0.00    -0.200 C  
ENDBRANCH  26  27
BRANCH  26  29
HETATM   29  C   UNL     1      -9.840  19.221  66.232  1.00  0.00    -0.392 C  
HETATM   30  C   UNL     1      -9.857  20.308  67.292  1.00  0.00    -0.593 C  
ENDBRANCH  26  29
BRANCH  26  31
HETATM   31  C   UNL     1      -9.001  17.886  68.248  1.00  0.00    -0.275 C  
BRANCH  31  32
HETATM   32  C   UNL     1      -7.870  17.018  68.773  1.00  0.00    -0.253 A  
HETATM   33  C   UNL     1      -8.058  15.632  68.958  1.00  0.00    -0.222 A  
HETATM   34  C   UNL     1      -7.079  14.836  69.562  1.00  0.00    -0.172 A  
HETATM   35  C   UNL     1      -5.898  15.408  70.013  1.00  0.00    -0.142 A  
HETATM   36  C   UNL     1      -5.678  16.769  69.827  1.00  0.00    -0.206 A  
HETATM   37  C   UNL     1      -6.646  17.566  69.206  1.00  0.00    -0.235 A  
HETATM   38 CL   UNL     1      -6.273  19.243  69.029  1.00  0.00    -0.277 Cl 
ENDBRANCH  31  32
ENDBRANCH  26  31
ENDBRANCH  25  26
ENDBRANCH  24  25
ENDBRANCH  21  24
ENDBRANCH  18  20
ENDBRANCH  15  16
ENDBRANCH  14  15
ENDBRANCH   3  14
ENDBRANCH   2   3
TORSDOF 15
ENDMDL
MODEL       74
REMARK 921   NORMALIZED FREE ENERGY PREDICTED BY IDOCK:   -5.24 KCAL/MOL
REMARK 922        TOTAL FREE ENERGY PREDICTED BY IDOCK:  -12.49 KCAL/MOL
REMARK 923 INTER-LIGAND FREE ENERGY PREDICTED BY IDOCK:  -10.04 KCAL/MOL
REMARK 924 INTRA-LIGAND FREE ENERGY PREDICTED BY IDOCK:   -2.45 KCAL/MOL
REMARK 927      BINDING AFFINITY PREDICTED BY RF-SCORE:    0.00 PKD
ROOT
HETATM    1  C   UNL     1      -9.781   4.100  73.265  1.00  0.00    -0.151 C  
HETATM    2  C   UNL     1      -9.205   5.423  72.782  1.00  0.00    -0.136 C  
ENDROOT
BRANCH   2   3
HETATM    3  N   UNL     1     -10.109   6.237  71.806  1.00  0.00    -0.185 N  
BRANCH   3   4
HETATM    4  C   UNL     1     -11.465   6.574  72.493  1.00  0.00    -0.239 C  
HETATM    5  C   UNL     1     -12.665   6.634  71.582  1.00  0.00    -0.280 C  
ENDBRANCH   3   4
BRANCH   3   6
HETATM    6  C   UNL     1     -10.493   5.374  70.581  1.00  0.00    -0.259 C  
BRANCH   6   7
HETATM    7  C   UNL     1     -10.190   5.798  69.147  1.00  0.00    -0.289 A  
HETATM    8  C   UNL     1      -8.519   5.999  67.356  1.00  0.00    -0.104 A  
HETATM    9  C   UNL     1     -11.085   6.453  68.285  1.00  0.00    -0.359 A  
HETATM   10  C   UNL     1      -8.907   5.539  68.621  1.00  0.00    -0.107 A  
HETATM   11  C   UNL     1     -10.724   6.861  67.000  1.00  0.00    -0.432 A  
HETATM   12 CL   UNL     1      -7.735   4.661  69.543  1.00  0.00    -0.055 Cl 
HETATM   13  C   UNL     1      -9.434   6.658  66.543  1.00  0.00    -0.192 A  
ENDBRANCH   6   7
ENDBRANCH   3   6
BRANCH   3  14
HETATM   14  C   UNL     1      -9.268   7.516  71.404  1.00  0.00    -0.141 C  
BRANCH  14  15
HETATM   15  C   UNL     1      -9.816   8.905  71.883  1.00  0.00    -0.294 C  
BRANCH  15  16
HETATM   16  N   UNL     1     -10.346   9.814  70.878  1.00  0.00    -0.332 N  
HETATM   17  H   UNL     1      -9.780  10.072  70.070  1.00  0.00     0.000 HD 
HETATM   18  C   UNL     1     -11.630  10.330  71.026  1.00  0.00    -0.343 C  
HETATM   19  O   UNL     1     -12.430   9.925  71.852  1.00  0.00    -0.384 OA 
BRANCH  18  20
HETATM   20  C   UNL     1     -12.028  11.395  69.973  1.00  0.00    -0.363 C  
HETATM   21  N   UNL     1     -11.905  12.723  70.386  1.00  0.00    -0.550 N  
HETATM   22  O   UNL     1     -12.408  11.066  68.862  1.00  0.00    -0.516 OA 
HETATM   23  H   UNL     1     -11.882  12.962  71.378  1.00  0.00     0.000 HD 
BRANCH  21  24
HETATM   24  C   UNL     1     -11.812  13.760  69.366  1.00  0.00    -0.341 C  
BRANCH  24  25
HETATM   25  C   UNL     1     -10.387  14.002  68.796  1.00  0.00    -0.222 C  
BRANCH  25  26
HETATM   26  N   UNL     1     -10.323  14.159  67.257  1.00  0.00    -0.266 N  
BRANCH  26  27
HETATM   27  C   UNL     1     -10.989  15.498  66.821  1.00  0.00    -0.257 C  
HETATM   28  C   UNL     1     -10.434  16.114  65.544  1.00  0.00    -0.407 C  
ENDBRANCH  26  27
BRANCH  26  29
HETATM   29  C   UNL     1      -8.828  14.106  66.838  1.00  0.00    -0.203 C  
HETATM   30  C   UNL     1      -7.852  14.722  67.825  1.00  0.00    -0.163 C  
ENDBRANCH  26  29
BRANCH  26  31
HETATM   31  C   UNL     1     -11.115  12.993  66.556  1.00  0.00    -0.288 C  
BRANCH  31  32
HETATM   32  C   UNL     1     -10.421  12.169  65.484  1.00  0.00    -0.300 A  
HETATM   33  C   UNL     1     -10.454  12.577  64.134  1.00  0.00    -0.429 A  
HETATM   34  C   UNL     1      -9.939  11.771  63.114  1.00  0.00    -0.373 A  
HETATM   35  C   UNL     1      -9.395  10.530  63.416  1.00  0.00    -0.335 A  
HETATM   36  C   UNL     1      -9.332  10.110  64.741  1.00  0.00    -0.324 A  
HETATM   37  C   UNL     1      -9.829  10.922  65.767  1.00  0.00    -0.237 A  
HETATM   38 CL   UNL     1      -9.705  10.303  67.374  1.00  0.00    -0.183 Cl 
ENDBRANCH  31  32
ENDBRANCH  26  31
ENDBRANCH  25  26
ENDBRANCH  24  25
ENDBRANCH  21  24
ENDBRANCH  18  20
ENDBRANCH  15  16
ENDBRANCH  14  15
ENDBRANCH   3  14
ENDBRANCH   2   3
TORSDOF 15
ENDMDL
MODEL       75
REMARK 921   NORMALIZED FREE ENERGY PREDICTED BY IDOCK:   -5.24 KCAL/MOL
REMARK 922        TOTAL FREE ENERGY PREDICTED BY IDOCK:  -12.49 KCAL/MOL
REMARK 923 INTER-LIGAND FREE ENERGY PREDICTED BY IDOCK:   -8.88 KCAL/MOL
REMARK 924 INTRA-LIGAND FREE ENERGY PREDICTED BY IDOCK:   -3.61 KCAL/MOL
REMARK 927      BINDING AFFINITY PREDICTED BY RF-SCORE:    0.00 PKD
ROOT
HETATM    1  C   UNL     1     -12.053  12.177  64.290  1.00  0.00    -0.465 C  
HETATM    2  C   UNL     1     -10.598  12.364  64.691  1.00  0.00    -0.308 C  
ENDROOT
BRANCH   2   3
HETATM    3  N   UNL     1     -10.351  12.743  66.184  1.00  0.00    -0.264 N  
BRANCH   3   4
HETATM    4  C   UNL     1      -9.733  14.168  66.278  1.00  0.00    -0.297 C  
HETATM    5  C   UNL     1     -10.170  15.144  65.215  1.00  0.00    -0.400 C  
ENDBRANCH   3   4
BRANCH   3   6
HETATM    6  C   UNL     1      -9.284  11.811  66.806  1.00  0.00    -0.194 C  
BRANCH   6   7
HETATM    7  C   UNL     1      -9.313  10.295  66.632  1.00  0.00    -0.192 A  
HETATM    8  C   UNL     1      -8.162   8.281  65.822  1.00  0.00    -0.123 A  
HETATM    9  C   UNL     1     -10.403   9.462  66.932  1.00  0.00    -0.308 A  
HETATM   10  C   UNL     1      -8.169   9.650  66.116  1.00  0.00    -0.115 A  
HETATM   11  C   UNL     1     -10.381   8.086  66.699  1.00  0.00    -0.273 A  
HETATM   12 CL   UNL     1      -6.725  10.545  65.786  1.00  0.00    -0.128 Cl 
HETATM   13  C   UNL     1      -9.271   7.498  66.119  1.00  0.00    -0.156 A  
ENDBRANCH   6   7
ENDBRANCH   3   6
BRANCH   3  14
HETATM   14  C   UNL     1     -11.756  12.614  66.900  1.00  0.00    -0.383 C  
BRANCH  14  15
HETATM   15  C   UNL     1     -11.775  12.773  68.460  1.00  0.00    -0.333 C  
BRANCH  15  16
HETATM   16  N   UNL     1     -12.107  11.605  69.262  1.00  0.00    -0.294 N  
HETATM   17  H   UNL     1     -12.042  10.670  68.859  1.00  0.00     0.000 HD 
HETATM   18  C   UNL     1     -12.513  11.770  70.583  1.00  0.00    -0.274 C  
HETATM   19  O   UNL     1     -12.431  12.826  71.188  1.00  0.00    -0.352 OA 
BRANCH  18  20
HETATM   20  C   UNL     1     -12.976  10.471  71.288  1.00  0.00    -0.433 C  
HETATM   21  N   UNL     1     -12.553   9.281  70.693  1.00  0.00    -0.496 N  
HETATM   22  O   UNL     1     -13.655  10.515  72.301  1.00  0.00    -0.278 OA 
HETATM   23  H   UNL     1     -12.259   9.261  69.716  1.00  0.00     0.000 HD 
BRANCH  21  24
HETATM   24  C   UNL     1     -12.542   8.068  71.501  1.00  0.00    -0.312 C  
BRANCH  24  25
HETATM   25  C   UNL     1     -11.286   7.879  72.395  1.00  0.00    -0.369 C  
BRANCH  25  26
HETATM   26  N   UNL     1     -10.352   6.723  71.966  1.00  0.00    -0.196 N  
BRANCH  26  27
HETATM   27  C   UNL     1      -8.924   6.935  72.550  1.00  0.00    -0.129 C  
HETATM   28  C   UNL     1      -8.794   8.074  73.552  1.00  0.00    -0.333 C  
ENDBRANCH  26  27
BRANCH  26  29
HETATM   29  C   UNL     1     -10.980   5.394  72.470  1.00  0.00    -0.256 C  
HETATM   30  C   UNL     1     -10.166   4.142  72.194  1.00  0.00    -0.220 C  
ENDBRANCH  26  29
BRANCH  26  31
HETATM   31  C   UNL     1     -10.215   6.686  70.398  1.00  0.00    -0.188 C  
BRANCH  31  32
HETATM   32  C   UNL     1      -8.850   6.908  69.770  1.00  0.00    -0.141 A  
HETATM   33  C   UNL     1      -8.096   5.816  69.291  1.00  0.00    -0.101 A  
HETATM   34  C   UNL     1      -6.785   5.979  68.830  1.00  0.00    -0.064 A  
HETATM   35  C   UNL     1      -6.190   7.233  68.855  1.00  0.00    -0.034 A  
HETATM   36  C   UNL     1      -6.917   8.331  69.304  1.00  0.00    -0.058 A  
HETATM   37  C   UNL     1      -8.234   8.176  69.748  1.00  0.00    -0.122 A  
HETATM   38 CL   UNL     1      -9.044   9.603  70.289  1.00  0.00    -0.286 Cl 
ENDBRANCH  31  32
ENDBRANCH  26  31
ENDBRANCH  25  26
ENDBRANCH  24  25
ENDBRANCH  21  24
ENDBRANCH  18  20
ENDBRANCH  15  16
ENDBRANCH  14  15
ENDBRANCH   3  14
ENDBRANCH   2   3
TORSDOF 15
ENDMDL
MODEL       76
REMARK 921   NORMALIZED FREE ENERGY PREDICTED BY IDOCK:   -5.23 KCAL/MOL
REMARK 922        TOTAL FREE ENERGY PREDICTED BY IDOCK:  -12.48 KCAL/MOL
REMARK 923 INTER-LIGAND FREE ENERGY PREDICTED BY IDOCK:   -9.72 KCAL/MOL
REMARK 924 INTRA-LIGAND FREE ENERGY PREDICTED BY IDOCK:   -2.76 KCAL/MOL
REMARK 927      BINDING AFFINITY PREDICTED BY RF-SCORE:    0.00 PKD
ROOT
HETATM    1  C   UNL     1     -10.234   4.676  70.868  1.00  0.00    -0.213 C  
HETATM    2  C   UNL     1     -10.418   5.856  69.926  1.00  0.00    -0.270 C  
ENDROOT
BRANCH   2   3
HETATM    3  N   UNL     1      -9.200   6.823  69.807  1.00  0.00    -0.147 N  
BRANCH   3   4
HETATM    4  C   UNL     1      -7.903   6.106  70.283  1.00  0.00    -0.102 C  
HETATM    5  C   UNL     1      -7.208   6.725  71.469  1.00  0.00    -0.081 C  
ENDBRANCH   3   4
BRANCH   3   6
HETATM    6  C   UNL     1      -9.365   8.019  70.775  1.00  0.00    -0.157 C  
BRANCH   6   7
HETATM    7  C   UNL     1     -10.699   8.730  70.985  1.00  0.00    -0.290 A  
HETATM    8  C   UNL     1     -12.734   8.957  72.343  1.00  0.00    -0.436 A  
HETATM    9  C   UNL     1     -11.269   9.667  70.107  1.00  0.00    -0.302 A  
HETATM   10  C   UNL     1     -11.452   8.431  72.140  1.00  0.00    -0.372 A  
HETATM   11  C   UNL     1     -12.520  10.241  70.335  1.00  0.00    -0.296 A  
HETATM   12 CL   UNL     1     -10.828   7.361  73.348  1.00  0.00    -0.419 Cl 
HETATM   13  C   UNL     1     -13.266   9.868  71.439  1.00  0.00    -0.487 A  
ENDBRANCH   6   7
ENDBRANCH   3   6
BRANCH   3  14
HETATM   14  C   UNL     1      -9.154   7.276  68.291  1.00  0.00    -0.134 C  
BRANCH  14  15
HETATM   15  C   UNL     1      -7.970   8.211  67.866  1.00  0.00    -0.127 C  
BRANCH  15  16
HETATM   16  N   UNL     1      -8.289   9.563  67.432  1.00  0.00    -0.124 N  
HETATM   17  H   UNL     1      -8.691   9.724  66.508  1.00  0.00     0.000 HD 
HETATM   18  C   UNL     1      -8.045  10.636  68.284  1.00  0.00    -0.118 C  
HETATM   19  O   UNL     1      -7.752  10.510  69.461  1.00  0.00    -0.146 OA 
BRANCH  18  20
HETATM   20  C   UNL     1      -8.290  12.032  67.659  1.00  0.00    -0.160 C  
HETATM   21  N   UNL     1      -8.142  13.114  68.529  1.00  0.00    -0.264 N  
HETATM   22  O   UNL     1      -8.581  12.148  66.480  1.00  0.00    -0.165 OA 
HETATM   23  H   UNL     1      -8.199  12.984  69.539  1.00  0.00     0.000 HD 
BRANCH  21  24
HETATM   24  C   UNL     1      -7.903  14.434  67.958  1.00  0.00    -0.140 C  
BRANCH  24  25
HETATM   25  C   UNL     1      -8.689  15.596  68.625  1.00  0.00    -0.193 C  
BRANCH  25  26
HETATM   26  N   UNL     1      -9.489  16.485  67.642  1.00  0.00    -0.224 N  
BRANCH  26  27
HETATM   27  C   UNL     1      -9.105  17.982  67.830  1.00  0.00    -0.268 C  
HETATM   28  C   UNL     1     -10.243  18.975  67.639  1.00  0.00    -0.478 C  
ENDBRANCH  26  27
BRANCH  26  29
HETATM   29  C   UNL     1      -9.179  15.996  66.201  1.00  0.00    -0.352 C  
HETATM   30  C   UNL     1     -10.388  15.601  65.371  1.00  0.00    -0.421 C  
ENDBRANCH  26  29
BRANCH  26  31
HETATM   31  C   UNL     1     -11.032  16.358  67.927  1.00  0.00    -0.298 C  
BRANCH  31  32
HETATM   32  C   UNL     1     -11.495  15.671  69.201  1.00  0.00    -0.365 A  
HETATM   33  C   UNL     1     -11.510  16.370  70.426  1.00  0.00    -0.150 A  
HETATM   34  C   UNL     1     -11.805  15.725  71.632  1.00  0.00    -0.539 A  
HETATM   35  C   UNL     1     -12.072  14.363  71.644  1.00  0.00    -0.339 A  
HETATM   36  C   UNL     1     -12.082  13.652  70.449  1.00  0.00    -0.421 A  
HETATM   37  C   UNL     1     -11.807  14.297  69.238  1.00  0.00    -0.330 A  
HETATM   38 CL   UNL     1     -11.841  13.321  67.814  1.00  0.00    -0.394 Cl 
ENDBRANCH  31  32
ENDBRANCH  26  31
ENDBRANCH  25  26
ENDBRANCH  24  25
ENDBRANCH  21  24
ENDBRANCH  18  20
ENDBRANCH  15  16
ENDBRANCH  14  15
ENDBRANCH   3  14
ENDBRANCH   2   3
TORSDOF 15
ENDMDL
MODEL       77
REMARK 921   NORMALIZED FREE ENERGY PREDICTED BY IDOCK:   -5.23 KCAL/MOL
REMARK 922        TOTAL FREE ENERGY PREDICTED BY IDOCK:  -12.48 KCAL/MOL
REMARK 923 INTER-LIGAND FREE ENERGY PREDICTED BY IDOCK:  -10.76 KCAL/MOL
REMARK 924 INTRA-LIGAND FREE ENERGY PREDICTED BY IDOCK:   -1.71 KCAL/MOL
REMARK 927      BINDING AFFINITY PREDICTED BY RF-SCORE:    0.00 PKD
ROOT
HETATM    1  C   UNL     1     -10.144  16.915  69.304  1.00  0.00    -0.227 C  
HETATM    2  C   UNL     1     -11.009  16.313  68.206  1.00  0.00    -0.348 C  
ENDROOT
BRANCH   2   3
HETATM    3  N   UNL     1     -10.759  14.804  67.900  1.00  0.00    -0.255 N  
BRANCH   3   4
HETATM    4  C   UNL     1      -9.397  14.627  67.168  1.00  0.00    -0.223 C  
HETATM    5  C   UNL     1      -9.039  15.706  66.179  1.00  0.00    -0.378 C  
ENDBRANCH   3   4
BRANCH   3   6
HETATM    6  C   UNL     1     -11.814  14.276  66.900  1.00  0.00    -0.433 C  
BRANCH   6   7
HETATM    7  C   UNL     1     -11.473  13.290  65.786  1.00  0.00    -0.349 A  
HETATM    8  C   UNL     1     -11.554  12.767  63.386  1.00  0.00    -0.506 A  
HETATM    9  C   UNL     1     -10.922  12.012  65.971  1.00  0.00    -0.346 A  
HETATM   10  C   UNL     1     -11.734  13.660  64.450  1.00  0.00    -0.411 A  
HETATM   11  C   UNL     1     -10.682  11.138  64.909  1.00  0.00    -0.318 A  
HETATM   12 CL   UNL     1     -12.330  15.240  64.072  1.00  0.00    -0.193 Cl 
HETATM   13  C   UNL     1     -11.022  11.504  63.619  1.00  0.00    -0.482 A  
ENDBRANCH   6   7
ENDBRANCH   3   6
BRANCH   3  14
HETATM   14  C   UNL     1     -10.828  14.063  69.297  1.00  0.00    -0.160 C  
BRANCH  14  15
HETATM   15  C   UNL     1     -12.196  14.114  70.060  1.00  0.00    -0.357 C  
BRANCH  15  16
HETATM   16  N   UNL     1     -12.583  12.953  70.848  1.00  0.00    -0.320 N  
HETATM   17  H   UNL     1     -12.879  13.067  71.818  1.00  0.00     0.000 HD 
HETATM   18  C   UNL     1     -12.547  11.687  70.271  1.00  0.00    -0.082 C  
HETATM   19  O   UNL     1     -12.392  11.493  69.078  1.00  0.00    -0.360 OA 
BRANCH  18  20
HETATM   20  C   UNL     1     -12.841  10.520  71.247  1.00  0.00    -0.431 C  
HETATM   21  N   UNL     1     -12.451   9.255  70.804  1.00  0.00    -0.495 N  
HETATM   22  O   UNL     1     -13.368  10.725  72.327  1.00  0.00    -0.385 OA 
HETATM   23  H   UNL     1     -12.299   9.072  69.812  1.00  0.00     0.000 HD 
BRANCH  21  24
HETATM   24  C   UNL     1     -12.265   8.201  71.794  1.00  0.00    -0.319 C  
BRANCH  24  25
HETATM   25  C   UNL     1     -11.649   6.883  71.251  1.00  0.00    -0.310 C  
BRANCH  25  26
HETATM   26  N   UNL     1     -10.295   6.488  71.888  1.00  0.00    -0.199 N  
BRANCH  26  27
HETATM   27  C   UNL     1     -10.033   7.334  73.170  1.00  0.00    -0.249 C  
HETATM   28  C   UNL     1      -8.763   8.173  73.146  1.00  0.00    -0.307 C  
ENDBRANCH  26  27
BRANCH  26  29
HETATM   29  C   UNL     1     -10.349   4.970  72.212  1.00  0.00    -0.209 C  
HETATM   30  C   UNL     1     -11.227   4.585  73.390  1.00  0.00    -0.404 C  
ENDBRANCH  26  29
BRANCH  26  31
HETATM   31  C   UNL     1      -9.116   6.778  70.887  1.00  0.00    -0.153 C  
BRANCH  31  32
HETATM   32  C   UNL     1      -9.438   7.311  69.501  1.00  0.00    -0.155 A  
HETATM   33  C   UNL     1      -9.397   8.697  69.239  1.00  0.00    -0.153 A  
HETATM   34  C   UNL     1      -9.815   9.221  68.012  1.00  0.00    -0.191 A  
HETATM   35  C   UNL     1     -10.304   8.376  67.024  1.00  0.00    -0.385 A  
HETATM   36  C   UNL     1     -10.338   7.004  67.248  1.00  0.00    -0.331 A  
HETATM   37  C   UNL     1      -9.902   6.473  68.467  1.00  0.00    -0.138 A  
HETATM   38 CL   UNL     1      -9.992   4.757  68.642  1.00  0.00    -0.204 Cl 
ENDBRANCH  31  32
ENDBRANCH  26  31
ENDBRANCH  25  26
ENDBRANCH  24  25
ENDBRANCH  21  24
ENDBRANCH  18  20
ENDBRANCH  15  16
ENDBRANCH  14  15
ENDBRANCH   3  14
ENDBRANCH   2   3
TORSDOF 15
ENDMDL
MODEL       78
REMARK 921   NORMALIZED FREE ENERGY PREDICTED BY IDOCK:   -5.22 KCAL/MOL
REMARK 922        TOTAL FREE ENERGY PREDICTED BY IDOCK:  -12.46 KCAL/MOL
REMARK 923 INTER-LIGAND FREE ENERGY PREDICTED BY IDOCK:  -10.22 KCAL/MOL
REMARK 924 INTRA-LIGAND FREE ENERGY PREDICTED BY IDOCK:   -2.24 KCAL/MOL
REMARK 927      BINDING AFFINITY PREDICTED BY RF-SCORE:    0.00 PKD
ROOT
HETATM    1  C   UNL     1     -11.587  15.548  64.768  1.00  0.00    -0.256 C  
HETATM    2  C   UNL     1     -10.158  15.335  65.247  1.00  0.00    -0.327 C  
ENDROOT
BRANCH   2   3
HETATM    3  N   UNL     1      -9.995  15.010  66.764  1.00  0.00    -0.242 N  
BRANCH   3   4
HETATM    4  C   UNL     1     -11.384  14.695  67.393  1.00  0.00    -0.356 C  
HETATM    5  C   UNL     1     -11.736  15.479  68.632  1.00  0.00    -0.363 C  
ENDBRANCH   3   4
BRANCH   3   6
HETATM    6  C   UNL     1      -9.491  16.255  67.530  1.00  0.00    -0.227 C  
BRANCH   6   7
HETATM    7  C   UNL     1      -8.571  17.295  66.896  1.00  0.00    -0.263 A  
HETATM    8  C   UNL     1      -8.284  19.611  66.124  1.00  0.00    -0.355 A  
HETATM    9  C   UNL     1      -7.291  17.041  66.378  1.00  0.00    -0.328 A  
HETATM   10  C   UNL     1      -9.023  18.628  66.795  1.00  0.00    -0.297 A  
HETATM   11  C   UNL     1      -6.522  18.031  65.762  1.00  0.00    -0.293 A  
HETATM   12 CL   UNL     1     -10.545  19.098  67.471  1.00  0.00    -0.546 Cl 
HETATM   13  C   UNL     1      -7.028  19.310  65.611  1.00  0.00    -0.300 A  
ENDBRANCH   6   7
ENDBRANCH   3   6
BRANCH   3  14
HETATM   14  C   UNL     1      -8.977  13.801  66.840  1.00  0.00    -0.221 C  
BRANCH  14  15
HETATM   15  C   UNL     1      -8.076  13.712  68.120  1.00  0.00    -0.156 C  
BRANCH  15  16
HETATM   16  N   UNL     1      -8.049  12.453  68.850  1.00  0.00    -0.344 N  
HETATM   17  H   UNL     1      -8.810  12.210  69.484  1.00  0.00     0.000 HD 
HETATM   18  C   UNL     1      -6.978  11.581  68.677  1.00  0.00    -0.089 C  
HETATM   19  O   UNL     1      -6.136  11.709  67.804  1.00  0.00    -0.045 OA 
BRANCH  18  20
HETATM   20  C   UNL     1      -6.988  10.345  69.611  1.00  0.00    -0.127 C  
HETATM   21  N   UNL     1      -8.177  10.132  70.311  1.00  0.00    -0.292 N  
HETATM   22  O   UNL     1      -6.013   9.619  69.700  1.00  0.00    -0.036 OA 
HETATM   23  H   UNL     1      -8.844  10.891  70.453  1.00  0.00     0.000 HD 
BRANCH  21  24
HETATM   24  C   UNL     1      -8.443   8.798  70.835  1.00  0.00    -0.175 C  
BRANCH  24  25
HETATM   25  C   UNL     1      -9.655   8.695  71.802  1.00  0.00    -0.290 C  
BRANCH  25  26
HETATM   26  N   UNL     1     -10.692   7.608  71.428  1.00  0.00    -0.222 N  
BRANCH  26  27
HETATM   27  C   UNL     1     -10.115   6.662  70.334  1.00  0.00    -0.183 C  
HETATM   28  C   UNL     1     -11.147   6.032  69.409  1.00  0.00    -0.445 C  
ENDBRANCH  26  27
BRANCH  26  29
HETATM   29  C   UNL     1     -11.046   6.827  72.723  1.00  0.00    -0.257 C  
HETATM   30  C   UNL     1     -10.126   7.074  73.906  1.00  0.00    -0.386 C  
ENDBRANCH  26  29
BRANCH  26  31
HETATM   31  C   UNL     1     -11.989   8.274  70.835  1.00  0.00    -0.180 C  
BRANCH  31  32
HETATM   32  C   UNL     1     -12.132   9.786  70.884  1.00  0.00    -0.407 A  
HETATM   33  C   UNL     1     -12.816  10.406  71.951  1.00  0.00    -0.519 A  
HETATM   34  C   UNL     1     -13.075  11.780  71.952  1.00  0.00    -0.482 A  
HETATM   35  C   UNL     1     -12.675  12.564  70.879  1.00  0.00    -0.270 A  
HETATM   36  C   UNL     1     -11.982  11.983  69.822  1.00  0.00    -0.370 A  
HETATM   37  C   UNL     1     -11.704  10.612  69.826  1.00  0.00    -0.310 A  
HETATM   38 CL   UNL     1     -10.843   9.991  68.463  1.00  0.00    -0.266 Cl 
ENDBRANCH  31  32
ENDBRANCH  26  31
ENDBRANCH  25  26
ENDBRANCH  24  25
ENDBRANCH  21  24
ENDBRANCH  18  20
ENDBRANCH  15  16
ENDBRANCH  14  15
ENDBRANCH   3  14
ENDBRANCH   2   3
TORSDOF 15
ENDMDL
MODEL       79
REMARK 921   NORMALIZED FREE ENERGY PREDICTED BY IDOCK:   -5.22 KCAL/MOL
REMARK 922        TOTAL FREE ENERGY PREDICTED BY IDOCK:  -12.46 KCAL/MOL
REMARK 923 INTER-LIGAND FREE ENERGY PREDICTED BY IDOCK:  -10.64 KCAL/MOL
REMARK 924 INTRA-LIGAND FREE ENERGY PREDICTED BY IDOCK:   -1.82 KCAL/MOL
REMARK 927      BINDING AFFINITY PREDICTED BY RF-SCORE:    0.00 PKD
ROOT
HETATM    1  C   UNL     1     -10.340  16.958  66.642  1.00  0.00    -0.299 C  
HETATM    2  C   UNL     1     -11.032  16.373  67.865  1.00  0.00    -0.298 C  
ENDROOT
BRANCH   2   3
HETATM    3  N   UNL     1     -10.906  14.828  68.038  1.00  0.00    -0.254 N  
BRANCH   3   4
HETATM    4  C   UNL     1      -9.651  14.308  67.278  1.00  0.00    -0.232 C  
HETATM    5  C   UNL     1      -8.665  13.519  68.102  1.00  0.00    -0.174 C  
ENDBRANCH   3   4
BRANCH   3   6
HETATM    6  C   UNL     1     -12.099  14.112  67.364  1.00  0.00    -0.344 C  
BRANCH   6   7
HETATM    7  C   UNL     1     -11.978  13.399  66.020  1.00  0.00    -0.460 A  
HETATM    8  C   UNL     1     -11.362  11.352  64.807  1.00  0.00    -0.131 A  
HETATM    9  C   UNL     1     -12.198  13.989  64.764  1.00  0.00    -0.454 A  
HETATM   10  C   UNL     1     -11.603  12.040  66.004  1.00  0.00    -0.305 A  
HETATM   11  C   UNL     1     -12.018  13.292  63.567  1.00  0.00    -0.537 A  
HETATM   12 CL   UNL     1     -11.386  11.166  67.482  1.00  0.00    -0.367 Cl 
HETATM   13  C   UNL     1     -11.575  11.982  63.587  1.00  0.00    -0.578 A  
ENDBRANCH   6   7
ENDBRANCH   3   6
BRANCH   3  14
HETATM   14  C   UNL     1     -10.852  14.572  69.599  1.00  0.00    -0.151 C  
BRANCH  14  15
HETATM   15  C   UNL     1     -12.128  13.945  70.259  1.00  0.00    -0.353 C  
BRANCH  15  16
HETATM   16  N   UNL     1     -12.087  12.536  70.623  1.00  0.00    -0.498 N  
HETATM   17  H   UNL     1     -11.430  11.906  70.163  1.00  0.00     0.000 HD 
HETATM   18  C   UNL     1     -12.948  12.054  71.604  1.00  0.00    -0.334 C  
HETATM   19  O   UNL     1     -13.618  12.772  72.328  1.00  0.00    -0.556 OA 
BRANCH  18  20
HETATM   20  C   UNL     1     -12.913  10.518  71.802  1.00  0.00    -0.476 C  
HETATM   21  N   UNL     1     -11.685   9.907  71.540  1.00  0.00    -0.372 N  
HETATM   22  O   UNL     1     -13.903   9.911  72.174  1.00  0.00    -0.290 OA 
HETATM   23  H   UNL     1     -10.985  10.368  70.959  1.00  0.00     0.000 HD 
BRANCH  21  24
HETATM   24  C   UNL     1     -11.427   8.594  72.118  1.00  0.00    -0.373 C  
BRANCH  24  25
HETATM   25  C   UNL     1      -9.935   8.164  72.146  1.00  0.00    -0.247 C  
BRANCH  25  26
HETATM   26  N   UNL     1      -9.697   6.640  72.014  1.00  0.00    -0.152 N  
BRANCH  26  27
HETATM   27  C   UNL     1      -8.240   6.358  71.542  1.00  0.00    -0.117 C  
HETATM   28  C   UNL     1      -7.433   5.432  72.441  1.00  0.00    -0.096 C  
ENDBRANCH  26  27
BRANCH  26  29
HETATM   29  C   UNL     1      -9.979   5.995  73.399  1.00  0.00    -0.182 C  
HETATM   30  C   UNL     1     -11.045   4.914  73.410  1.00  0.00    -0.415 C  
ENDBRANCH  26  29
BRANCH  26  31
HETATM   31  C   UNL     1     -10.665   6.028  70.934  1.00  0.00    -0.267 C  
BRANCH  31  32
HETATM   32  C   UNL     1     -10.075   5.404  69.681  1.00  0.00    -0.319 A  
HETATM   33  C   UNL     1      -9.667   4.053  69.679  1.00  0.00    -0.245 A  
HETATM   34  C   UNL     1      -9.002   3.493  68.583  1.00  0.00    -0.183 A  
HETATM   35  C   UNL     1      -8.710   4.273  67.473  1.00  0.00    -0.114 A  
HETATM   36  C   UNL     1      -9.117   5.603  67.440  1.00  0.00    -0.110 A  
HETATM   37  C   UNL     1      -9.800   6.163  68.526  1.00  0.00    -0.137 A  
HETATM   38 CL   UNL     1     -10.255   7.823  68.384  1.00  0.00    -0.219 Cl 
ENDBRANCH  31  32
ENDBRANCH  26  31
ENDBRANCH  25  26
ENDBRANCH  24  25
ENDBRANCH  21  24
ENDBRANCH  18  20
ENDBRANCH  15  16
ENDBRANCH  14  15
ENDBRANCH   3  14
ENDBRANCH   2   3
TORSDOF 15
ENDMDL
MODEL       80
REMARK 921   NORMALIZED FREE ENERGY PREDICTED BY IDOCK:   -5.22 KCAL/MOL
REMARK 922        TOTAL FREE ENERGY PREDICTED BY IDOCK:  -12.45 KCAL/MOL
REMARK 923 INTER-LIGAND FREE ENERGY PREDICTED BY IDOCK:  -11.08 KCAL/MOL
REMARK 924 INTRA-LIGAND FREE ENERGY PREDICTED BY IDOCK:   -1.37 KCAL/MOL
REMARK 927      BINDING AFFINITY PREDICTED BY RF-SCORE:    0.00 PKD
ROOT
HETATM    1  C   UNL     1      -8.710  11.598  67.620  1.00  0.00    -0.156 C  
HETATM    2  C   UNL     1      -9.492  12.309  66.526  1.00  0.00    -0.236 C  
ENDROOT
BRANCH   2   3
HETATM    3  N   UNL     1     -10.159  13.657  66.939  1.00  0.00    -0.255 N  
BRANCH   3   4
HETATM    4  C   UNL     1     -11.557  13.788  66.266  1.00  0.00    -0.350 C  
HETATM    5  C   UNL     1     -11.983  12.626  65.406  1.00  0.00    -0.496 C  
ENDBRANCH   3   4
BRANCH   3   6
HETATM    6  C   UNL     1      -9.345  14.851  66.388  1.00  0.00    -0.297 C  
BRANCH   6   7
HETATM    7  C   UNL     1      -9.555  16.284  66.871  1.00  0.00    -0.244 A  
HETATM    8  C   UNL     1     -10.525  18.498  66.429  1.00  0.00    -0.443 A  
HETATM    9  C   UNL     1      -8.979  16.847  68.022  1.00  0.00    -0.224 A  
HETATM   10  C   UNL     1     -10.378  17.142  66.111  1.00  0.00    -0.322 A  
HETATM   11  C   UNL     1      -9.171  18.183  68.378  1.00  0.00    -0.316 A  
HETATM   12 CL   UNL     1     -11.219  16.553  64.718  1.00  0.00    -0.285 Cl 
HETATM   13  C   UNL     1      -9.922  19.017  67.568  1.00  0.00    -0.418 A  
ENDBRANCH   6   7
ENDBRANCH   3   6
BRANCH   3  14
HETATM   14  C   UNL     1     -10.217  13.644  68.520  1.00  0.00    -0.234 C  
BRANCH  14  15
HETATM   15  C   UNL     1     -11.599  13.973  69.182  1.00  0.00    -0.313 C  
BRANCH  15  16
HETATM   16  N   UNL     1     -12.150  13.013  70.128  1.00  0.00    -0.363 N  
HETATM   17  H   UNL     1     -12.389  13.306  71.075  1.00  0.00     0.000 HD 
HETATM   18  C   UNL     1     -12.348  11.694  69.732  1.00  0.00    -0.133 C  
HETATM   19  O   UNL     1     -12.268  11.316  68.575  1.00  0.00    -0.588 OA 
BRANCH  18  20
HETATM   20  C   UNL     1     -12.801  10.737  70.863  1.00  0.00    -0.351 C  
HETATM   21  N   UNL     1     -12.841   9.383  70.525  1.00  0.00    -0.430 N  
HETATM   22  O   UNL     1     -13.086  11.166  71.969  1.00  0.00    -0.492 OA 
HETATM   23  H   UNL     1     -12.894   9.089  69.549  1.00  0.00     0.000 HD 
BRANCH  21  24
HETATM   24  C   UNL     1     -12.805   8.399  71.600  1.00  0.00    -0.334 C  
BRANCH  24  25
HETATM   25  C   UNL     1     -11.435   8.250  72.316  1.00  0.00    -0.384 C  
BRANCH  25  26
HETATM   26  N   UNL     1     -10.470   7.229  71.664  1.00  0.00    -0.199 N  
BRANCH  26  27
HETATM   27  C   UNL     1      -9.505   7.950  70.678  1.00  0.00    -0.162 C  
HETATM   28  C   UNL     1      -9.426   9.463  70.835  1.00  0.00    -0.279 C  
ENDBRANCH  26  27
BRANCH  26  29
HETATM   29  C   UNL     1      -9.690   6.521  72.806  1.00  0.00    -0.157 C  
HETATM   30  C   UNL     1     -10.402   6.466  74.146  1.00  0.00    -0.335 C  
ENDBRANCH  26  29
BRANCH  26  31
HETATM   31  C   UNL     1     -11.281   6.166  70.834  1.00  0.00    -0.299 C  
BRANCH  31  32
HETATM   32  C   UNL     1     -10.699   5.648  69.530  1.00  0.00    -0.380 A  
HETATM   33  C   UNL     1     -11.029   6.263  68.304  1.00  0.00    -0.408 A  
HETATM   34  C   UNL     1     -10.613   5.725  67.081  1.00  0.00    -0.365 A  
HETATM   35  C   UNL     1      -9.874   4.550  67.053  1.00  0.00    -0.232 A  
HETATM   36  C   UNL     1      -9.519   3.933  68.248  1.00  0.00    -0.212 A  
HETATM   37  C   UNL     1      -9.916   4.477  69.474  1.00  0.00    -0.165 A  
HETATM   38 CL   UNL     1      -9.425   3.628  70.895  1.00  0.00    -0.223 Cl 
ENDBRANCH  31  32
ENDBRANCH  26  31
ENDBRANCH  25  26
ENDBRANCH  24  25
ENDBRANCH  21  24
ENDBRANCH  18  20
ENDBRANCH  15  16
ENDBRANCH  14  15
ENDBRANCH   3  14
ENDBRANCH   2   3
TORSDOF 15
ENDMDL
MODEL       81
REMARK 921   NORMALIZED FREE ENERGY PREDICTED BY IDOCK:   -5.22 KCAL/MOL
REMARK 922        TOTAL FREE ENERGY PREDICTED BY IDOCK:  -12.45 KCAL/MOL
REMARK 923 INTER-LIGAND FREE ENERGY PREDICTED BY IDOCK:  -10.57 KCAL/MOL
REMARK 924 INTRA-LIGAND FREE ENERGY PREDICTED BY IDOCK:   -1.88 KCAL/MOL
REMARK 927      BINDING AFFINITY PREDICTED BY RF-SCORE:    0.00 PKD
ROOT
HETATM    1  C   UNL     1     -11.393   6.331  69.532  1.00  0.00    -0.475 C  
HETATM    2  C   UNL     1     -10.357   6.781  70.552  1.00  0.00    -0.201 C  
ENDROOT
BRANCH   2   3
HETATM    3  N   UNL     1     -10.778   7.979  71.459  1.00  0.00    -0.222 N  
BRANCH   3   4
HETATM    4  C   UNL     1      -9.760   9.146  71.307  1.00  0.00    -0.281 C  
HETATM    5  C   UNL     1      -8.329   8.741  71.060  1.00  0.00    -0.208 C  
ENDBRANCH   3   4
BRANCH   3   6
HETATM    6  C   UNL     1     -10.695   7.578  72.951  1.00  0.00    -0.358 C  
BRANCH   6   7
HETATM    7  C   UNL     1     -10.557   6.129  73.408  1.00  0.00    -0.288 A  
HETATM    8  C   UNL     1      -9.150   4.417  74.472  1.00  0.00    -0.111 A  
HETATM    9  C   UNL     1     -11.491   5.107  73.169  1.00  0.00    -0.348 A  
HETATM   10  C   UNL     1      -9.399   5.750  74.120  1.00  0.00    -0.136 A  
HETATM   11  C   UNL     1     -11.277   3.788  73.570  1.00  0.00    -0.299 A  
HETATM   12 CL   UNL     1      -8.209   6.926  74.560  1.00  0.00    -0.159 Cl 
HETATM   13  C   UNL     1     -10.096   3.436  74.199  1.00  0.00    -0.198 A  
ENDBRANCH   6   7
ENDBRANCH   3   6
BRANCH   3  14
HETATM   14  C   UNL     1     -12.249   8.359  71.018  1.00  0.00    -0.164 C  
BRANCH  14  15
HETATM   15  C   UNL     1     -12.858   9.666  71.633  1.00  0.00    -0.405 C  
BRANCH  15  16
HETATM   16  N   UNL     1     -12.521  10.937  71.009  1.00  0.00    -0.382 N  
HETATM   17  H   UNL     1     -11.938  10.959  70.172  1.00  0.00     0.000 HD 
HETATM   18  C   UNL     1     -12.998  12.122  71.561  1.00  0.00    -0.295 C  
HETATM   19  O   UNL     1     -13.847  12.167  72.435  1.00  0.00    -0.198 OA 
BRANCH  18  20
HETATM   20  C   UNL     1     -12.456  13.413  70.897  1.00  0.00    -0.359 C  
HETATM   21  N   UNL     1     -11.360  13.238  70.050  1.00  0.00    -0.501 N  
HETATM   22  O   UNL     1     -12.979  14.494  71.110  1.00  0.00    -0.317 OA 
HETATM   23  H   UNL     1     -10.770  12.408  70.123  1.00  0.00     0.000 HD 
BRANCH  21  24
HETATM   24  C   UNL     1     -11.079  14.268  69.058  1.00  0.00    -0.259 C  
BRANCH  24  25
HETATM   25  C   UNL     1     -11.906  14.169  67.747  1.00  0.00    -0.379 C  
BRANCH  25  26
HETATM   26  N   UNL     1     -11.075  13.856  66.479  1.00  0.00    -0.304 N  
BRANCH  26  27
HETATM   27  C   UNL     1     -11.240  14.994  65.429  1.00  0.00    -0.356 C  
HETATM   28  C   UNL     1     -12.208  14.694  64.292  1.00  0.00    -0.432 C  
ENDBRANCH  26  27
BRANCH  26  29
HETATM   29  C   UNL     1      -9.591  13.696  66.912  1.00  0.00    -0.262 C  
HETATM   30  C   UNL     1      -8.685  14.868  66.581  1.00  0.00    -0.262 C  
ENDBRANCH  26  29
BRANCH  26  31
HETATM   31  C   UNL     1     -11.581  12.525  65.810  1.00  0.00    -0.392 C  
BRANCH  31  32
HETATM   32  C   UNL     1     -10.587  11.407  65.544  1.00  0.00    -0.328 A  
HETATM   33  C   UNL     1      -9.903  11.335  64.312  1.00  0.00    -0.319 A  
HETATM   34  C   UNL     1      -9.085  10.246  63.993  1.00  0.00    -0.283 A  
HETATM   35  C   UNL     1      -8.946   9.195  64.889  1.00  0.00    -0.201 A  
HETATM   36  C   UNL     1      -9.593   9.248  66.119  1.00  0.00    -0.327 A  
HETATM   37  C   UNL     1     -10.397  10.344  66.450  1.00  0.00    -0.213 A  
HETATM   38 CL   UNL     1     -11.158  10.308  68.000  1.00  0.00    -0.345 Cl 
ENDBRANCH  31  32
ENDBRANCH  26  31
ENDBRANCH  25  26
ENDBRANCH  24  25
ENDBRANCH  21  24
ENDBRANCH  18  20
ENDBRANCH  15  16
ENDBRANCH  14  15
ENDBRANCH   3  14
ENDBRANCH   2   3
TORSDOF 15
ENDMDL
MODEL       82
REMARK 921   NORMALIZED FREE ENERGY PREDICTED BY IDOCK:   -5.22 KCAL/MOL
REMARK 922        TOTAL FREE ENERGY PREDICTED BY IDOCK:  -12.45 KCAL/MOL
REMARK 923 INTER-LIGAND FREE ENERGY PREDICTED BY IDOCK:  -10.64 KCAL/MOL
REMARK 924 INTRA-LIGAND FREE ENERGY PREDICTED BY IDOCK:   -1.80 KCAL/MOL
REMARK 927      BINDING AFFINITY PREDICTED BY RF-SCORE:    0.00 PKD
ROOT
HETATM    1  C   UNL     1     -12.953  10.345  71.219  1.00  0.00    -0.517 C  
HETATM    2  C   UNL     1     -12.416   9.226  72.099  1.00  0.00    -0.351 C  
ENDROOT
BRANCH   2   3
HETATM    3  N   UNL     1     -11.661   8.083  71.353  1.00  0.00    -0.281 N  
BRANCH   3   4
HETATM    4  C   UNL     1     -12.644   6.921  71.025  1.00  0.00    -0.265 C  
HETATM    5  C   UNL     1     -13.993   6.994  71.695  1.00  0.00    -0.374 C  
ENDBRANCH   3   4
BRANCH   3   6
HETATM    6  C   UNL     1     -10.597   7.447  72.278  1.00  0.00    -0.232 C  
BRANCH   6   7
HETATM    7  C   UNL     1     -10.450   5.938  72.450  1.00  0.00    -0.246 A  
HETATM    8  C   UNL     1      -9.473   3.843  71.616  1.00  0.00    -0.220 A  
HETATM    9  C   UNL     1     -11.135   5.157  73.395  1.00  0.00    -0.385 A  
HETATM   10  C   UNL     1      -9.573   5.240  71.594  1.00  0.00    -0.152 A  
HETATM   11  C   UNL     1     -10.994   3.770  73.463  1.00  0.00    -0.339 A  
HETATM   12 CL   UNL     1      -8.601   6.091  70.442  1.00  0.00    -0.131 Cl 
HETATM   13  C   UNL     1     -10.183   3.108  72.558  1.00  0.00    -0.216 A  
ENDBRANCH   6   7
ENDBRANCH   3   6
BRANCH   3  14
HETATM   14  C   UNL     1     -11.023   8.753  70.069  1.00  0.00    -0.209 C  
BRANCH  14  15
HETATM   15  C   UNL     1      -9.606   9.404  70.239  1.00  0.00    -0.249 C  
BRANCH  15  16
HETATM   16  N   UNL     1      -9.385  10.720  69.659  1.00  0.00    -0.384 N  
HETATM   17  H   UNL     1      -9.640  11.559  70.178  1.00  0.00     0.000 HD 
HETATM   18  C   UNL     1      -8.823  10.826  68.390  1.00  0.00    -0.146 C  
HETATM   19  O   UNL     1      -8.320   9.889  67.793  1.00  0.00    -0.114 OA 
BRANCH  18  20
HETATM   20  C   UNL     1      -8.771  12.266  67.821  1.00  0.00    -0.174 C  
HETATM   21  N   UNL     1      -8.496  13.270  68.752  1.00  0.00    -0.363 N  
HETATM   22  O   UNL     1      -8.950  12.477  66.633  1.00  0.00    -0.216 OA 
HETATM   23  H   UNL     1      -8.648  13.115  69.748  1.00  0.00     0.000 HD 
BRANCH  21  24
HETATM   24  C   UNL     1      -7.985  14.546  68.265  1.00  0.00    -0.137 C  
BRANCH  24  25
HETATM   25  C   UNL     1      -8.494  15.798  69.029  1.00  0.00    -0.242 C  
BRANCH  25  26
HETATM   26  N   UNL     1      -9.102  16.903  68.132  1.00  0.00    -0.225 N  
BRANCH  26  27
HETATM   27  C   UNL     1      -8.606  18.306  68.589  1.00  0.00    -0.283 C  
HETATM   28  C   UNL     1      -9.683  19.379  68.680  1.00  0.00    -0.504 C  
ENDBRANCH  26  27
BRANCH  26  29
HETATM   29  C   UNL     1      -8.685  16.604  66.665  1.00  0.00    -0.246 C  
HETATM   30  C   UNL     1      -7.564  17.469  66.117  1.00  0.00    -0.320 C  
ENDBRANCH  26  29
BRANCH  26  31
HETATM   31  C   UNL     1     -10.671  16.900  68.251  1.00  0.00    -0.377 C  
BRANCH  31  32
HETATM   32  C   UNL     1     -11.338  15.921  69.203  1.00  0.00    -0.366 A  
HETATM   33  C   UNL     1     -11.394  16.193  70.586  1.00  0.00    -0.394 A  
HETATM   34  C   UNL     1     -11.883  15.251  71.497  1.00  0.00    -0.441 A  
HETATM   35  C   UNL     1     -12.310  14.008  71.050  1.00  0.00    -0.443 A  
HETATM   36  C   UNL     1     -12.283  13.720  69.690  1.00  0.00    -0.359 A  
HETATM   37  C   UNL     1     -11.813  14.666  68.773  1.00  0.00    -0.313 A  
HETATM   38 CL   UNL     1     -11.819  14.203  67.109  1.00  0.00    -0.432 Cl 
ENDBRANCH  31  32
ENDBRANCH  26  31
ENDBRANCH  25  26
ENDBRANCH  24  25
ENDBRANCH  21  24
ENDBRANCH  18  20
ENDBRANCH  15  16
ENDBRANCH  14  15
ENDBRANCH   3  14
ENDBRANCH   2   3
TORSDOF 15
ENDMDL
MODEL       83
REMARK 921   NORMALIZED FREE ENERGY PREDICTED BY IDOCK:   -5.21 KCAL/MOL
REMARK 922        TOTAL FREE ENERGY PREDICTED BY IDOCK:  -12.44 KCAL/MOL
REMARK 923 INTER-LIGAND FREE ENERGY PREDICTED BY IDOCK:   -9.63 KCAL/MOL
REMARK 924 INTRA-LIGAND FREE ENERGY PREDICTED BY IDOCK:   -2.82 KCAL/MOL
REMARK 927      BINDING AFFINITY PREDICTED BY RF-SCORE:    0.00 PKD
ROOT
HETATM    1  C   UNL     1      -9.957   6.045  69.005  1.00  0.00    -0.199 C  
HETATM    2  C   UNL     1      -9.244   6.469  70.280  1.00  0.00    -0.155 C  
ENDROOT
BRANCH   2   3
HETATM    3  N   UNL     1     -10.010   7.491  71.176  1.00  0.00    -0.181 N  
BRANCH   3   4
HETATM    4  C   UNL     1     -10.538   6.784  72.458  1.00  0.00    -0.221 C  
HETATM    5  C   UNL     1     -11.861   6.075  72.319  1.00  0.00    -0.305 C  
ENDBRANCH   3   4
BRANCH   3   6
HETATM    6  C   UNL     1     -11.282   7.993  70.452  1.00  0.00    -0.229 C  
BRANCH   6   7
HETATM    7  C   UNL     1     -11.775   9.433  70.557  1.00  0.00    -0.254 A  
HETATM    8  C   UNL     1     -11.760  11.703  69.614  1.00  0.00    -0.418 A  
HETATM    9  C   UNL     1     -12.538   9.957  71.614  1.00  0.00    -0.519 A  
HETATM   10  C   UNL     1     -11.441  10.341  69.531  1.00  0.00    -0.210 A  
HETATM   11  C   UNL     1     -12.912  11.300  71.674  1.00  0.00    -0.537 A  
HETATM   12 CL   UNL     1     -10.580   9.809  68.127  1.00  0.00    -0.261 Cl 
HETATM   13  C   UNL     1     -12.502  12.180  70.688  1.00  0.00    -0.330 A  
ENDBRANCH   6   7
ENDBRANCH   3   6
BRANCH   3  14
HETATM   14  C   UNL     1      -8.985   8.659  71.473  1.00  0.00    -0.234 C  
BRANCH  14  15
HETATM   15  C   UNL     1      -8.013   9.063  70.311  1.00  0.00    -0.121 C  
BRANCH  15  16
HETATM   16  N   UNL     1      -7.640  10.464  70.188  1.00  0.00    -0.310 N  
HETATM   17  H   UNL     1      -7.934  11.137  70.896  1.00  0.00     0.000 HD 
HETATM   18  C   UNL     1      -6.880  10.881  69.099  1.00  0.00    -0.086 C  
HETATM   19  O   UNL     1      -6.334  10.115  68.324  1.00  0.00    -0.049 OA 
BRANCH  18  20
HETATM   20  C   UNL     1      -6.669  12.413  69.002  1.00  0.00    -0.100 C  
HETATM   21  N   UNL     1      -7.289  13.037  67.918  1.00  0.00    -0.112 N  
HETATM   22  O   UNL     1      -6.010  13.008  69.838  1.00  0.00    -0.120 OA 
HETATM   23  H   UNL     1      -7.566  12.502  67.095  1.00  0.00     0.000 HD 
BRANCH  21  24
HETATM   24  C   UNL     1      -7.531  14.473  67.991  1.00  0.00    -0.137 C  
BRANCH  24  25
HETATM   25  C   UNL     1      -8.894  14.884  68.610  1.00  0.00    -0.179 C  
BRANCH  25  26
HETATM   26  N   UNL     1      -9.879  15.556  67.621  1.00  0.00    -0.213 N  
BRANCH  26  27
HETATM   27  C   UNL     1     -11.340  15.114  67.928  1.00  0.00    -0.338 C  
HETATM   28  C   UNL     1     -11.862  15.504  69.304  1.00  0.00    -0.372 C  
ENDBRANCH  26  27
BRANCH  26  29
HETATM   29  C   UNL     1      -9.710  17.095  67.759  1.00  0.00    -0.271 C  
HETATM   30  C   UNL     1      -9.454  17.841  66.462  1.00  0.00    -0.300 C  
ENDBRANCH  26  29
BRANCH  26  31
HETATM   31  C   UNL     1      -9.555  15.115  66.146  1.00  0.00    -0.313 C  
BRANCH  31  32
HETATM   32  C   UNL     1     -10.441  14.079  65.473  1.00  0.00    -0.339 A  
HETATM   33  C   UNL     1     -10.249  12.704  65.721  1.00  0.00    -0.288 A  
HETATM   34  C   UNL     1     -10.962  11.728  65.016  1.00  0.00    -0.357 A  
HETATM   35  C   UNL     1     -11.869  12.102  64.034  1.00  0.00    -0.523 A  
HETATM   36  C   UNL     1     -12.092  13.452  63.783  1.00  0.00    -0.516 A  
HETATM   37  C   UNL     1     -11.395  14.432  64.498  1.00  0.00    -0.321 A  
HETATM   38 CL   UNL     1     -11.745  16.077  64.103  1.00  0.00    -0.207 Cl 
ENDBRANCH  31  32
ENDBRANCH  26  31
ENDBRANCH  25  26
ENDBRANCH  24  25
ENDBRANCH  21  24
ENDBRANCH  18  20
ENDBRANCH  15  16
ENDBRANCH  14  15
ENDBRANCH   3  14
ENDBRANCH   2   3
TORSDOF 15
ENDMDL
MODEL       84
REMARK 921   NORMALIZED FREE ENERGY PREDICTED BY IDOCK:   -5.21 KCAL/MOL
REMARK 922        TOTAL FREE ENERGY PREDICTED BY IDOCK:  -12.44 KCAL/MOL
REMARK 923 INTER-LIGAND FREE ENERGY PREDICTED BY IDOCK:  -10.35 KCAL/MOL
REMARK 924 INTRA-LIGAND FREE ENERGY PREDICTED BY IDOCK:   -2.08 KCAL/MOL
REMARK 927      BINDING AFFINITY PREDICTED BY RF-SCORE:    0.00 PKD
ROOT
HETATM    1  C   UNL     1     -11.729  14.689  69.297  1.00  0.00    -0.348 C  
HETATM    2  C   UNL     1     -11.439  15.657  68.159  1.00  0.00    -0.322 C  
ENDROOT
BRANCH   2   3
HETATM    3  N   UNL     1      -9.943  15.766  67.730  1.00  0.00    -0.226 N  
BRANCH   3   4
HETATM    4  C   UNL     1      -9.128  14.587  68.335  1.00  0.00    -0.191 C  
HETATM    5  C   UNL     1      -7.744  14.388  67.771  1.00  0.00    -0.172 C  
ENDBRANCH   3   4
BRANCH   3   6
HETATM    6  C   UNL     1      -9.302  17.038  68.334  1.00  0.00    -0.266 C  
BRANCH   6   7
HETATM    7  C   UNL     1      -8.563  18.069  67.487  1.00  0.00    -0.244 A  
HETATM    8  C   UNL     1      -8.699  20.101  66.111  1.00  0.00    -0.244 A  
HETATM    9  C   UNL     1      -7.204  18.012  67.137  1.00  0.00    -0.213 A  
HETATM   10  C   UNL     1      -9.281  19.176  66.988  1.00  0.00    -0.296 A  
HETATM   11  C   UNL     1      -6.602  18.965  66.313  1.00  0.00    -0.234 A  
HETATM   12 CL   UNL     1     -10.941  19.417  67.415  1.00  0.00    -0.552 Cl 
HETATM   13  C   UNL     1      -7.355  19.995  65.778  1.00  0.00    -0.321 A  
ENDBRANCH   6   7
ENDBRANCH   3   6
BRANCH   3  14
HETATM   14  C   UNL     1      -9.948  15.787  66.148  1.00  0.00    -0.311 C  
BRANCH  14  15
HETATM   15  C   UNL     1     -10.846  14.722  65.428  1.00  0.00    -0.363 C  
BRANCH  15  16
HETATM   16  N   UNL     1     -10.319  13.374  65.274  1.00  0.00    -0.313 N  
HETATM   17  H   UNL     1      -9.714  12.975  65.991  1.00  0.00     0.000 HD 
HETATM   18  C   UNL     1     -10.645  12.633  64.142  1.00  0.00    -0.407 C  
HETATM   19  O   UNL     1     -11.506  12.963  63.343  1.00  0.00    -0.475 OA 
BRANCH  18  20
HETATM   20  C   UNL     1      -9.911  11.274  64.021  1.00  0.00    -0.312 C  
HETATM   21  N   UNL     1      -9.248  10.846  65.173  1.00  0.00    -0.210 N  
HETATM   22  O   UNL     1      -9.938  10.638  62.981  1.00  0.00    -0.314 OA 
HETATM   23  H   UNL     1      -8.990  11.508  65.904  1.00  0.00     0.000 HD 
BRANCH  21  24
HETATM   24  C   UNL     1      -8.934   9.428  65.304  1.00  0.00    -0.204 C  
BRANCH  24  25
HETATM   25  C   UNL     1      -9.795   8.652  66.338  1.00  0.00    -0.270 C  
BRANCH  25  26
HETATM   26  N   UNL     1      -9.059   8.288  67.651  1.00  0.00    -0.131 N  
BRANCH  26  27
HETATM   27  C   UNL     1      -9.819   7.154  68.400  1.00  0.00    -0.152 C  
HETATM   28  C   UNL     1     -11.019   6.578  67.662  1.00  0.00    -0.426 C  
ENDBRANCH  26  27
BRANCH  26  29
HETATM   29  C   UNL     1      -7.615   7.855  67.280  1.00  0.00    -0.101 C  
HETATM   30  C   UNL     1      -7.079   6.654  68.039  1.00  0.00    -0.089 C  
ENDBRANCH  26  29
BRANCH  26  31
HETATM   31  C   UNL     1      -9.012   9.534  68.612  1.00  0.00    -0.132 C  
BRANCH  31  32
HETATM   32  C   UNL     1     -10.113   9.714  69.644  1.00  0.00    -0.242 A  
HETATM   33  C   UNL     1     -10.064   9.021  70.872  1.00  0.00    -0.329 A  
HETATM   34  C   UNL     1     -11.127   9.067  71.780  1.00  0.00    -0.444 A  
HETATM   35  C   UNL     1     -12.272   9.791  71.474  1.00  0.00    -0.493 A  
HETATM   36  C   UNL     1     -12.340  10.499  70.279  1.00  0.00    -0.377 A  
HETATM   37  C   UNL     1     -11.271  10.471  69.376  1.00  0.00    -0.269 A  
HETATM   38 CL   UNL     1     -11.461  11.381  67.920  1.00  0.00    -0.361 Cl 
ENDBRANCH  31  32
ENDBRANCH  26  31
ENDBRANCH  25  26
ENDBRANCH  24  25
ENDBRANCH  21  24
ENDBRANCH  18  20
ENDBRANCH  15  16
ENDBRANCH  14  15
ENDBRANCH   3  14
ENDBRANCH   2   3
TORSDOF 15
ENDMDL
MODEL       85
REMARK 921   NORMALIZED FREE ENERGY PREDICTED BY IDOCK:   -5.21 KCAL/MOL
REMARK 922        TOTAL FREE ENERGY PREDICTED BY IDOCK:  -12.43 KCAL/MOL
REMARK 923 INTER-LIGAND FREE ENERGY PREDICTED BY IDOCK:  -10.43 KCAL/MOL
REMARK 924 INTRA-LIGAND FREE ENERGY PREDICTED BY IDOCK:   -2.01 KCAL/MOL
REMARK 927      BINDING AFFINITY PREDICTED BY RF-SCORE:    0.00 PKD
ROOT
HETATM    1  C   UNL     1      -7.767   3.780  73.011  1.00  0.00    -0.074 C  
HETATM    2  C   UNL     1      -7.857   5.299  73.035  1.00  0.00    -0.098 C  
ENDROOT
BRANCH   2   3
HETATM    3  N   UNL     1      -9.163   5.908  72.438  1.00  0.00    -0.144 N  
BRANCH   3   4
HETATM    4  C   UNL     1     -10.248   6.033  73.547  1.00  0.00    -0.221 C  
HETATM    5  C   UNL     1     -11.345   4.999  73.512  1.00  0.00    -0.255 C  
ENDBRANCH   3   4
BRANCH   3   6
HETATM    6  C   UNL     1      -9.777   4.945  71.394  1.00  0.00    -0.175 C  
BRANCH   6   7
HETATM    7  C   UNL     1      -9.793   5.252  69.900  1.00  0.00    -0.282 A  
HETATM    8  C   UNL     1     -11.034   6.167  67.986  1.00  0.00    -0.399 A  
HETATM    9  C   UNL     1      -8.795   4.884  68.982  1.00  0.00    -0.117 A  
HETATM   10  C   UNL     1     -10.896   5.950  69.363  1.00  0.00    -0.352 A  
HETATM   11  C   UNL     1      -8.898   5.151  67.616  1.00  0.00    -0.105 A  
HETATM   12 CL   UNL     1     -12.154   6.540  70.393  1.00  0.00    -0.331 Cl 
HETATM   13  C   UNL     1     -10.029   5.769  67.112  1.00  0.00    -0.186 A  
ENDBRANCH   6   7
ENDBRANCH   3   6
BRANCH   3  14
HETATM   14  C   UNL     1      -8.742   7.295  71.804  1.00  0.00    -0.116 C  
BRANCH  14  15
HETATM   15  C   UNL     1      -9.737   8.493  71.995  1.00  0.00    -0.307 C  
BRANCH  15  16
HETATM   16  N   UNL     1     -10.050   9.312  70.833  1.00  0.00    -0.283 N  
HETATM   17  H   UNL     1      -9.395   9.367  70.053  1.00  0.00     0.000 HD 
HETATM   18  C   UNL     1     -11.248  10.020  70.793  1.00  0.00    -0.352 C  
HETATM   19  O   UNL     1     -12.157   9.855  71.589  1.00  0.00    -0.389 OA 
BRANCH  18  20
HETATM   20  C   UNL     1     -11.403  10.965  69.576  1.00  0.00    -0.283 C  
HETATM   21  N   UNL     1     -10.355  11.865  69.377  1.00  0.00    -0.408 N  
HETATM   22  O   UNL     1     -12.382  10.898  68.852  1.00  0.00    -0.486 OA 
HETATM   23  H   UNL     1      -9.720  12.105  70.138  1.00  0.00     0.000 HD 
BRANCH  21  24
HETATM   24  C   UNL     1     -10.188  12.453  68.053  1.00  0.00    -0.219 C  
BRANCH  24  25
HETATM   25  C   UNL     1      -9.617  13.897  68.036  1.00  0.00    -0.219 C  
BRANCH  25  26
HETATM   26  N   UNL     1     -10.537  14.950  67.373  1.00  0.00    -0.259 N  
BRANCH  26  27
HETATM   27  C   UNL     1     -11.493  14.268  66.351  1.00  0.00    -0.355 C  
HETATM   28  C   UNL     1     -11.319  14.707  64.904  1.00  0.00    -0.403 C  
ENDBRANCH  26  27
BRANCH  26  29
HETATM   29  C   UNL     1     -11.329  15.665  68.502  1.00  0.00    -0.360 C  
HETATM   30  C   UNL     1     -10.792  15.458  69.907  1.00  0.00    -0.305 C  
ENDBRANCH  26  29
BRANCH  26  31
HETATM   31  C   UNL     1      -9.676  16.002  66.578  1.00  0.00    -0.264 C  
BRANCH  31  32
HETATM   32  C   UNL     1      -9.760  17.469  66.965  1.00  0.00    -0.284 A  
HETATM   33  C   UNL     1     -10.643  18.338  66.290  1.00  0.00    -0.320 A  
HETATM   34  C   UNL     1     -10.644  19.715  66.536  1.00  0.00    -0.591 A  
HETATM   35  C   UNL     1      -9.750  20.259  67.449  1.00  0.00    -0.584 A  
HETATM   36  C   UNL     1      -8.881  19.423  68.142  1.00  0.00    -0.376 A  
HETATM   37  C   UNL     1      -8.890  18.043  67.913  1.00  0.00    -0.268 A  
HETATM   38 CL   UNL     1      -7.767  17.098  68.825  1.00  0.00    -0.260 Cl 
ENDBRANCH  31  32
ENDBRANCH  26  31
ENDBRANCH  25  26
ENDBRANCH  24  25
ENDBRANCH  21  24
ENDBRANCH  18  20
ENDBRANCH  15  16
ENDBRANCH  14  15
ENDBRANCH   3  14
ENDBRANCH   2   3
TORSDOF 15
ENDMDL
MODEL       86
REMARK 921   NORMALIZED FREE ENERGY PREDICTED BY IDOCK:   -5.21 KCAL/MOL
REMARK 922        TOTAL FREE ENERGY PREDICTED BY IDOCK:  -12.43 KCAL/MOL
REMARK 923 INTER-LIGAND FREE ENERGY PREDICTED BY IDOCK:  -10.30 KCAL/MOL
REMARK 924 INTRA-LIGAND FREE ENERGY PREDICTED BY IDOCK:   -2.13 KCAL/MOL
REMARK 927      BINDING AFFINITY PREDICTED BY RF-SCORE:    0.00 PKD
ROOT
HETATM    1  C   UNL     1     -12.095   8.441  71.353  1.00  0.00    -0.337 C  
HETATM    2  C   UNL     1     -11.947   7.091  70.667  1.00  0.00    -0.313 C  
ENDROOT
BRANCH   2   3
HETATM    3  N   UNL     1     -10.620   6.876  69.876  1.00  0.00    -0.219 N  
BRANCH   3   4
HETATM    4  C   UNL     1     -10.815   5.769  68.799  1.00  0.00    -0.215 C  
HETATM    5  C   UNL     1      -9.579   4.990  68.427  1.00  0.00    -0.195 C  
ENDBRANCH   3   4
BRANCH   3   6
HETATM    6  C   UNL     1      -9.520   6.324  70.812  1.00  0.00    -0.172 C  
BRANCH   6   7
HETATM    7  C   UNL     1      -9.832   5.465  72.034  1.00  0.00    -0.212 A  
HETATM    8  C   UNL     1      -9.771   5.243  74.480  1.00  0.00    -0.193 A  
HETATM    9  C   UNL     1     -10.313   4.145  72.000  1.00  0.00    -0.145 A  
HETATM   10  C   UNL     1      -9.616   6.008  73.318  1.00  0.00    -0.143 A  
HETATM   11  C   UNL     1     -10.529   3.397  73.158  1.00  0.00    -0.256 A  
HETATM   12 CL   UNL     1      -9.109   7.652  73.507  1.00  0.00    -0.288 Cl 
HETATM   13  C   UNL     1     -10.233   3.935  74.398  1.00  0.00    -0.244 A  
ENDBRANCH   6   7
ENDBRANCH   3   6
BRANCH   3  14
HETATM   14  C   UNL     1     -10.245   8.288  69.270  1.00  0.00    -0.204 C  
BRANCH  14  15
HETATM   15  C   UNL     1     -10.424   8.467  67.723  1.00  0.00    -0.223 C  
BRANCH  15  16
HETATM   16  N   UNL     1     -10.724   9.800  67.219  1.00  0.00    -0.255 N  
HETATM   17  H   UNL     1     -11.292  10.441  67.773  1.00  0.00     0.000 HD 
HETATM   18  C   UNL     1     -10.231  10.193  65.979  1.00  0.00    -0.218 C  
HETATM   19  O   UNL     1      -9.395   9.563  65.353  1.00  0.00    -0.229 OA 
BRANCH  18  20
HETATM   20  C   UNL     1     -10.734  11.574  65.488  1.00  0.00    -0.272 C  
HETATM   21  N   UNL     1     -11.756  12.145  66.247  1.00  0.00    -0.370 N  
HETATM   22  O   UNL     1     -10.243  12.107  64.507  1.00  0.00    -0.280 OA 
HETATM   23  H   UNL     1     -12.340  11.570  66.855  1.00  0.00     0.000 HD 
BRANCH  21  24
HETATM   24  C   UNL     1     -11.970  13.584  66.151  1.00  0.00    -0.412 C  
BRANCH  24  25
HETATM   25  C   UNL     1     -12.137  14.321  67.508  1.00  0.00    -0.312 C  
BRANCH  25  26
HETATM   26  N   UNL     1     -10.858  15.023  68.026  1.00  0.00    -0.262 N  
BRANCH  26  27
HETATM   27  C   UNL     1      -9.597  14.439  67.324  1.00  0.00    -0.227 C  
HETATM   28  C   UNL     1      -8.758  13.495  68.174  1.00  0.00    -0.174 C  
ENDBRANCH  26  27
BRANCH  26  29
HETATM   29  C   UNL     1     -11.008  16.545  67.750  1.00  0.00    -0.252 C  
HETATM   30  C   UNL     1     -10.204  17.455  68.661  1.00  0.00    -0.361 C  
ENDBRANCH  26  29
BRANCH  26  31
HETATM   31  C   UNL     1     -10.690  14.776  69.572  1.00  0.00    -0.215 C  
BRANCH  31  32
HETATM   32  C   UNL     1     -11.925  14.514  70.417  1.00  0.00    -0.386 A  
HETATM   33  C   UNL     1     -12.666  15.587  70.954  1.00  0.00    -0.525 A  
HETATM   34  C   UNL     1     -13.727  15.372  71.841  1.00  0.00    -0.603 A  
HETATM   35  C   UNL     1     -14.059  14.080  72.227  1.00  0.00    -0.633 A  
HETATM   36  C   UNL     1     -13.357  13.002  71.698  1.00  0.00    -0.379 A  
HETATM   37  C   UNL     1     -12.308  13.212  70.796  1.00  0.00    -0.321 A  
HETATM   38 CL   UNL     1     -11.501  11.804  70.204  1.00  0.00    -0.253 Cl 
ENDBRANCH  31  32
ENDBRANCH  26  31
ENDBRANCH  25  26
ENDBRANCH  24  25
ENDBRANCH  21  24
ENDBRANCH  18  20
ENDBRANCH  15  16
ENDBRANCH  14  15
ENDBRANCH   3  14
ENDBRANCH   2   3
TORSDOF 15
ENDMDL
MODEL       87
REMARK 921   NORMALIZED FREE ENERGY PREDICTED BY IDOCK:   -5.19 KCAL/MOL
REMARK 922        TOTAL FREE ENERGY PREDICTED BY IDOCK:  -12.40 KCAL/MOL
REMARK 923 INTER-LIGAND FREE ENERGY PREDICTED BY IDOCK:  -10.11 KCAL/MOL
REMARK 924 INTRA-LIGAND FREE ENERGY PREDICTED BY IDOCK:   -2.28 KCAL/MOL
REMARK 927      BINDING AFFINITY PREDICTED BY RF-SCORE:    0.00 PKD
ROOT
HETATM    1  C   UNL     1     -10.868   6.140  67.857  1.00  0.00    -0.406 C  
HETATM    2  C   UNL     1     -10.644   6.862  69.177  1.00  0.00    -0.223 C  
ENDROOT
BRANCH   2   3
HETATM    3  N   UNL     1      -9.286   7.618  69.313  1.00  0.00    -0.145 N  
BRANCH   3   4
HETATM    4  C   UNL     1      -8.193   6.654  69.860  1.00  0.00    -0.127 C  
HETATM    5  C   UNL     1      -8.559   5.884  71.104  1.00  0.00    -0.129 C  
ENDBRANCH   3   4
BRANCH   3   6
HETATM    6  C   UNL     1      -9.395   8.733  70.379  1.00  0.00    -0.180 C  
BRANCH   6   7
HETATM    7  C   UNL     1     -10.728   9.351  70.791  1.00  0.00    -0.373 A  
HETATM    8  C   UNL     1     -12.273  11.254  70.610  1.00  0.00    -0.489 A  
HETATM    9  C   UNL     1     -11.615   8.815  71.738  1.00  0.00    -0.416 A  
HETATM   10  C   UNL     1     -11.121  10.570  70.199  1.00  0.00    -0.298 A  
HETATM   11  C   UNL     1     -12.796   9.461  72.107  1.00  0.00    -0.480 A  
HETATM   12 CL   UNL     1     -10.165  11.297  68.954  1.00  0.00    -0.210 Cl 
HETATM   13  C   UNL     1     -13.114  10.693  71.564  1.00  0.00    -0.527 A  
ENDBRANCH   6   7
ENDBRANCH   3   6
BRANCH   3  14
HETATM   14  C   UNL     1      -8.963   8.188  67.873  1.00  0.00    -0.133 C  
BRANCH  14  15
HETATM   15  C   UNL     1      -7.452   8.412  67.521  1.00  0.00    -0.094 C  
BRANCH  15  16
HETATM   16  N   UNL     1      -6.892   9.741  67.725  1.00  0.00    -0.080 N  
HETATM   17  H   UNL     1      -6.222   9.905  68.475  1.00  0.00     0.000 HD 
HETATM   18  C   UNL     1      -7.277  10.785  66.889  1.00  0.00    -0.115 C  
HETATM   19  O   UNL     1      -7.916  10.628  65.862  1.00  0.00    -0.154 OA 
BRANCH  18  20
HETATM   20  C   UNL     1      -6.728  12.176  67.292  1.00  0.00    -0.144 C  
HETATM   21  N   UNL     1      -7.590  13.250  67.068  1.00  0.00    -0.369 N  
HETATM   22  O   UNL     1      -5.616  12.293  67.781  1.00  0.00    -0.069 OA 
HETATM   23  H   UNL     1      -8.360  13.173  66.403  1.00  0.00     0.000 HD 
BRANCH  21  24
HETATM   24  C   UNL     1      -7.365  14.486  67.809  1.00  0.00    -0.175 C  
BRANCH  24  25
HETATM   25  C   UNL     1      -8.651  15.218  68.282  1.00  0.00    -0.159 C  
BRANCH  25  26
HETATM   26  N   UNL     1      -9.088  16.403  67.388  1.00  0.00    -0.199 N  
BRANCH  26  27
HETATM   27  C   UNL     1      -9.162  17.715  68.224  1.00  0.00    -0.283 C  
HETATM   28  C   UNL     1     -10.360  18.607  67.930  1.00  0.00    -0.442 C  
ENDBRANCH  26  27
BRANCH  26  29
HETATM   29  C   UNL     1      -8.061  16.526  66.229  1.00  0.00    -0.306 C  
HETATM   30  C   UNL     1      -7.269  17.821  66.195  1.00  0.00    -0.346 C  
ENDBRANCH  26  29
BRANCH  26  31
HETATM   31  C   UNL     1     -10.525  16.141  66.801  1.00  0.00    -0.294 C  
BRANCH  31  32
HETATM   32  C   UNL     1     -10.842  14.780  66.203  1.00  0.00    -0.321 A  
HETATM   33  C   UNL     1     -10.470  14.477  64.876  1.00  0.00    -0.435 A  
HETATM   34  C   UNL     1     -10.866  13.284  64.261  1.00  0.00    -0.414 A  
HETATM   35  C   UNL     1     -11.657  12.376  64.951  1.00  0.00    -0.392 A  
HETATM   36  C   UNL     1     -12.023  12.641  66.266  1.00  0.00    -0.439 A  
HETATM   37  C   UNL     1     -11.614  13.823  66.892  1.00  0.00    -0.370 A  
HETATM   38 CL   UNL     1     -12.126  14.055  68.525  1.00  0.00    -0.377 Cl 
ENDBRANCH  31  32
ENDBRANCH  26  31
ENDBRANCH  25  26
ENDBRANCH  24  25
ENDBRANCH  21  24
ENDBRANCH  18  20
ENDBRANCH  15  16
ENDBRANCH  14  15
ENDBRANCH   3  14
ENDBRANCH   2   3
TORSDOF 15
ENDMDL
MODEL       88
REMARK 921   NORMALIZED FREE ENERGY PREDICTED BY IDOCK:   -5.19 KCAL/MOL
REMARK 922        TOTAL FREE ENERGY PREDICTED BY IDOCK:  -12.39 KCAL/MOL
REMARK 923 INTER-LIGAND FREE ENERGY PREDICTED BY IDOCK:   -8.40 KCAL/MOL
REMARK 924 INTRA-LIGAND FREE ENERGY PREDICTED BY IDOCK:   -3.99 KCAL/MOL
REMARK 927      BINDING AFFINITY PREDICTED BY RF-SCORE:    0.00 PKD
ROOT
HETATM    1  C   UNL     1      -9.178   7.769  73.420  1.00  0.00    -0.344 C  
HETATM    2  C   UNL     1     -10.584   7.191  73.479  1.00  0.00    -0.374 C  
ENDROOT
BRANCH   2   3
HETATM    3  N   UNL     1     -11.028   6.363  72.233  1.00  0.00    -0.241 N  
BRANCH   3   4
HETATM    4  C   UNL     1     -11.118   4.854  72.602  1.00  0.00    -0.155 C  
HETATM    5  C   UNL     1     -10.211   4.394  73.715  1.00  0.00    -0.224 C  
ENDBRANCH   3   4
BRANCH   3   6
HETATM    6  C   UNL     1      -9.948   6.433  71.128  1.00  0.00    -0.180 C  
BRANCH   6   7
HETATM    7  C   UNL     1     -10.225   6.041  69.680  1.00  0.00    -0.268 A  
HETATM    8  C   UNL     1      -9.701   4.546  67.801  1.00  0.00    -0.199 A  
HETATM    9  C   UNL     1     -11.068   6.735  68.796  1.00  0.00    -0.234 A  
HETATM   10  C   UNL     1      -9.585   4.901  69.152  1.00  0.00    -0.163 A  
HETATM   11  C   UNL     1     -11.236   6.351  67.464  1.00  0.00    -0.278 A  
HETATM   12 CL   UNL     1      -8.588   3.904  70.155  1.00  0.00    -0.096 Cl 
HETATM   13  C   UNL     1     -10.533   5.272  66.959  1.00  0.00    -0.290 A  
ENDBRANCH   6   7
ENDBRANCH   3   6
BRANCH   3  14
HETATM   14  C   UNL     1     -12.407   6.985  71.770  1.00  0.00    -0.354 C  
BRANCH  14  15
HETATM   15  C   UNL     1     -12.569   8.538  71.915  1.00  0.00    -0.354 C  
BRANCH  15  16
HETATM   16  N   UNL     1     -12.334   9.362  70.738  1.00  0.00    -0.472 N  
HETATM   17  H   UNL     1     -12.179   8.926  69.829  1.00  0.00     0.000 HD 
HETATM   18  C   UNL     1     -12.324  10.749  70.860  1.00  0.00    -0.396 C  
HETATM   19  O   UNL     1     -12.688  11.341  71.861  1.00  0.00    -0.335 OA 
BRANCH  18  20
HETATM   20  C   UNL     1     -11.923  11.511  69.572  1.00  0.00    -0.335 C  
HETATM   21  N   UNL     1     -11.044  12.580  69.756  1.00  0.00    -0.471 N  
HETATM   22  O   UNL     1     -12.353  11.170  68.483  1.00  0.00    -0.561 OA 
HETATM   23  H   UNL     1     -10.944  13.023  70.670  1.00  0.00     0.000 HD 
BRANCH  21  24
HETATM   24  C   UNL     1     -10.274  13.049  68.611  1.00  0.00    -0.164 C  
BRANCH  24  25
HETATM   25  C   UNL     1      -8.986  12.238  68.303  1.00  0.00    -0.182 C  
BRANCH  25  26
HETATM   26  N   UNL     1      -9.046  11.393  67.007  1.00  0.00    -0.164 N  
BRANCH  26  27
HETATM   27  C   UNL     1     -10.136  11.953  66.046  1.00  0.00    -0.231 C  
HETATM   28  C   UNL     1     -10.570  11.007  64.935  1.00  0.00    -0.328 C  
ENDBRANCH  26  27
BRANCH  26  29
HETATM   29  C   UNL     1      -7.638  11.430  66.352  1.00  0.00    -0.024 C  
HETATM   30  C   UNL     1      -6.480  11.655  67.308  1.00  0.00    -0.120 C  
ENDBRANCH  26  29
BRANCH  26  31
HETATM   31  C   UNL     1      -9.438   9.906  67.345  1.00  0.00    -0.149 C  
BRANCH  31  32
HETATM   32  C   UNL     1      -8.337   8.893  67.607  1.00  0.00    -0.110 A  
HETATM   33  C   UNL     1      -7.878   8.051  66.572  1.00  0.00    -0.097 A  
HETATM   34  C   UNL     1      -6.962   7.023  66.819  1.00  0.00    -0.073 A  
HETATM   35  C   UNL     1      -6.497   6.800  68.108  1.00  0.00    -0.053 A  
HETATM   36  C   UNL     1      -6.917   7.628  69.143  1.00  0.00    -0.068 A  
HETATM   37  C   UNL     1      -7.819   8.669  68.898  1.00  0.00    -0.104 A  
HETATM   38 CL   UNL     1      -8.279   9.633  70.255  1.00  0.00    -0.210 Cl 
ENDBRANCH  31  32
ENDBRANCH  26  31
ENDBRANCH  25  26
ENDBRANCH  24  25
ENDBRANCH  21  24
ENDBRANCH  18  20
ENDBRANCH  15  16
ENDBRANCH  14  15
ENDBRANCH   3  14
ENDBRANCH   2   3
TORSDOF 15
ENDMDL
MODEL       89
REMARK 921   NORMALIZED FREE ENERGY PREDICTED BY IDOCK:   -5.18 KCAL/MOL
REMARK 922        TOTAL FREE ENERGY PREDICTED BY IDOCK:  -12.39 KCAL/MOL
REMARK 923 INTER-LIGAND FREE ENERGY PREDICTED BY IDOCK:  -10.59 KCAL/MOL
REMARK 924 INTRA-LIGAND FREE ENERGY PREDICTED BY IDOCK:   -1.80 KCAL/MOL
REMARK 927      BINDING AFFINITY PREDICTED BY RF-SCORE:    0.00 PKD
ROOT
HETATM    1  C   UNL     1     -10.776   6.715  67.132  1.00  0.00    -0.440 C  
HETATM    2  C   UNL     1     -10.637   8.037  67.873  1.00  0.00    -0.145 C  
ENDROOT
BRANCH   2   3
HETATM    3  N   UNL     1      -9.294   8.244  68.639  1.00  0.00    -0.143 N  
BRANCH   3   4
HETATM    4  C   UNL     1      -8.409   6.970  68.516  1.00  0.00    -0.121 C  
HETATM    5  C   UNL     1      -7.048   7.173  67.900  1.00  0.00    -0.085 C  
ENDBRANCH   3   4
BRANCH   3   6
HETATM    6  C   UNL     1      -9.557   8.396  70.155  1.00  0.00    -0.165 C  
BRANCH   6   7
HETATM    7  C   UNL     1     -10.939   8.701  70.725  1.00  0.00    -0.286 A  
HETATM    8  C   UNL     1     -13.107   7.826  71.483  1.00  0.00    -0.356 A  
HETATM    9  C   UNL     1     -11.467   9.985  70.937  1.00  0.00    -0.452 A  
HETATM   10  C   UNL     1     -11.786   7.624  71.063  1.00  0.00    -0.286 A  
HETATM   11  C   UNL     1     -12.762  10.193  71.413  1.00  0.00    -0.530 A  
HETATM   12 CL   UNL     1     -11.230   5.990  70.936  1.00  0.00    -0.357 Cl 
HETATM   13  C   UNL     1     -13.593   9.115  71.662  1.00  0.00    -0.451 A  
ENDBRANCH   6   7
ENDBRANCH   3   6
BRANCH   3  14
HETATM   14  C   UNL     1      -8.633   9.537  68.009  1.00  0.00    -0.120 C  
BRANCH  14  15
HETATM   15  C   UNL     1      -9.601  10.575  67.343  1.00  0.00    -0.158 C  
BRANCH  15  16
HETATM   16  N   UNL     1      -9.840  11.831  68.039  1.00  0.00    -0.178 N  
HETATM   17  H   UNL     1      -9.066  12.333  68.473  1.00  0.00     0.000 HD 
HETATM   18  C   UNL     1     -11.133  12.342  68.110  1.00  0.00    -0.247 C  
HETATM   19  O   UNL     1     -12.069  11.907  67.461  1.00  0.00    -0.573 OA 
BRANCH  18  20
HETATM   20  C   UNL     1     -11.285  13.603  68.997  1.00  0.00    -0.273 C  
HETATM   21  N   UNL     1     -10.143  14.399  69.110  1.00  0.00    -0.398 N  
HETATM   22  O   UNL     1     -12.346  13.864  69.539  1.00  0.00    -0.333 OA 
HETATM   23  H   UNL     1      -9.218  14.018  68.910  1.00  0.00     0.000 HD 
BRANCH  21  24
HETATM   24  C   UNL     1     -10.305  15.789  69.521  1.00  0.00    -0.272 C  
BRANCH  24  25
HETATM   25  C   UNL     1     -11.011  16.707  68.487  1.00  0.00    -0.339 C  
BRANCH  25  26
HETATM   26  N   UNL     1     -10.054  17.492  67.557  1.00  0.00    -0.313 N  
BRANCH  26  27
HETATM   27  C   UNL     1     -10.202  16.999  66.087  1.00  0.00    -0.337 C  
HETATM   28  C   UNL     1     -10.022  15.501  65.883  1.00  0.00    -0.377 C  
ENDBRANCH  26  27
BRANCH  26  29
HETATM   29  C   UNL     1     -10.402  19.001  67.686  1.00  0.00    -0.423 C  
HETATM   30  C   UNL     1     -10.590  19.742  66.374  1.00  0.00    -0.575 C  
ENDBRANCH  26  29
BRANCH  26  31
HETATM   31  C   UNL     1      -8.559  17.251  67.984  1.00  0.00    -0.234 C  
BRANCH  31  32
HETATM   32  C   UNL     1      -7.457  18.033  67.289  1.00  0.00    -0.213 A  
HETATM   33  C   UNL     1      -6.966  17.616  66.034  1.00  0.00    -0.318 A  
HETATM   34  C   UNL     1      -5.865  18.239  65.437  1.00  0.00    -0.230 A  
HETATM   35  C   UNL     1      -5.217  19.280  66.088  1.00  0.00    -0.165 A  
HETATM   36  C   UNL     1      -5.691  19.724  67.318  1.00  0.00    -0.181 A  
HETATM   37  C   UNL     1      -6.804  19.116  67.910  1.00  0.00    -0.224 A  
HETATM   38 CL   UNL     1      -7.306  19.742  69.440  1.00  0.00    -0.292 Cl 
ENDBRANCH  31  32
ENDBRANCH  26  31
ENDBRANCH  25  26
ENDBRANCH  24  25
ENDBRANCH  21  24
ENDBRANCH  18  20
ENDBRANCH  15  16
ENDBRANCH  14  15
ENDBRANCH   3  14
ENDBRANCH   2   3
TORSDOF 15
ENDMDL
MODEL       90
REMARK 921   NORMALIZED FREE ENERGY PREDICTED BY IDOCK:   -5.18 KCAL/MOL
REMARK 922        TOTAL FREE ENERGY PREDICTED BY IDOCK:  -12.38 KCAL/MOL
REMARK 923 INTER-LIGAND FREE ENERGY PREDICTED BY IDOCK:  -10.07 KCAL/MOL
REMARK 924 INTRA-LIGAND FREE ENERGY PREDICTED BY IDOCK:   -2.31 KCAL/MOL
REMARK 927      BINDING AFFINITY PREDICTED BY RF-SCORE:    0.00 PKD
ROOT
HETATM    1  C   UNL     1      -6.829   6.970  70.924  1.00  0.00    -0.054 C  
HETATM    2  C   UNL     1      -7.666   5.713  70.739  1.00  0.00    -0.092 C  
ENDROOT
BRANCH   2   3
HETATM    3  N   UNL     1      -8.882   5.562  71.704  1.00  0.00    -0.135 N  
BRANCH   3   4
HETATM    4  C   UNL     1      -8.695   4.306  72.604  1.00  0.00    -0.104 C  
HETATM    5  C   UNL     1      -7.281   3.800  72.739  1.00  0.00    -0.054 C  
ENDBRANCH   3   4
BRANCH   3   6
HETATM    6  C   UNL     1     -10.175   5.281  70.902  1.00  0.00    -0.234 C  
BRANCH   6   7
HETATM    7  C   UNL     1     -10.303   5.590  69.413  1.00  0.00    -0.348 A  
HETATM    8  C   UNL     1      -9.896   4.858  67.103  1.00  0.00    -0.215 A  
HETATM    9  C   UNL     1     -10.772   6.797  68.870  1.00  0.00    -0.276 A  
HETATM   10  C   UNL     1      -9.914   4.605  68.481  1.00  0.00    -0.060 A  
HETATM   11  C   UNL     1     -10.814   7.033  67.495  1.00  0.00    -0.338 A  
HETATM   12 CL   UNL     1      -9.401   3.040  69.011  1.00  0.00    -0.230 Cl 
HETATM   13  C   UNL     1     -10.352   6.075  66.611  1.00  0.00    -0.264 A  
ENDBRANCH   6   7
ENDBRANCH   3   6
BRANCH   3  14
HETATM   14  C   UNL     1      -8.959   6.917  72.517  1.00  0.00    -0.129 C  
BRANCH  14  15
HETATM   15  C   UNL     1     -10.389   7.501  72.789  1.00  0.00    -0.278 C  
BRANCH  15  16
HETATM   16  N   UNL     1     -10.724   8.791  72.204  1.00  0.00    -0.343 N  
HETATM   17  H   UNL     1     -10.026   9.534  72.167  1.00  0.00     0.000 HD 
HETATM   18  C   UNL     1     -12.001   9.004  71.694  1.00  0.00    -0.356 C  
HETATM   19  O   UNL     1     -12.820   8.116  71.528  1.00  0.00    -0.313 OA 
BRANCH  18  20
HETATM   20  C   UNL     1     -12.282  10.456  71.231  1.00  0.00    -0.389 C  
HETATM   21  N   UNL     1     -11.432  10.943  70.237  1.00  0.00    -0.371 N  
HETATM   22  O   UNL     1     -13.198  11.101  71.712  1.00  0.00    -0.442 OA 
HETATM   23  H   UNL     1     -10.519  10.518  70.074  1.00  0.00     0.000 HD 
BRANCH  21  24
HETATM   24  C   UNL     1     -11.880  12.076  69.436  1.00  0.00    -0.324 C  
BRANCH  24  25
HETATM   25  C   UNL     1     -10.749  12.990  68.890  1.00  0.00    -0.167 C  
BRANCH  25  26
HETATM   26  N   UNL     1     -10.986  13.529  67.458  1.00  0.00    -0.264 N  
BRANCH  26  27
HETATM   27  C   UNL     1     -11.828  14.838  67.504  1.00  0.00    -0.301 C  
HETATM   28  C   UNL     1     -11.715  15.638  68.794  1.00  0.00    -0.382 C  
ENDBRANCH  26  27
BRANCH  26  29
HETATM   29  C   UNL     1      -9.596  13.770  66.808  1.00  0.00    -0.279 C  
HETATM   30  C   UNL     1      -9.503  14.983  65.898  1.00  0.00    -0.313 C  
ENDBRANCH  26  29
BRANCH  26  31
HETATM   31  C   UNL     1     -11.796  12.480  66.608  1.00  0.00    -0.352 C  
BRANCH  31  32
HETATM   32  C   UNL     1     -11.054  11.599  65.618  1.00  0.00    -0.308 A  
HETATM   33  C   UNL     1     -10.262  10.523  66.072  1.00  0.00    -0.310 A  
HETATM   34  C   UNL     1      -9.466   9.780  65.194  1.00  0.00    -0.338 A  
HETATM   35  C   UNL     1      -9.427  10.107  63.845  1.00  0.00    -0.332 A  
HETATM   36  C   UNL     1     -10.212  11.151  63.367  1.00  0.00    -0.435 A  
HETATM   37  C   UNL     1     -11.024  11.884  64.239  1.00  0.00    -0.353 A  
HETATM   38 CL   UNL     1     -11.954  13.162  63.542  1.00  0.00    -0.589 Cl 
ENDBRANCH  31  32
ENDBRANCH  26  31
ENDBRANCH  25  26
ENDBRANCH  24  25
ENDBRANCH  21  24
ENDBRANCH  18  20
ENDBRANCH  15  16
ENDBRANCH  14  15
ENDBRANCH   3  14
ENDBRANCH   2   3
TORSDOF 15
ENDMDL
MODEL       91
REMARK 921   NORMALIZED FREE ENERGY PREDICTED BY IDOCK:   -5.17 KCAL/MOL
REMARK 922        TOTAL FREE ENERGY PREDICTED BY IDOCK:  -12.37 KCAL/MOL
REMARK 923 INTER-LIGAND FREE ENERGY PREDICTED BY IDOCK:  -10.30 KCAL/MOL
REMARK 924 INTRA-LIGAND FREE ENERGY PREDICTED BY IDOCK:   -2.07 KCAL/MOL
REMARK 927      BINDING AFFINITY PREDICTED BY RF-SCORE:    0.00 PKD
ROOT
HETATM    1  C   UNL     1      -8.167   8.964  70.981  1.00  0.00    -0.217 C  
HETATM    2  C   UNL     1      -8.794   8.373  69.727  1.00  0.00    -0.134 C  
ENDROOT
BRANCH   2   3
HETATM    3  N   UNL     1     -10.308   8.686  69.517  1.00  0.00    -0.211 N  
BRANCH   3   4
HETATM    4  C   UNL     1     -10.696   9.982  70.286  1.00  0.00    -0.309 C  
HETATM    5  C   UNL     1     -11.854   9.856  71.243  1.00  0.00    -0.479 C  
ENDBRANCH   3   4
BRANCH   3   6
HETATM    6  C   UNL     1     -11.180   7.577  70.151  1.00  0.00    -0.196 C  
BRANCH   6   7
HETATM    7  C   UNL     1     -10.645   6.179  70.450  1.00  0.00    -0.317 A  
HETATM    8  C   UNL     1      -9.873   4.575  72.144  1.00  0.00    -0.237 A  
HETATM    9  C   UNL     1     -10.293   5.219  69.486  1.00  0.00    -0.333 A  
HETATM   10  C   UNL     1     -10.465   5.796  71.796  1.00  0.00    -0.228 A  
HETATM   11  C   UNL     1      -9.759   3.976  69.829  1.00  0.00    -0.254 A  
HETATM   12 CL   UNL     1     -10.940   6.848  73.085  1.00  0.00    -0.309 Cl 
HETATM   13  C   UNL     1      -9.524   3.662  71.155  1.00  0.00    -0.234 A  
ENDBRANCH   6   7
ENDBRANCH   3   6
BRANCH   3  14
HETATM   14  C   UNL     1     -10.513   8.793  67.952  1.00  0.00    -0.216 C  
BRANCH  14  15
HETATM   15  C   UNL     1      -9.358   9.462  67.129  1.00  0.00    -0.139 C  
BRANCH  15  16
HETATM   16  N   UNL     1      -9.581  10.800  66.602  1.00  0.00    -0.174 N  
HETATM   17  H   UNL     1      -9.518  11.611  67.217  1.00  0.00     0.000 HD 
HETATM   18  C   UNL     1      -9.879  10.967  65.252  1.00  0.00    -0.259 C  
HETATM   19  O   UNL     1      -9.782  10.078  64.424  1.00  0.00    -0.305 OA 
BRANCH  18  20
HETATM   20  C   UNL     1     -10.236  12.417  64.840  1.00  0.00    -0.278 C  
HETATM   21  N   UNL     1     -10.356  13.328  65.892  1.00  0.00    -0.287 N  
HETATM   22  O   UNL     1     -10.383  12.717  63.667  1.00  0.00    -0.399 OA 
HETATM   23  H   UNL     1     -10.526  13.007  66.845  1.00  0.00     0.000 HD 
BRANCH  21  24
HETATM   24  C   UNL     1     -10.234  14.750  65.594  1.00  0.00    -0.358 C  
BRANCH  24  25
HETATM   25  C   UNL     1      -9.191  15.518  66.450  1.00  0.00    -0.305 C  
BRANCH  25  26
HETATM   26  N   UNL     1      -9.680  15.921  67.863  1.00  0.00    -0.216 N  
BRANCH  26  27
HETATM   27  C   UNL     1      -8.920  15.108  68.951  1.00  0.00    -0.206 C  
HETATM   28  C   UNL     1      -7.869  14.141  68.425  1.00  0.00    -0.143 C  
ENDBRANCH  26  27
BRANCH  26  29
HETATM   29  C   UNL     1      -9.445  17.448  68.027  1.00  0.00    -0.281 C  
HETATM   30  C   UNL     1     -10.604  18.335  67.606  1.00  0.00    -0.427 C  
ENDBRANCH  26  29
BRANCH  26  31
HETATM   31  C   UNL     1     -11.212  15.597  68.021  1.00  0.00    -0.339 C  
BRANCH  31  32
HETATM   32  C   UNL     1     -11.744  15.189  69.385  1.00  0.00    -0.355 A  
HETATM   33  C   UNL     1     -11.818  16.128  70.435  1.00  0.00    -0.171 A  
HETATM   34  C   UNL     1     -12.178  15.747  71.732  1.00  0.00    -0.525 A  
HETATM   35  C   UNL     1     -12.454  14.416  72.014  1.00  0.00    -0.368 A  
HETATM   36  C   UNL     1     -12.407  13.472  70.994  1.00  0.00    -0.422 A  
HETATM   37  C   UNL     1     -12.066  13.851  69.691  1.00  0.00    -0.349 A  
HETATM   38 CL   UNL     1     -12.034  12.600  68.502  1.00  0.00    -0.318 Cl 
ENDBRANCH  31  32
ENDBRANCH  26  31
ENDBRANCH  25  26
ENDBRANCH  24  25
ENDBRANCH  21  24
ENDBRANCH  18  20
ENDBRANCH  15  16
ENDBRANCH  14  15
ENDBRANCH   3  14
ENDBRANCH   2   3
TORSDOF 15
ENDMDL
MODEL       92
REMARK 921   NORMALIZED FREE ENERGY PREDICTED BY IDOCK:   -5.17 KCAL/MOL
REMARK 922        TOTAL FREE ENERGY PREDICTED BY IDOCK:  -12.36 KCAL/MOL
REMARK 923 INTER-LIGAND FREE ENERGY PREDICTED BY IDOCK:  -10.20 KCAL/MOL
REMARK 924 INTRA-LIGAND FREE ENERGY PREDICTED BY IDOCK:   -2.17 KCAL/MOL
REMARK 927      BINDING AFFINITY PREDICTED BY RF-SCORE:    0.00 PKD
ROOT
HETATM    1  C   UNL     1      -7.384  15.423  67.769  1.00  0.00    -0.180 C  
HETATM    2  C   UNL     1      -8.625  16.016  68.418  1.00  0.00    -0.185 C  
ENDROOT
BRANCH   2   3
HETATM    3  N   UNL     1      -9.703  16.571  67.436  1.00  0.00    -0.243 N  
BRANCH   3   4
HETATM    4  C   UNL     1      -9.842  18.111  67.611  1.00  0.00    -0.312 C  
HETATM    5  C   UNL     1      -8.764  18.778  68.427  1.00  0.00    -0.369 C  
ENDBRANCH   3   4
BRANCH   3   6
HETATM    6  C   UNL     1     -11.098  16.007  67.793  1.00  0.00    -0.273 C  
BRANCH   6   7
HETATM    7  C   UNL     1     -11.472  15.570  69.207  1.00  0.00    -0.349 A  
HETATM    8  C   UNL     1     -12.394  13.812  70.656  1.00  0.00    -0.445 A  
HETATM    9  C   UNL     1     -11.420  16.383  70.351  1.00  0.00    -0.150 A  
HETATM   10  C   UNL     1     -11.926  14.250  69.410  1.00  0.00    -0.337 A  
HETATM   11  C   UNL     1     -11.828  15.935  71.608  1.00  0.00    -0.565 A  
HETATM   12 CL   UNL     1     -11.956  13.115  68.104  1.00  0.00    -0.371 Cl 
HETATM   13  C   UNL     1     -12.340  14.658  71.757  1.00  0.00    -0.415 A  
ENDBRANCH   6   7
ENDBRANCH   3   6
BRANCH   3  14
HETATM   14  C   UNL     1      -9.230  16.138  65.989  1.00  0.00    -0.328 C  
BRANCH  14  15
HETATM   15  C   UNL     1     -10.106  15.070  65.246  1.00  0.00    -0.343 C  
BRANCH  15  16
HETATM   16  N   UNL     1      -9.906  13.669  65.585  1.00  0.00    -0.466 N  
HETATM   17  H   UNL     1      -9.551  13.409  66.505  1.00  0.00     0.000 HD 
HETATM   18  C   UNL     1     -10.204  12.685  64.645  1.00  0.00    -0.294 C  
HETATM   19  O   UNL     1     -10.806  12.902  63.608  1.00  0.00    -0.379 OA 
BRANCH  18  20
HETATM   20  C   UNL     1      -9.816  11.246  65.067  1.00  0.00    -0.261 C  
HETATM   21  N   UNL     1      -9.378  11.104  66.385  1.00  0.00    -0.182 N  
HETATM   22  O   UNL     1      -9.909  10.317  64.282  1.00  0.00    -0.329 OA 
HETATM   23  H   UNL     1      -9.029  11.906  66.910  1.00  0.00     0.000 HD 
BRANCH  21  24
HETATM   24  C   UNL     1      -9.432   9.780  66.994  1.00  0.00    -0.157 C  
BRANCH  24  25
HETATM   25  C   UNL     1     -10.747   9.453  67.752  1.00  0.00    -0.229 C  
BRANCH  25  26
HETATM   26  N   UNL     1     -10.561   9.086  69.245  1.00  0.00    -0.227 N  
BRANCH  26  27
HETATM   27  C   UNL     1      -9.063   8.786  69.546  1.00  0.00    -0.146 C  
HETATM   28  C   UNL     1      -8.621   9.055  70.978  1.00  0.00    -0.264 C  
ENDBRANCH  26  27
BRANCH  26  29
HETATM   29  C   UNL     1     -11.082  10.278  70.094  1.00  0.00    -0.319 C  
HETATM   30  C   UNL     1     -12.265   9.969  70.994  1.00  0.00    -0.462 C  
ENDBRANCH  26  29
BRANCH  26  31
HETATM   31  C   UNL     1     -11.378   7.786  69.593  1.00  0.00     0.163 C  
BRANCH  31  32
HETATM   32  C   UNL     1     -10.652   6.453  69.658  1.00  0.00    -0.309 A  
HETATM   33  C   UNL     1     -10.306   5.768  68.474  1.00  0.00    -0.274 A  
HETATM   34  C   UNL     1      -9.757   4.481  68.507  1.00  0.00    -0.198 A  
HETATM   35  C   UNL     1      -9.561   3.841  69.723  1.00  0.00    -0.253 A  
HETATM   36  C   UNL     1      -9.876   4.500  70.907  1.00  0.00    -0.269 A  
HETATM   37  C   UNL     1     -10.406   5.794  70.879  1.00  0.00    -0.237 A  
HETATM   38 CL   UNL     1     -10.766   6.519  72.405  1.00  0.00    -0.238 Cl 
ENDBRANCH  31  32
ENDBRANCH  26  31
ENDBRANCH  25  26
ENDBRANCH  24  25
ENDBRANCH  21  24
ENDBRANCH  18  20
ENDBRANCH  15  16
ENDBRANCH  14  15
ENDBRANCH   3  14
ENDBRANCH   2   3
TORSDOF 15
ENDMDL
MODEL       93
REMARK 921   NORMALIZED FREE ENERGY PREDICTED BY IDOCK:   -5.15 KCAL/MOL
REMARK 922        TOTAL FREE ENERGY PREDICTED BY IDOCK:  -12.32 KCAL/MOL
REMARK 923 INTER-LIGAND FREE ENERGY PREDICTED BY IDOCK:   -9.78 KCAL/MOL
REMARK 924 INTRA-LIGAND FREE ENERGY PREDICTED BY IDOCK:   -2.55 KCAL/MOL
REMARK 927      BINDING AFFINITY PREDICTED BY RF-SCORE:    0.00 PKD
ROOT
HETATM    1  C   UNL     1      -9.366   7.704  73.611  1.00  0.00    -0.344 C  
HETATM    2  C   UNL     1     -10.729   7.502  72.963  1.00  0.00    -0.384 C  
ENDROOT
BRANCH   2   3
HETATM    3  N   UNL     1     -10.869   6.234  72.064  1.00  0.00    -0.235 N  
BRANCH   3   4
HETATM    4  C   UNL     1     -11.245   5.002  72.937  1.00  0.00    -0.271 C  
HETATM    5  C   UNL     1     -10.151   3.985  73.143  1.00  0.00    -0.204 C  
ENDBRANCH   3   4
BRANCH   3   6
HETATM    6  C   UNL     1      -9.505   5.868  71.434  1.00  0.00    -0.150 C  
BRANCH   6   7
HETATM    7  C   UNL     1      -9.313   5.689  69.931  1.00  0.00    -0.181 A  
HETATM    8  C   UNL     1      -8.826   6.743  67.765  1.00  0.00    -0.118 A  
HETATM    9  C   UNL     1      -9.518   4.495  69.221  1.00  0.00    -0.242 A  
HETATM   10  C   UNL     1      -8.912   6.802  69.162  1.00  0.00    -0.132 A  
HETATM   11  C   UNL     1      -9.375   4.414  67.834  1.00  0.00    -0.190 A  
HETATM   12 CL   UNL     1      -8.540   8.312  69.921  1.00  0.00    -0.124 Cl 
HETATM   13  C   UNL     1      -9.055   5.544  67.102  1.00  0.00    -0.111 A  
ENDBRANCH   6   7
ENDBRANCH   3   6
BRANCH   3  14
HETATM   14  C   UNL     1     -11.959   6.595  70.976  1.00  0.00    -0.359 C  
BRANCH  14  15
HETATM   15  C   UNL     1     -12.981   7.726  71.343  1.00  0.00    -0.288 C  
BRANCH  15  16
HETATM   16  N   UNL     1     -12.713   9.073  70.860  1.00  0.00    -0.503 N  
HETATM   17  H   UNL     1     -12.230   9.213  69.972  1.00  0.00     0.000 HD 
HETATM   18  C   UNL     1     -13.120  10.168  71.615  1.00  0.00    -0.447 C  
HETATM   19  O   UNL     1     -13.864  10.086  72.578  1.00  0.00    -0.176 OA 
BRANCH  18  20
HETATM   20  C   UNL     1     -12.653  11.542  71.072  1.00  0.00    -0.357 C  
HETATM   21  N   UNL     1     -11.693  11.492  70.060  1.00  0.00    -0.380 N  
HETATM   22  O   UNL     1     -13.120  12.580  71.510  1.00  0.00    -0.381 OA 
HETATM   23  H   UNL     1     -11.115  10.663  69.928  1.00  0.00     0.000 HD 
BRANCH  21  24
HETATM   24  C   UNL     1     -11.536  12.656  69.195  1.00  0.00    -0.320 C  
BRANCH  24  25
HETATM   25  C   UNL     1     -11.815  12.404  67.688  1.00  0.00    -0.295 C  
BRANCH  25  26
HETATM   26  N   UNL     1     -11.527  13.613  66.765  1.00  0.00    -0.331 N  
BRANCH  26  27
HETATM   27  C   UNL     1     -12.607  13.710  65.647  1.00  0.00    -0.484 C  
HETATM   28  C   UNL     1     -12.075  14.017  64.254  1.00  0.00    -0.476 C  
ENDBRANCH  26  27
BRANCH  26  29
HETATM   29  C   UNL     1     -11.508  14.890  67.649  1.00  0.00    -0.352 C  
HETATM   30  C   UNL     1     -10.568  15.989  67.186  1.00  0.00    -0.305 C  
ENDBRANCH  26  29
BRANCH  26  31
HETATM   31  C   UNL     1     -10.133  13.435  66.055  1.00  0.00    -0.304 C  
BRANCH  31  32
HETATM   32  C   UNL     1      -9.265  12.242  66.419  1.00  0.00    -0.203 A  
HETATM   33  C   UNL     1      -8.325  12.335  67.467  1.00  0.00    -0.170 A  
HETATM   34  C   UNL     1      -7.425  11.298  67.735  1.00  0.00    -0.095 A  
HETATM   35  C   UNL     1      -7.430  10.152  66.950  1.00  0.00    -0.096 A  
HETATM   36  C   UNL     1      -8.359  10.026  65.923  1.00  0.00    -0.129 A  
HETATM   37  C   UNL     1      -9.274  11.053  65.663  1.00  0.00    -0.210 A  
HETATM   38 CL   UNL     1     -10.380  10.796  64.362  1.00  0.00    -0.431 Cl 
ENDBRANCH  31  32
ENDBRANCH  26  31
ENDBRANCH  25  26
ENDBRANCH  24  25
ENDBRANCH  21  24
ENDBRANCH  18  20
ENDBRANCH  15  16
ENDBRANCH  14  15
ENDBRANCH   3  14
ENDBRANCH   2   3
TORSDOF 15
ENDMDL
MODEL       94
REMARK 921   NORMALIZED FREE ENERGY PREDICTED BY IDOCK:   -5.14 KCAL/MOL
REMARK 922        TOTAL FREE ENERGY PREDICTED BY IDOCK:  -12.31 KCAL/MOL
REMARK 923 INTER-LIGAND FREE ENERGY PREDICTED BY IDOCK:  -10.49 KCAL/MOL
REMARK 924 INTRA-LIGAND FREE ENERGY PREDICTED BY IDOCK:   -1.82 KCAL/MOL
REMARK 927      BINDING AFFINITY PREDICTED BY RF-SCORE:    0.00 PKD
ROOT
HETATM    1  C   UNL     1     -12.058  15.166  64.455  1.00  0.00    -0.313 C  
HETATM    2  C   UNL     1     -10.726  15.488  65.114  1.00  0.00    -0.440 C  
ENDROOT
BRANCH   2   3
HETATM    3  N   UNL     1     -10.485  14.831  66.509  1.00  0.00    -0.285 N  
BRANCH   3   4
HETATM    4  C   UNL     1     -11.848  14.552  67.208  1.00  0.00    -0.392 C  
HETATM    5  C   UNL     1     -11.767  13.903  68.566  1.00  0.00    -0.390 C  
ENDBRANCH   3   4
BRANCH   3   6
HETATM    6  C   UNL     1      -9.755  15.817  67.450  1.00  0.00    -0.223 C  
BRANCH   6   7
HETATM    7  C   UNL     1      -9.713  17.321  67.195  1.00  0.00    -0.259 A  
HETATM    8  C   UNL     1      -8.367  19.279  66.567  1.00  0.00    -0.329 A  
HETATM    9  C   UNL     1     -10.776  18.213  67.411  1.00  0.00    -0.355 A  
HETATM   10  C   UNL     1      -8.516  17.894  66.715  1.00  0.00    -0.249 A  
HETATM   11  C   UNL     1     -10.653  19.589  67.206  1.00  0.00    -0.610 A  
HETATM   12 CL   UNL     1      -7.156  16.899  66.323  1.00  0.00    -0.245 Cl 
HETATM   13  C   UNL     1      -9.441  20.126  66.809  1.00  0.00    -0.533 A  
ENDBRANCH   6   7
ENDBRANCH   3   6
BRANCH   3  14
HETATM   14  C   UNL     1      -9.638  13.524  66.229  1.00  0.00    -0.232 C  
BRANCH  14  15
HETATM   15  C   UNL     1     -10.328  12.399  65.384  1.00  0.00    -0.277 C  
BRANCH  15  16
HETATM   16  N   UNL     1     -10.403  11.062  65.956  1.00  0.00    -0.251 N  
HETATM   17  H   UNL     1     -11.117  10.840  66.649  1.00  0.00     0.000 HD 
HETATM   18  C   UNL     1      -9.494  10.089  65.550  1.00  0.00    -0.237 C  
HETATM   19  O   UNL     1      -8.744  10.219  64.597  1.00  0.00    -0.170 OA 
BRANCH  18  20
HETATM   20  C   UNL     1      -9.580   8.754  66.331  1.00  0.00    -0.249 C  
HETATM   21  N   UNL     1      -8.364   8.101  66.541  1.00  0.00    -0.109 N  
HETATM   22  O   UNL     1     -10.652   8.332  66.734  1.00  0.00    -0.306 OA 
HETATM   23  H   UNL     1      -7.554   8.304  65.955  1.00  0.00     0.000 HD 
BRANCH  21  24
HETATM   24  C   UNL     1      -8.280   7.121  67.617  1.00  0.00    -0.114 C  
BRANCH  24  25
HETATM   25  C   UNL     1      -7.889   7.696  69.006  1.00  0.00    -0.119 C  
BRANCH  25  26
HETATM   26  N   UNL     1      -8.824   7.278  70.167  1.00  0.00    -0.144 N  
BRANCH  26  27
HETATM   27  C   UNL     1     -10.211   6.839  69.614  1.00  0.00    -0.187 C  
HETATM   28  C   UNL     1     -10.628   5.416  69.961  1.00  0.00    -0.354 C  
ENDBRANCH  26  27
BRANCH  26  29
HETATM   29  C   UNL     1      -8.130   6.124  70.942  1.00  0.00    -0.121 C  
HETATM   30  C   UNL     1      -8.055   6.302  72.448  1.00  0.00    -0.104 C  
ENDBRANCH  26  29
BRANCH  26  31
HETATM   31  C   UNL     1      -9.070   8.496  71.134  1.00  0.00    -0.190 C  
BRANCH  31  32
HETATM   32  C   UNL     1     -10.481   9.033  71.302  1.00  0.00    -0.381 A  
HETATM   33  C   UNL     1     -11.346   8.480  72.270  1.00  0.00    -0.441 A  
HETATM   34  C   UNL     1     -12.688   8.865  72.356  1.00  0.00    -0.436 A  
HETATM   35  C   UNL     1     -13.203   9.796  71.465  1.00  0.00    -0.493 A  
HETATM   36  C   UNL     1     -12.368  10.371  70.512  1.00  0.00    -0.410 A  
HETATM   37  C   UNL     1     -11.020  10.004  70.435  1.00  0.00    -0.320 A  
HETATM   38 CL   UNL     1     -10.075  10.775  69.213  1.00  0.00    -0.226 Cl 
ENDBRANCH  31  32
ENDBRANCH  26  31
ENDBRANCH  25  26
ENDBRANCH  24  25
ENDBRANCH  21  24
ENDBRANCH  18  20
ENDBRANCH  15  16
ENDBRANCH  14  15
ENDBRANCH   3  14
ENDBRANCH   2   3
TORSDOF 15
ENDMDL
MODEL       95
REMARK 921   NORMALIZED FREE ENERGY PREDICTED BY IDOCK:   -5.14 KCAL/MOL
REMARK 922        TOTAL FREE ENERGY PREDICTED BY IDOCK:  -12.31 KCAL/MOL
REMARK 923 INTER-LIGAND FREE ENERGY PREDICTED BY IDOCK:  -10.28 KCAL/MOL
REMARK 924 INTRA-LIGAND FREE ENERGY PREDICTED BY IDOCK:   -2.04 KCAL/MOL
REMARK 927      BINDING AFFINITY PREDICTED BY RF-SCORE:    0.00 PKD
ROOT
HETATM    1  C   UNL     1     -12.277  12.921  63.927  1.00  0.00    -0.525 C  
HETATM    2  C   UNL     1     -10.893  12.679  64.511  1.00  0.00    -0.336 C  
ENDROOT
BRANCH   2   3
HETATM    3  N   UNL     1     -10.727  13.026  66.023  1.00  0.00    -0.272 N  
BRANCH   3   4
HETATM    4  C   UNL     1     -11.317  11.883  66.899  1.00  0.00    -0.330 C  
HETATM    5  C   UNL     1     -10.648  10.539  66.763  1.00  0.00    -0.284 C  
ENDBRANCH   3   4
BRANCH   3   6
HETATM    6  C   UNL     1     -11.567  14.273  66.384  1.00  0.00    -0.372 C  
BRANCH   6   7
HETATM    7  C   UNL     1     -11.580  14.880  67.784  1.00  0.00    -0.358 A  
HETATM    8  C   UNL     1     -10.850  16.707  69.257  1.00  0.00    -0.310 A  
HETATM    9  C   UNL     1     -12.137  14.280  68.926  1.00  0.00    -0.314 A  
HETATM   10  C   UNL     1     -10.978  16.140  67.982  1.00  0.00    -0.338 A  
HETATM   11  C   UNL     1     -12.067  14.869  70.190  1.00  0.00    -0.379 A  
HETATM   12 CL   UNL     1     -10.331  17.029  66.646  1.00  0.00    -0.312 Cl 
HETATM   13  C   UNL     1     -11.402  16.069  70.362  1.00  0.00    -0.405 A  
ENDBRANCH   6   7
ENDBRANCH   3   6
BRANCH   3  14
HETATM   14  C   UNL     1      -9.177  13.258  66.245  1.00  0.00    -0.051 C  
BRANCH  14  15
HETATM   15  C   UNL     1      -8.724  13.696  67.680  1.00  0.00    -0.182 C  
BRANCH  15  16
HETATM   16  N   UNL     1      -8.282  12.660  68.603  1.00  0.00    -0.337 N  
HETATM   17  H   UNL     1      -8.959  12.166  69.183  1.00  0.00     0.000 HD 
HETATM   18  C   UNL     1      -6.928  12.347  68.688  1.00  0.00    -0.091 C  
HETATM   19  O   UNL     1      -6.090  12.751  67.899  1.00  0.00    -0.086 OA 
BRANCH  18  20
HETATM   20  C   UNL     1      -6.564  11.335  69.803  1.00  0.00    -0.130 C  
HETATM   21  N   UNL     1      -7.571  10.431  70.146  1.00  0.00    -0.310 N  
HETATM   22  O   UNL     1      -5.459  11.344  70.320  1.00  0.00    -0.088 OA 
HETATM   23  H   UNL     1      -8.548  10.630  69.929  1.00  0.00     0.000 HD 
BRANCH  21  24
HETATM   24  C   UNL     1      -7.193   9.196  70.821  1.00  0.00    -0.108 C  
BRANCH  24  25
HETATM   25  C   UNL     1      -7.868   7.909  70.274  1.00  0.00    -0.089 C  
BRANCH  25  26
HETATM   26  N   UNL     1      -9.194   7.524  70.974  1.00  0.00    -0.152 N  
BRANCH  26  27
HETATM   27  C   UNL     1      -9.258   5.986  71.205  1.00  0.00    -0.146 C  
HETATM   28  C   UNL     1     -10.089   5.210  70.192  1.00  0.00    -0.342 C  
ENDBRANCH  26  27
BRANCH  26  29
HETATM   29  C   UNL     1      -9.264   8.303  72.316  1.00  0.00    -0.228 C  
HETATM   30  C   UNL     1      -9.636   7.474  73.533  1.00  0.00    -0.339 C  
ENDBRANCH  26  29
BRANCH  26  31
HETATM   31  C   UNL     1     -10.421   7.913  70.068  1.00  0.00    -0.231 C  
BRANCH  31  32
HETATM   32  C   UNL     1     -11.445   8.904  70.596  1.00  0.00    -0.280 A  
HETATM   33  C   UNL     1     -11.293  10.286  70.358  1.00  0.00    -0.410 A  
HETATM   34  C   UNL     1     -12.148  11.226  70.943  1.00  0.00    -0.406 A  
HETATM   35  C   UNL     1     -13.162  10.810  71.794  1.00  0.00    -0.523 A  
HETATM   36  C   UNL     1     -13.346   9.451  72.032  1.00  0.00    -0.525 A  
HETATM   37  C   UNL     1     -12.506   8.506  71.434  1.00  0.00    -0.297 A  
HETATM   38 CL   UNL     1     -12.820   6.848  71.799  1.00  0.00    -0.390 Cl 
ENDBRANCH  31  32
ENDBRANCH  26  31
ENDBRANCH  25  26
ENDBRANCH  24  25
ENDBRANCH  21  24
ENDBRANCH  18  20
ENDBRANCH  15  16
ENDBRANCH  14  15
ENDBRANCH   3  14
ENDBRANCH   2   3
TORSDOF 15
ENDMDL
MODEL       96
REMARK 921   NORMALIZED FREE ENERGY PREDICTED BY IDOCK:   -5.14 KCAL/MOL
REMARK 922        TOTAL FREE ENERGY PREDICTED BY IDOCK:  -12.31 KCAL/MOL
REMARK 923 INTER-LIGAND FREE ENERGY PREDICTED BY IDOCK:  -10.49 KCAL/MOL
REMARK 924 INTRA-LIGAND FREE ENERGY PREDICTED BY IDOCK:   -1.81 KCAL/MOL
REMARK 927      BINDING AFFINITY PREDICTED BY RF-SCORE:    0.00 PKD
ROOT
HETATM    1  C   UNL     1     -10.058   4.605  71.694  1.00  0.00    -0.258 C  
HETATM    2  C   UNL     1     -10.146   4.872  70.199  1.00  0.00    -0.261 C  
ENDROOT
BRANCH   2   3
HETATM    3  N   UNL     1      -9.907   6.350  69.760  1.00  0.00    -0.163 N  
BRANCH   3   4
HETATM    4  C   UNL     1      -8.454   6.519  69.228  1.00  0.00    -0.127 C  
HETATM    5  C   UNL     1      -7.429   6.953  70.245  1.00  0.00    -0.086 C  
ENDBRANCH   3   4
BRANCH   3   6
HETATM    6  C   UNL     1      -9.991   7.294  70.982  1.00  0.00    -0.187 C  
BRANCH   6   7
HETATM    7  C   UNL     1     -11.136   8.282  71.183  1.00  0.00    -0.289 A  
HETATM    8  C   UNL     1     -11.946  10.590  70.946  1.00  0.00    -0.481 A  
HETATM    9  C   UNL     1     -12.349   8.001  71.832  1.00  0.00    -0.360 A  
HETATM   10  C   UNL     1     -10.987   9.599  70.699  1.00  0.00    -0.320 A  
HETATM   11  C   UNL     1     -13.336   8.969  72.028  1.00  0.00    -0.494 A  
HETATM   12 CL   UNL     1      -9.580  10.057  69.803  1.00  0.00    -0.255 Cl 
HETATM   13  C   UNL     1     -13.125  10.270  71.609  1.00  0.00    -0.553 A  
ENDBRANCH   6   7
ENDBRANCH   3   6
BRANCH   3  14
HETATM   14  C   UNL     1     -11.018   6.664  68.678  1.00  0.00    -0.251 C  
BRANCH  14  15
HETATM   15  C   UNL     1     -10.521   7.134  67.267  1.00  0.00    -0.301 C  
BRANCH  15  16
HETATM   16  N   UNL     1     -10.696   8.535  66.913  1.00  0.00    -0.309 N  
HETATM   17  H   UNL     1     -11.448   9.081  67.335  1.00  0.00     0.000 HD 
HETATM   18  C   UNL     1      -9.832   9.127  65.997  1.00  0.00    -0.272 C  
HETATM   19  O   UNL     1      -8.805   8.602  65.600  1.00  0.00    -0.175 OA 
BRANCH  18  20
HETATM   20  C   UNL     1     -10.205  10.575  65.593  1.00  0.00    -0.246 C  
HETATM   21  N   UNL     1      -9.965  11.550  66.563  1.00  0.00    -0.205 N  
HETATM   22  O   UNL     1     -10.666  10.819  64.490  1.00  0.00    -0.297 OA 
HETATM   23  H   UNL     1      -9.873  11.297  67.547  1.00  0.00     0.000 HD 
BRANCH  21  24
HETATM   24  C   UNL     1      -9.849  12.939  66.135  1.00  0.00    -0.270 C  
BRANCH  24  25
HETATM   25  C   UNL     1      -9.278  13.914  67.200  1.00  0.00    -0.239 C  
BRANCH  25  26
HETATM   26  N   UNL     1     -10.224  15.077  67.589  1.00  0.00    -0.235 N  
BRANCH  26  27
HETATM   27  C   UNL     1     -11.687  14.562  67.726  1.00  0.00    -0.374 C  
HETATM   28  C   UNL     1     -11.931  13.597  68.878  1.00  0.00    -0.392 C  
ENDBRANCH  26  27
BRANCH  26  29
HETATM   29  C   UNL     1      -9.707  15.681  68.924  1.00  0.00    -0.220 C  
HETATM   30  C   UNL     1     -10.717  16.510  69.698  1.00  0.00    -0.323 C  
ENDBRANCH  26  29
BRANCH  26  31
HETATM   31  C   UNL     1     -10.219  16.181  66.467  1.00  0.00    -0.297 C  
BRANCH  31  32
HETATM   32  C   UNL     1      -9.139  17.250  66.487  1.00  0.00    -0.289 A  
HETATM   33  C   UNL     1      -7.797  16.918  66.206  1.00  0.00    -0.346 A  
HETATM   34  C   UNL     1      -6.768  17.854  66.347  1.00  0.00    -0.272 A  
HETATM   35  C   UNL     1      -7.052  19.139  66.790  1.00  0.00    -0.218 A  
HETATM   36  C   UNL     1      -8.369  19.499  67.057  1.00  0.00    -0.315 A  
HETATM   37  C   UNL     1      -9.404  18.572  66.899  1.00  0.00    -0.294 A  
HETATM   38 CL   UNL     1     -11.000  19.122  67.261  1.00  0.00    -0.515 Cl 
ENDBRANCH  31  32
ENDBRANCH  26  31
ENDBRANCH  25  26
ENDBRANCH  24  25
ENDBRANCH  21  24
ENDBRANCH  18  20
ENDBRANCH  15  16
ENDBRANCH  14  15
ENDBRANCH   3  14
ENDBRANCH   2   3
TORSDOF 15
ENDMDL
MODEL       97
REMARK 921   NORMALIZED FREE ENERGY PREDICTED BY IDOCK:   -5.14 KCAL/MOL
REMARK 922        TOTAL FREE ENERGY PREDICTED BY IDOCK:  -12.31 KCAL/MOL
REMARK 923 INTER-LIGAND FREE ENERGY PREDICTED BY IDOCK:  -10.76 KCAL/MOL
REMARK 924 INTRA-LIGAND FREE ENERGY PREDICTED BY IDOCK:   -1.54 KCAL/MOL
REMARK 927      BINDING AFFINITY PREDICTED BY RF-SCORE:    0.00 PKD
ROOT
HETATM    1  C   UNL     1     -14.173   7.345  71.753  1.00  0.00    -0.544 C  
HETATM    2  C   UNL     1     -13.172   8.042  70.843  1.00  0.00     0.238 C  
ENDROOT
BRANCH   2   3
HETATM    3  N   UNL     1     -11.734   8.210  71.422  1.00  0.00    -0.278 N  
BRANCH   3   4
HETATM    4  C   UNL     1     -10.725   7.357  70.599  1.00  0.00    -0.229 C  
HETATM    5  C   UNL     1     -11.333   6.395  69.610  1.00  0.00    -0.479 C  
ENDBRANCH   3   4
BRANCH   3   6
HETATM    6  C   UNL     1     -11.660   7.632  72.855  1.00  0.00    -0.228 C  
BRANCH   6   7
HETATM    7  C   UNL     1     -10.893   6.356  73.190  1.00  0.00    -0.282 A  
HETATM    8  C   UNL     1      -8.754   5.335  73.840  1.00  0.00    -0.118 A  
HETATM    9  C   UNL     1     -11.402   5.051  73.090  1.00  0.00    -0.397 A  
HETATM   10  C   UNL     1      -9.555   6.464  73.625  1.00  0.00    -0.164 A  
HETATM   11  C   UNL     1     -10.627   3.922  73.362  1.00  0.00    -0.277 A  
HETATM   12 CL   UNL     1      -8.831   8.015  73.876  1.00  0.00    -0.320 Cl 
HETATM   13  C   UNL     1      -9.295   4.061  73.712  1.00  0.00    -0.110 A  
ENDBRANCH   6   7
ENDBRANCH   3   6
BRANCH   3  14
HETATM   14  C   UNL     1     -11.431   9.762  71.381  1.00  0.00    -0.365 C  
BRANCH  14  15
HETATM   15  C   UNL     1     -12.662  10.722  71.240  1.00  0.00    -0.441 C  
BRANCH  15  16
HETATM   16  N   UNL     1     -12.417  12.090  70.806  1.00  0.00    -0.330 N  
HETATM   17  H   UNL     1     -11.865  12.271  69.967  1.00  0.00     0.000 HD 
HETATM   18  C   UNL     1     -12.939  13.149  71.542  1.00  0.00    -0.321 C  
HETATM   19  O   UNL     1     -13.759  13.013  72.435  1.00  0.00    -0.578 OA 
BRANCH  18  20
HETATM   20  C   UNL     1     -12.492  14.554  71.066  1.00  0.00    -0.341 C  
HETATM   21  N   UNL     1     -11.114  14.728  70.920  1.00  0.00    -0.525 N  
HETATM   22  O   UNL     1     -13.311  15.426  70.832  1.00  0.00    -0.471 OA 
HETATM   23  H   UNL     1     -10.456  14.112  71.397  1.00  0.00     0.000 HD 
BRANCH  21  24
HETATM   24  C   UNL     1     -10.639  15.813  70.070  1.00  0.00    -0.326 C  
BRANCH  24  25
HETATM   25  C   UNL     1     -10.457  15.449  68.571  1.00  0.00    -0.234 C  
BRANCH  25  26
HETATM   26  N   UNL     1      -8.999  15.144  68.151  1.00  0.00    -0.171 N  
BRANCH  26  27
HETATM   27  C   UNL     1      -8.061  15.167  69.393  1.00  0.00    -0.200 C  
HETATM   28  C   UNL     1      -6.576  15.308  69.084  1.00  0.00    -0.130 C  
ENDBRANCH  26  27
BRANCH  26  29
HETATM   29  C   UNL     1      -8.988  13.753  67.458  1.00  0.00    -0.201 C  
HETATM   30  C   UNL     1      -9.456  12.593  68.317  1.00  0.00    -0.203 C  
ENDBRANCH  26  29
BRANCH  26  31
HETATM   31  C   UNL     1      -8.479  16.242  67.150  1.00  0.00    -0.187 C  
BRANCH  31  32
HETATM   32  C   UNL     1      -9.016  17.659  67.264  1.00  0.00    -0.242 A  
HETATM   33  C   UNL     1      -8.483  18.552  68.218  1.00  0.00    -0.341 A  
HETATM   34  C   UNL     1      -9.047  19.814  68.432  1.00  0.00    -0.338 A  
HETATM   35  C   UNL     1     -10.168  20.206  67.712  1.00  0.00    -0.514 A  
HETATM   36  C   UNL     1     -10.702  19.354  66.752  1.00  0.00    -0.550 A  
HETATM   37  C   UNL     1     -10.130  18.098  66.521  1.00  0.00    -0.386 A  
HETATM   38 CL   UNL     1     -10.875  17.117  65.311  1.00  0.00    -0.179 Cl 
ENDBRANCH  31  32
ENDBRANCH  26  31
ENDBRANCH  25  26
ENDBRANCH  24  25
ENDBRANCH  21  24
ENDBRANCH  18  20
ENDBRANCH  15  16
ENDBRANCH  14  15
ENDBRANCH   3  14
ENDBRANCH   2   3
TORSDOF 15
ENDMDL
MODEL       98
REMARK 921   NORMALIZED FREE ENERGY PREDICTED BY IDOCK:   -5.14 KCAL/MOL
REMARK 922        TOTAL FREE ENERGY PREDICTED BY IDOCK:  -12.31 KCAL/MOL
REMARK 923 INTER-LIGAND FREE ENERGY PREDICTED BY IDOCK:  -10.74 KCAL/MOL
REMARK 924 INTRA-LIGAND FREE ENERGY PREDICTED BY IDOCK:   -1.56 KCAL/MOL
REMARK 927      BINDING AFFINITY PREDICTED BY RF-SCORE:    0.00 PKD
ROOT
HETATM    1  C   UNL     1     -10.904   5.792  69.879  1.00  0.00    -0.417 C  
HETATM    2  C   UNL     1     -10.138   6.104  71.157  1.00  0.00    -0.190 C  
ENDROOT
BRANCH   2   3
HETATM    3  N   UNL     1     -11.011   6.492  72.390  1.00  0.00    -0.236 N  
BRANCH   3   4
HETATM    4  C   UNL     1     -10.311   7.620  73.203  1.00  0.00    -0.352 C  
HETATM    5  C   UNL     1      -9.068   8.204  72.581  1.00  0.00    -0.317 C  
ENDBRANCH   3   4
BRANCH   3   6
HETATM    6  C   UNL     1     -11.110   5.303  73.374  1.00  0.00    -0.303 C  
BRANCH   6   7
HETATM    7  C   UNL     1      -9.929   4.388  73.683  1.00  0.00    -0.173 A  
HETATM    8  C   UNL     1      -9.132   2.100  74.093  1.00  0.00    -0.081 A  
HETATM    9  C   UNL     1      -8.622   4.816  73.969  1.00  0.00    -0.105 A  
HETATM   10  C   UNL     1     -10.139   2.993  73.706  1.00  0.00    -0.117 A  
HETATM   11  C   UNL     1      -7.597   3.925  74.296  1.00  0.00    -0.070 A  
HETATM   12 CL   UNL     1     -11.680   2.326  73.287  1.00  0.00    -0.157 Cl 
HETATM   13  C   UNL     1      -7.857   2.569  74.384  1.00  0.00    -0.047 A  
ENDBRANCH   6   7
ENDBRANCH   3   6
BRANCH   3  14
HETATM   14  C   UNL     1     -12.420   6.912  71.807  1.00  0.00    -0.356 C  
BRANCH  14  15
HETATM   15  C   UNL     1     -12.755   8.444  71.798  1.00  0.00    -0.342 C  
BRANCH  15  16
HETATM   16  N   UNL     1     -12.389   9.216  70.619  1.00  0.00    -0.490 N  
HETATM   17  H   UNL     1     -12.184   8.744  69.739  1.00  0.00     0.000 HD 
HETATM   18  C   UNL     1     -12.322  10.604  70.700  1.00  0.00    -0.369 C  
HETATM   19  O   UNL     1     -12.735  11.247  71.651  1.00  0.00    -0.387 OA 
BRANCH  18  20
HETATM   20  C   UNL     1     -11.784  11.304  69.427  1.00  0.00    -0.339 C  
HETATM   21  N   UNL     1     -10.746  12.214  69.635  1.00  0.00    -0.362 N  
HETATM   22  O   UNL     1     -12.248  11.048  68.329  1.00  0.00    -0.582 OA 
HETATM   23  H   UNL     1     -10.587  12.625  70.555  1.00  0.00     0.000 HD 
BRANCH  21  24
HETATM   24  C   UNL     1      -9.893  12.562  68.505  1.00  0.00    -0.149 C  
BRANCH  24  25
HETATM   25  C   UNL     1      -9.572  14.075  68.359  1.00  0.00    -0.222 C  
BRANCH  25  26
HETATM   26  N   UNL     1     -10.388  14.808  67.267  1.00  0.00    -0.246 N  
BRANCH  26  27
HETATM   27  C   UNL     1     -10.887  13.797  66.192  1.00  0.00    -0.279 C  
HETATM   28  C   UNL     1     -12.393  13.771  65.973  1.00  0.00    -0.499 C  
ENDBRANCH  26  27
BRANCH  26  29
HETATM   29  C   UNL     1     -11.577  15.525  67.966  1.00  0.00    -0.268 C  
HETATM   30  C   UNL     1     -11.417  15.747  69.459  1.00  0.00    -0.356 C  
ENDBRANCH  26  29
BRANCH  26  31
HETATM   31  C   UNL     1      -9.486  15.867  66.531  1.00  0.00    -0.273 C  
BRANCH  31  32
HETATM   32  C   UNL     1      -9.706  17.345  66.807  1.00  0.00    -0.293 A  
HETATM   33  C   UNL     1     -10.524  18.118  65.956  1.00  0.00    -0.346 A  
HETATM   34  C   UNL     1     -10.636  19.504  66.112  1.00  0.00    -0.585 A  
HETATM   35  C   UNL     1      -9.919  20.152  67.109  1.00  0.00    -0.595 A  
HETATM   36  C   UNL     1      -9.120  19.412  67.974  1.00  0.00    -0.382 A  
HETATM   37  C   UNL     1      -9.020  18.023  67.834  1.00  0.00    -0.265 A  
HETATM   38 CL   UNL     1      -7.997  17.202  68.958  1.00  0.00    -0.192 Cl 
ENDBRANCH  31  32
ENDBRANCH  26  31
ENDBRANCH  25  26
ENDBRANCH  24  25
ENDBRANCH  21  24
ENDBRANCH  18  20
ENDBRANCH  15  16
ENDBRANCH  14  15
ENDBRANCH   3  14
ENDBRANCH   2   3
TORSDOF 15
ENDMDL
MODEL       99
REMARK 921   NORMALIZED FREE ENERGY PREDICTED BY IDOCK:   -5.14 KCAL/MOL
REMARK 922        TOTAL FREE ENERGY PREDICTED BY IDOCK:  -12.30 KCAL/MOL
REMARK 923 INTER-LIGAND FREE ENERGY PREDICTED BY IDOCK:  -10.44 KCAL/MOL
REMARK 924 INTRA-LIGAND FREE ENERGY PREDICTED BY IDOCK:   -1.86 KCAL/MOL
REMARK 927      BINDING AFFINITY PREDICTED BY RF-SCORE:    0.00 PKD
ROOT
HETATM    1  C   UNL     1     -10.649   4.195  72.781  1.00  0.00    -0.226 C  
HETATM    2  C   UNL     1      -9.775   5.280  72.169  1.00  0.00    -0.164 C  
ENDROOT
BRANCH   2   3
HETATM    3  N   UNL     1     -10.536   6.425  71.432  1.00  0.00    -0.224 N  
BRANCH   3   4
HETATM    4  C   UNL     1     -11.755   6.888  72.283  1.00  0.00    -0.257 C  
HETATM    5  C   UNL     1     -13.086   6.893  71.574  1.00  0.00    -0.341 C  
ENDBRANCH   3   4
BRANCH   3   6
HETATM    6  C   UNL     1     -11.153   5.900  70.115  1.00  0.00    -0.325 C  
BRANCH   6   7
HETATM    7  C   UNL     1     -10.496   6.115  68.755  1.00  0.00    -0.295 A  
HETATM    8  C   UNL     1      -8.954   5.264  67.041  1.00  0.00    -0.112 A  
HETATM    9  C   UNL     1     -10.619   7.270  67.965  1.00  0.00    -0.247 A  
HETATM   10  C   UNL     1      -9.679   5.093  68.227  1.00  0.00    -0.142 A  
HETATM   11  C   UNL     1      -9.947   7.422  66.751  1.00  0.00    -0.300 A  
HETATM   12 CL   UNL     1      -9.511   3.582  69.054  1.00  0.00    -0.237 Cl 
HETATM   13  C   UNL     1      -9.093   6.431  66.300  1.00  0.00    -0.167 A  
ENDBRANCH   6   7
ENDBRANCH   3   6
BRANCH   3  14
HETATM   14  C   UNL     1      -9.467   7.565  71.186  1.00  0.00    -0.158 C  
BRANCH  14  15
HETATM   15  C   UNL     1      -9.944   9.043  71.398  1.00  0.00    -0.318 C  
BRANCH  15  16
HETATM   16  N   UNL     1     -10.376   9.797  70.230  1.00  0.00    -0.276 N  
HETATM   17  H   UNL     1      -9.774   9.861  69.409  1.00  0.00     0.000 HD 
HETATM   18  C   UNL     1     -11.616  10.429  70.240  1.00  0.00    -0.327 C  
HETATM   19  O   UNL     1     -12.464  10.242  71.096  1.00  0.00    -0.324 OA 
BRANCH  18  20
HETATM   20  C   UNL     1     -11.902  11.316  69.002  1.00  0.00    -0.352 C  
HETATM   21  N   UNL     1     -12.111  12.670  69.269  1.00  0.00    -0.222 N  
HETATM   22  O   UNL     1     -11.927  10.837  67.881  1.00  0.00    -0.518 OA 
HETATM   23  H   UNL     1     -12.380  12.984  70.201  1.00  0.00     0.000 HD 
BRANCH  21  24
HETATM   24  C   UNL     1     -11.933  13.626  68.182  1.00  0.00    -0.355 C  
BRANCH  24  25
HETATM   25  C   UNL     1     -10.473  14.102  67.951  1.00  0.00    -0.237 C  
BRANCH  25  26
HETATM   26  N   UNL     1     -10.123  15.462  68.605  1.00  0.00    -0.207 N  
BRANCH  26  27
HETATM   27  C   UNL     1     -10.239  15.363  70.155  1.00  0.00    -0.196 C  
HETATM   28  C   UNL     1     -11.483  16.005  70.755  1.00  0.00    -0.444 C  
ENDBRANCH  26  27
BRANCH  26  29
HETATM   29  C   UNL     1      -8.681  15.840  68.167  1.00  0.00    -0.173 C  
HETATM   30  C   UNL     1      -8.214  15.224  66.861  1.00  0.00    -0.263 C  
ENDBRANCH  26  29
BRANCH  26  31
HETATM   31  C   UNL     1     -11.133  16.571  68.129  1.00  0.00    -0.303 C  
BRANCH  31  32
HETATM   32  C   UNL     1     -10.591  17.907  67.650  1.00  0.00    -0.398 A  
HETATM   33  C   UNL     1     -10.235  18.909  68.577  1.00  0.00    -0.407 A  
HETATM   34  C   UNL     1      -9.860  20.191  68.160  1.00  0.00    -0.460 A  
HETATM   35  C   UNL     1      -9.850  20.507  66.808  1.00  0.00    -0.460 A  
HETATM   36  C   UNL     1     -10.178  19.533  65.871  1.00  0.00    -0.508 A  
HETATM   37  C   UNL     1     -10.535  18.244  66.283  1.00  0.00    -0.376 A  
HETATM   38 CL   UNL     1     -10.928  17.113  65.038  1.00  0.00    -0.118 Cl 
ENDBRANCH  31  32
ENDBRANCH  26  31
ENDBRANCH  25  26
ENDBRANCH  24  25
ENDBRANCH  21  24
ENDBRANCH  18  20
ENDBRANCH  15  16
ENDBRANCH  14  15
ENDBRANCH   3  14
ENDBRANCH   2   3
TORSDOF 15
ENDMDL
MODEL      100
REMARK 921   NORMALIZED FREE ENERGY PREDICTED BY IDOCK:   -5.13 KCAL/MOL
REMARK 922        TOTAL FREE ENERGY PREDICTED BY IDOCK:  -12.28 KCAL/MOL
REMARK 923 INTER-LIGAND FREE ENERGY PREDICTED BY IDOCK:   -9.96 KCAL/MOL
REMARK 924 INTRA-LIGAND FREE ENERGY PREDICTED BY IDOCK:   -2.32 KCAL/MOL
REMARK 927      BINDING AFFINITY PREDICTED BY RF-SCORE:    0.00 PKD
ROOT
HETATM    1  C   UNL     1     -10.996  16.211  69.558  1.00  0.00    -0.341 C  
HETATM    2  C   UNL     1      -9.657  16.514  68.903  1.00  0.00    -0.261 C  
ENDROOT
BRANCH   2   3
HETATM    3  N   UNL     1      -9.559  16.186  67.381  1.00  0.00    -0.228 N  
BRANCH   3   4
HETATM    4  C   UNL     1      -9.410  17.501  66.562  1.00  0.00    -0.265 C  
HETATM    5  C   UNL     1     -10.541  18.489  66.696  1.00  0.00    -0.383 C  
ENDBRANCH   3   4
BRANCH   3   6
HETATM    6  C   UNL     1     -10.881  15.558  66.880  1.00  0.00    -0.301 C  
BRANCH   6   7
HETATM    7  C   UNL     1     -10.923  14.269  66.065  1.00  0.00    -0.312 A  
HETATM    8  C   UNL     1     -11.361  11.851  66.033  1.00  0.00    -0.375 A  
HETATM    9  C   UNL     1     -10.508  14.137  64.729  1.00  0.00    -0.432 A  
HETATM   10  C   UNL     1     -11.400  13.093  66.681  1.00  0.00    -0.325 A  
HETATM   11  C   UNL     1     -10.524  12.913  64.058  1.00  0.00    -0.395 A  
HETATM   12 CL   UNL     1     -12.025  13.132  68.294  1.00  0.00    -0.370 Cl 
HETATM   13  C   UNL     1     -10.926  11.764  64.717  1.00  0.00    -0.360 A  
ENDBRANCH   6   7
ENDBRANCH   3   6
BRANCH   3  14
HETATM   14  C   UNL     1      -8.328  15.203  67.229  1.00  0.00    -0.201 C  
BRANCH  14  15
HETATM   15  C   UNL     1      -7.937  14.356  68.490  1.00  0.00    -0.144 C  
BRANCH  15  16
HETATM   16  N   UNL     1      -8.665  13.120  68.735  1.00  0.00    -0.374 N  
HETATM   17  H   UNL     1      -9.526  13.131  69.282  1.00  0.00     0.000 HD 
HETATM   18  C   UNL     1      -8.180  11.922  68.219  1.00  0.00    -0.157 C  
HETATM   19  O   UNL     1      -7.275  11.855  67.404  1.00  0.00    -0.121 OA 
BRANCH  18  20
HETATM   20  C   UNL     1      -8.958  10.659  68.665  1.00  0.00    -0.170 C  
HETATM   21  N   UNL     1      -9.965  10.876  69.607  1.00  0.00    -0.434 N  
HETATM   22  O   UNL     1      -8.694   9.563  68.199  1.00  0.00    -0.120 OA 
HETATM   23  H   UNL     1      -9.965  11.714  70.189  1.00  0.00     0.000 HD 
BRANCH  21  24
HETATM   24  C   UNL     1     -11.018   9.876  69.740  1.00  0.00    -0.268 C  
BRANCH  24  25
HETATM   25  C   UNL     1     -11.258   9.355  71.183  1.00  0.00    -0.357 C  
BRANCH  25  26
HETATM   26  N   UNL     1     -11.025   7.836  71.370  1.00  0.00    -0.233 N  
BRANCH  26  27
HETATM   27  C   UNL     1     -10.677   7.521  72.855  1.00  0.00    -0.358 C  
HETATM   28  C   UNL     1      -9.242   7.823  73.265  1.00  0.00    -0.318 C  
ENDBRANCH  26  27
BRANCH  26  29
HETATM   29  C   UNL     1     -12.317   7.099  70.922  1.00  0.00    -0.292 C  
HETATM   30  C   UNL     1     -13.592   7.534  71.623  1.00  0.00    -0.442 C  
ENDBRANCH  26  29
BRANCH  26  31
HETATM   31  C   UNL     1      -9.808   7.359  70.493  1.00  0.00    -0.180 C  
BRANCH  31  32
HETATM   32  C   UNL     1      -9.799   5.939  69.952  1.00  0.00    -0.223 A  
HETATM   33  C   UNL     1      -9.340   4.871  70.752  1.00  0.00    -0.211 A  
HETATM   34  C   UNL     1      -9.198   3.579  70.235  1.00  0.00    -0.225 A  
HETATM   35  C   UNL     1      -9.492   3.327  68.902  1.00  0.00    -0.191 A  
HETATM   36  C   UNL     1      -9.965   4.357  68.095  1.00  0.00    -0.068 A  
HETATM   37  C   UNL     1     -10.127   5.647  68.613  1.00  0.00    -0.183 A  
HETATM   38 CL   UNL     1     -10.715   6.852  67.525  1.00  0.00    -0.344 Cl 
ENDBRANCH  31  32
ENDBRANCH  26  31
ENDBRANCH  25  26
ENDBRANCH  24  25
ENDBRANCH  21  24
ENDBRANCH  18  20
ENDBRANCH  15  16
ENDBRANCH  14  15
ENDBRANCH   3  14
ENDBRANCH   2   3
TORSDOF 15
ENDMDL
MODEL      101
REMARK 921   NORMALIZED FREE ENERGY PREDICTED BY IDOCK:   -5.12 KCAL/MOL
REMARK 922        TOTAL FREE ENERGY PREDICTED BY IDOCK:  -12.28 KCAL/MOL
REMARK 923 INTER-LIGAND FREE ENERGY PREDICTED BY IDOCK:  -10.39 KCAL/MOL
REMARK 924 INTRA-LIGAND FREE ENERGY PREDICTED BY IDOCK:   -1.89 KCAL/MOL
REMARK 927      BINDING AFFINITY PREDICTED BY RF-SCORE:    0.00 PKD
ROOT
HETATM    1  C   UNL     1      -7.783  14.856  67.459  1.00  0.00    -0.214 C  
HETATM    2  C   UNL     1      -9.119  14.848  68.187  1.00  0.00    -0.177 C  
ENDROOT
BRANCH   2   3
HETATM    3  N   UNL     1     -10.234  15.742  67.562  1.00  0.00    -0.260 N  
BRANCH   3   4
HETATM    4  C   UNL     1     -10.325  17.094  68.328  1.00  0.00    -0.354 C  
HETATM    5  C   UNL     1     -10.044  18.331  67.512  1.00  0.00    -0.362 C  
ENDBRANCH   3   4
BRANCH   3   6
HETATM    6  C   UNL     1     -11.621  15.086  67.758  1.00  0.00    -0.319 C  
BRANCH   6   7
HETATM    7  C   UNL     1     -11.833  13.849  68.625  1.00  0.00    -0.407 A  
HETATM    8  C   UNL     1     -12.369  12.941  70.845  1.00  0.00    -0.365 A  
HETATM    9  C   UNL     1     -11.619  12.522  68.215  1.00  0.00    -0.376 A  
HETATM   10  C   UNL     1     -12.264  14.020  69.957  1.00  0.00    -0.352 A  
HETATM   11  C   UNL     1     -11.781  11.437  69.078  1.00  0.00    -0.409 A  
HETATM   12 CL   UNL     1     -12.649  15.593  70.565  1.00  0.00    -0.459 Cl 
HETATM   13  C   UNL     1     -12.130  11.646  70.400  1.00  0.00    -0.462 A  
ENDBRANCH   6   7
ENDBRANCH   3   6
BRANCH   3  14
HETATM   14  C   UNL     1      -9.853  15.904  66.035  1.00  0.00    -0.337 C  
BRANCH  14  15
HETATM   15  C   UNL     1     -10.513  14.899  65.029  1.00  0.00    -0.401 C  
BRANCH  15  16
HETATM   16  N   UNL     1     -10.120  13.499  65.104  1.00  0.00    -0.513 N  
HETATM   17  H   UNL     1      -9.459  13.190  65.817  1.00  0.00     0.000 HD 
HETATM   18  C   UNL     1     -10.651  12.586  64.198  1.00  0.00    -0.398 C  
HETATM   19  O   UNL     1     -11.581  12.839  63.451  1.00  0.00    -0.499 OA 
BRANCH  18  20
HETATM   20  C   UNL     1     -10.050  11.161  64.285  1.00  0.00    -0.326 C  
HETATM   21  N   UNL     1      -9.722  10.724  65.570  1.00  0.00    -0.223 N  
HETATM   22  O   UNL     1      -9.897  10.484  63.282  1.00  0.00    -0.318 OA 
HETATM   23  H   UNL     1      -9.577  11.392  66.327  1.00  0.00     0.000 HD 
BRANCH  21  24
HETATM   24  C   UNL     1      -9.592   9.291  65.803  1.00  0.00    -0.271 C  
BRANCH  24  25
HETATM   25  C   UNL     1     -10.557   8.703  66.868  1.00  0.00    -0.200 C  
BRANCH  25  26
HETATM   26  N   UNL     1      -9.928   7.631  67.791  1.00  0.00    -0.165 N  
BRANCH  26  27
HETATM   27  C   UNL     1      -8.489   7.281  67.312  1.00  0.00    -0.118 C  
HETATM   28  C   UNL     1      -7.431   7.243  68.407  1.00  0.00    -0.106 C  
ENDBRANCH  26  27
BRANCH  26  29
HETATM   29  C   UNL     1      -9.923   8.197  69.238  1.00  0.00    -0.188 C  
HETATM   30  C   UNL     1     -11.035   7.692  70.140  1.00  0.00    -0.255 C  
ENDBRANCH  26  29
BRANCH  26  31
HETATM   31  C   UNL     1     -10.774   6.305  67.741  1.00  0.00    -0.306 C  
BRANCH  31  32
HETATM   32  C   UNL     1     -10.084   4.978  68.011  1.00  0.00    -0.169 A  
HETATM   33  C   UNL     1      -9.887   4.530  69.334  1.00  0.00    -0.260 A  
HETATM   34  C   UNL     1      -9.140   3.380  69.612  1.00  0.00    -0.202 A  
HETATM   35  C   UNL     1      -8.557   2.662  68.577  1.00  0.00    -0.112 A  
HETATM   36  C   UNL     1      -8.752   3.070  67.261  1.00  0.00    -0.141 A  
HETATM   37  C   UNL     1      -9.514   4.209  66.977  1.00  0.00    -0.192 A  
HETATM   38 CL   UNL     1      -9.688   4.629  65.311  1.00  0.00    -0.170 Cl 
ENDBRANCH  31  32
ENDBRANCH  26  31
ENDBRANCH  25  26
ENDBRANCH  24  25
ENDBRANCH  21  24
ENDBRANCH  18  20
ENDBRANCH  15  16
ENDBRANCH  14  15
ENDBRANCH   3  14
ENDBRANCH   2   3
TORSDOF 15
ENDMDL
MODEL      102
REMARK 921   NORMALIZED FREE ENERGY PREDICTED BY IDOCK:   -5.12 KCAL/MOL
REMARK 922        TOTAL FREE ENERGY PREDICTED BY IDOCK:  -12.27 KCAL/MOL
REMARK 923 INTER-LIGAND FREE ENERGY PREDICTED BY IDOCK:  -10.53 KCAL/MOL
REMARK 924 INTRA-LIGAND FREE ENERGY PREDICTED BY IDOCK:   -1.74 KCAL/MOL
REMARK 927      BINDING AFFINITY PREDICTED BY RF-SCORE:    0.00 PKD
ROOT
HETATM    1  C   UNL     1     -10.268  17.197  66.684  1.00  0.00    -0.319 C  
HETATM    2  C   UNL     1     -11.082  16.397  67.690  1.00  0.00    -0.150 C  
ENDROOT
BRANCH   2   3
HETATM    3  N   UNL     1     -10.750  14.875  67.771  1.00  0.00    -0.266 N  
BRANCH   3   4
HETATM    4  C   UNL     1      -9.426  14.577  67.010  1.00  0.00    -0.239 C  
HETATM    5  C   UNL     1      -8.343  13.905  67.814  1.00  0.00    -0.174 C  
ENDBRANCH   3   4
BRANCH   3   6
HETATM    6  C   UNL     1     -11.826  14.049  67.027  1.00  0.00    -0.428 C  
BRANCH   6   7
HETATM    7  C   UNL     1     -11.486  13.089  65.891  1.00  0.00    -0.374 A  
HETATM    8  C   UNL     1     -11.566  12.622  63.479  1.00  0.00    -0.584 A  
HETATM    9  C   UNL     1     -10.941  11.804  66.047  1.00  0.00    -0.355 A  
HETATM   10  C   UNL     1     -11.744  13.491  64.563  1.00  0.00    -0.397 A  
HETATM   11  C   UNL     1     -10.703  10.955  64.965  1.00  0.00    -0.216 A  
HETATM   12 CL   UNL     1     -12.333  15.082  64.221  1.00  0.00    -0.410 Cl 
HETATM   13  C   UNL     1     -11.039  11.352  63.683  1.00  0.00    -0.411 A  
ENDBRANCH   6   7
ENDBRANCH   3   6
BRANCH   3  14
HETATM   14  C   UNL     1     -10.685  14.529  69.314  1.00  0.00    -0.226 C  
BRANCH  14  15
HETATM   15  C   UNL     1     -11.971  13.904  69.956  1.00  0.00    -0.336 C  
BRANCH  15  16
HETATM   16  N   UNL     1     -11.903  12.527  70.421  1.00  0.00    -0.550 N  
HETATM   17  H   UNL     1     -11.200  11.892  70.042  1.00  0.00     0.000 HD 
HETATM   18  C   UNL     1     -12.801  12.081  71.386  1.00  0.00    -0.288 C  
HETATM   19  O   UNL     1     -13.535  12.821  72.019  1.00  0.00    -0.495 OA 
BRANCH  18  20
HETATM   20  C   UNL     1     -12.724  10.564  71.694  1.00  0.00    -0.445 C  
HETATM   21  N   UNL     1     -11.532   9.937  71.329  1.00  0.00    -0.375 N  
HETATM   22  O   UNL     1     -13.655   9.987  72.231  1.00  0.00    -0.381 OA 
HETATM   23  H   UNL     1     -10.914  10.353  70.632  1.00  0.00     0.000 HD 
BRANCH  21  24
HETATM   24  C   UNL     1     -11.190   8.672  71.968  1.00  0.00    -0.364 C  
BRANCH  24  25
HETATM   25  C   UNL     1      -9.669   8.400  72.127  1.00  0.00    -0.300 C  
BRANCH  25  26
HETATM   26  N   UNL     1      -9.075   7.418  71.089  1.00  0.00    -0.147 N  
BRANCH  26  27
HETATM   27  C   UNL     1      -8.655   8.182  69.798  1.00  0.00    -0.133 C  
HETATM   28  C   UNL     1      -8.064   9.566  70.026  1.00  0.00    -0.176 C  
ENDBRANCH  26  27
BRANCH  26  29
HETATM   29  C   UNL     1      -7.859   6.710  71.749  1.00  0.00    -0.102 C  
HETATM   30  C   UNL     1      -7.731   6.900  73.250  1.00  0.00    -0.093 C  
ENDBRANCH  26  29
BRANCH  26  31
HETATM   31  C   UNL     1     -10.152   6.348  70.671  1.00  0.00    -0.187 C  
BRANCH  31  32
HETATM   32  C   UNL     1     -10.285   5.075  71.489  1.00  0.00    -0.273 A  
HETATM   33  C   UNL     1     -11.032   5.068  72.686  1.00  0.00    -0.280 A  
HETATM   34  C   UNL     1     -11.061   3.947  73.522  1.00  0.00    -0.342 A  
HETATM   35  C   UNL     1     -10.328   2.815  73.194  1.00  0.00    -0.234 A  
HETATM   36  C   UNL     1      -9.597   2.788  72.011  1.00  0.00    -0.209 A  
HETATM   37  C   UNL     1      -9.581   3.899  71.161  1.00  0.00    -0.174 A  
HETATM   38 CL   UNL     1      -8.638   3.761  69.721  1.00  0.00    -0.097 Cl 
ENDBRANCH  31  32
ENDBRANCH  26  31
ENDBRANCH  25  26
ENDBRANCH  24  25
ENDBRANCH  21  24
ENDBRANCH  18  20
ENDBRANCH  15  16
ENDBRANCH  14  15
ENDBRANCH   3  14
ENDBRANCH   2   3
TORSDOF 15
ENDMDL
MODEL      103
REMARK 921   NORMALIZED FREE ENERGY PREDICTED BY IDOCK:   -5.10 KCAL/MOL
REMARK 922        TOTAL FREE ENERGY PREDICTED BY IDOCK:  -12.24 KCAL/MOL
REMARK 923 INTER-LIGAND FREE ENERGY PREDICTED BY IDOCK:   -9.89 KCAL/MOL
REMARK 924 INTRA-LIGAND FREE ENERGY PREDICTED BY IDOCK:   -2.35 KCAL/MOL
REMARK 927      BINDING AFFINITY PREDICTED BY RF-SCORE:    0.00 PKD
ROOT
HETATM    1  C   UNL     1     -10.397   5.769  73.349  1.00  0.00    -0.242 C  
HETATM    2  C   UNL     1     -11.532   6.059  72.377  1.00  0.00    -0.308 C  
ENDROOT
BRANCH   2   3
HETATM    3  N   UNL     1     -11.161   6.951  71.152  1.00  0.00    -0.250 N  
BRANCH   3   4
HETATM    4  C   UNL     1     -12.073   8.211  71.115  1.00  0.00    -0.260 C  
HETATM    5  C   UNL     1     -12.872   8.480  72.365  1.00  0.00    -0.373 C  
ENDBRANCH   3   4
BRANCH   3   6
HETATM    6  C   UNL     1     -11.466   6.205  69.832  1.00  0.00    -0.301 C  
BRANCH   6   7
HETATM    7  C   UNL     1     -10.675   6.445  68.549  1.00  0.00    -0.347 A  
HETATM    8  C   UNL     1      -8.915   5.661  67.023  1.00  0.00    -0.114 A  
HETATM    9  C   UNL     1     -10.767   7.588  67.737  1.00  0.00    -0.233 A  
HETATM   10  C   UNL     1      -9.757   5.461  68.125  1.00  0.00    -0.137 A  
HETATM   11  C   UNL     1      -9.974   7.766  66.603  1.00  0.00    -0.299 A  
HETATM   12 CL   UNL     1      -9.607   3.965  68.982  1.00  0.00    -0.239 Cl 
HETATM   13  C   UNL     1      -9.029   6.816  66.259  1.00  0.00    -0.170 A  
ENDBRANCH   6   7
ENDBRANCH   3   6
BRANCH   3  14
HETATM   14  C   UNL     1      -9.623   7.287  71.313  1.00  0.00    -0.162 C  
BRANCH  14  15
HETATM   15  C   UNL     1      -9.241   8.800  71.472  1.00  0.00    -0.262 C  
BRANCH  15  16
HETATM   16  N   UNL     1      -8.907   9.550  70.271  1.00  0.00    -0.233 N  
HETATM   17  H   UNL     1      -9.623   9.740  69.569  1.00  0.00     0.000 HD 
HETATM   18  C   UNL     1      -7.606  10.009  70.085  1.00  0.00    -0.155 C  
HETATM   19  O   UNL     1      -6.753   9.991  70.956  1.00  0.00    -0.325 OA 
BRANCH  18  20
HETATM   20  C   UNL     1      -7.339  10.667  68.708  1.00  0.00    -0.100 C  
HETATM   21  N   UNL     1      -8.379  10.565  67.783  1.00  0.00    -0.111 N  
HETATM   22  O   UNL     1      -6.286  11.238  68.481  1.00  0.00    -0.046 OA 
HETATM   23  H   UNL     1      -9.098   9.849  67.880  1.00  0.00     0.000 HD 
BRANCH  21  24
HETATM   24  C   UNL     1      -8.413  11.509  66.672  1.00  0.00    -0.172 C  
BRANCH  24  25
HETATM   25  C   UNL     1      -9.691  11.451  65.792  1.00  0.00    -0.233 C  
BRANCH  25  26
HETATM   26  N   UNL     1     -10.413  12.808  65.605  1.00  0.00    -0.273 N  
BRANCH  26  27
HETATM   27  C   UNL     1      -9.578  13.957  66.244  1.00  0.00    -0.256 C  
HETATM   28  C   UNL     1      -9.669  15.299  65.531  1.00  0.00    -0.313 C  
ENDBRANCH  26  27
BRANCH  26  29
HETATM   29  C   UNL     1     -10.613  13.032  64.081  1.00  0.00    -0.397 C  
HETATM   30  C   UNL     1     -12.005  12.726  63.555  1.00  0.00    -0.633 C  
ENDBRANCH  26  29
BRANCH  26  31
HETATM   31  C   UNL     1     -11.810  12.785  66.330  1.00  0.00    -0.423 C  
BRANCH  31  32
HETATM   32  C   UNL     1     -11.859  12.575  67.834  1.00  0.00    -0.383 A  
HETATM   33  C   UNL     1     -11.898  11.272  68.373  1.00  0.00    -0.331 A  
HETATM   34  C   UNL     1     -12.076  11.053  69.743  1.00  0.00    -0.424 A  
HETATM   35  C   UNL     1     -12.240  12.130  70.604  1.00  0.00    -0.392 A  
HETATM   36  C   UNL     1     -12.187  13.426  70.102  1.00  0.00    -0.385 A  
HETATM   37  C   UNL     1     -11.989  13.650  68.735  1.00  0.00    -0.359 A  
HETATM   38 CL   UNL     1     -11.944  15.297  68.217  1.00  0.00    -0.250 Cl 
ENDBRANCH  31  32
ENDBRANCH  26  31
ENDBRANCH  25  26
ENDBRANCH  24  25
ENDBRANCH  21  24
ENDBRANCH  18  20
ENDBRANCH  15  16
ENDBRANCH  14  15
ENDBRANCH   3  14
ENDBRANCH   2   3
TORSDOF 15
ENDMDL
MODEL      104
REMARK 921   NORMALIZED FREE ENERGY PREDICTED BY IDOCK:   -5.10 KCAL/MOL
REMARK 922        TOTAL FREE ENERGY PREDICTED BY IDOCK:  -12.23 KCAL/MOL
REMARK 923 INTER-LIGAND FREE ENERGY PREDICTED BY IDOCK:  -10.19 KCAL/MOL
REMARK 924 INTRA-LIGAND FREE ENERGY PREDICTED BY IDOCK:   -2.04 KCAL/MOL
REMARK 927      BINDING AFFINITY PREDICTED BY RF-SCORE:    0.00 PKD
ROOT
HETATM    1  C   UNL     1     -11.172  14.796  65.137  1.00  0.00    -0.384 C  
HETATM    2  C   UNL     1     -11.183  14.516  66.633  1.00  0.00    -0.346 C  
ENDROOT
BRANCH   2   3
HETATM    3  N   UNL     1     -10.163  15.336  67.481  1.00  0.00    -0.237 N  
BRANCH   3   4
HETATM    4  C   UNL     1     -10.915  16.389  68.347  1.00  0.00    -0.353 C  
HETATM    5  C   UNL     1     -11.925  15.837  69.320  1.00  0.00    -0.305 C  
ENDBRANCH   3   4
BRANCH   3   6
HETATM    6  C   UNL     1      -9.244  16.171  66.559  1.00  0.00    -0.272 C  
BRANCH   6   7
HETATM    7  C   UNL     1      -8.634  17.502  66.989  1.00  0.00    -0.251 A  
HETATM    8  C   UNL     1      -8.708  19.954  66.856  1.00  0.00    -0.408 A  
HETATM    9  C   UNL     1      -7.461  17.652  67.748  1.00  0.00    -0.205 A  
HETATM   10  C   UNL     1      -9.270  18.698  66.596  1.00  0.00    -0.321 A  
HETATM   11  C   UNL     1      -6.928  18.903  68.063  1.00  0.00    -0.252 A  
HETATM   12 CL   UNL     1     -10.770  18.658  65.734  1.00  0.00    -0.382 Cl 
HETATM   13  C   UNL     1      -7.536  20.054  67.596  1.00  0.00    -0.327 A  
ENDBRANCH   6   7
ENDBRANCH   3   6
BRANCH   3  14
HETATM   14  C   UNL     1      -9.358  14.275  68.334  1.00  0.00    -0.208 C  
BRANCH  14  15
HETATM   15  C   UNL     1      -9.796  12.775  68.198  1.00  0.00    -0.226 C  
BRANCH  15  16
HETATM   16  N   UNL     1     -10.516  12.170  69.308  1.00  0.00    -0.430 N  
HETATM   17  H   UNL     1     -10.245  12.376  70.269  1.00  0.00     0.000 HD 
HETATM   18  C   UNL     1     -11.578  11.308  69.051  1.00  0.00    -0.319 C  
HETATM   19  O   UNL     1     -12.080  11.164  67.949  1.00  0.00    -0.627 OA 
BRANCH  18  20
HETATM   20  C   UNL     1     -12.172  10.616  70.303  1.00  0.00    -0.334 C  
HETATM   21  N   UNL     1     -12.175   9.220  70.273  1.00  0.00    -0.432 N  
HETATM   22  O   UNL     1     -12.589  11.272  71.242  1.00  0.00    -0.387 OA 
HETATM   23  H   UNL     1     -12.109   8.716  69.389  1.00  0.00     0.000 HD 
BRANCH  21  24
HETATM   24  C   UNL     1     -12.277   8.500  71.537  1.00  0.00    -0.311 C  
BRANCH  24  25
HETATM   25  C   UNL     1     -12.037   6.968  71.447  1.00  0.00    -0.355 C  
BRANCH  25  26
HETATM   26  N   UNL     1     -10.914   6.432  72.368  1.00  0.00    -0.238 N  
BRANCH  26  27
HETATM   27  C   UNL     1     -10.531   7.501  73.433  1.00  0.00    -0.348 C  
HETATM   28  C   UNL     1      -9.182   7.292  74.108  1.00  0.00    -0.272 C  
ENDBRANCH  26  27
BRANCH  26  29
HETATM   29  C   UNL     1     -11.431   5.127  73.035  1.00  0.00    -0.274 C  
HETATM   30  C   UNL     1     -10.624   3.877  72.734  1.00  0.00    -0.206 C  
ENDBRANCH  26  29
BRANCH  26  31
HETATM   31  C   UNL     1      -9.620   6.124  71.527  1.00  0.00    -0.155 C  
BRANCH  31  32
HETATM   32  C   UNL     1      -9.308   6.981  70.311  1.00  0.00    -0.159 A  
HETATM   33  C   UNL     1      -8.672   8.231  70.461  1.00  0.00    -0.140 A  
HETATM   34  C   UNL     1      -8.493   9.094  69.374  1.00  0.00    -0.130 A  
HETATM   35  C   UNL     1      -8.963   8.737  68.118  1.00  0.00    -0.141 A  
HETATM   36  C   UNL     1      -9.577   7.502  67.938  1.00  0.00    -0.161 A  
HETATM   37  C   UNL     1      -9.741   6.627  69.017  1.00  0.00    -0.140 A  
HETATM   38 CL   UNL     1     -10.520   5.122  68.684  1.00  0.00    -0.156 Cl 
ENDBRANCH  31  32
ENDBRANCH  26  31
ENDBRANCH  25  26
ENDBRANCH  24  25
ENDBRANCH  21  24
ENDBRANCH  18  20
ENDBRANCH  15  16
ENDBRANCH  14  15
ENDBRANCH   3  14
ENDBRANCH   2   3
TORSDOF 15
ENDMDL
MODEL      105
REMARK 921   NORMALIZED FREE ENERGY PREDICTED BY IDOCK:   -5.10 KCAL/MOL
REMARK 922        TOTAL FREE ENERGY PREDICTED BY IDOCK:  -12.22 KCAL/MOL
REMARK 923 INTER-LIGAND FREE ENERGY PREDICTED BY IDOCK:   -9.64 KCAL/MOL
REMARK 924 INTRA-LIGAND FREE ENERGY PREDICTED BY IDOCK:   -2.58 KCAL/MOL
REMARK 927      BINDING AFFINITY PREDICTED BY RF-SCORE:    0.00 PKD
ROOT
HETATM    1  C   UNL     1     -10.996   7.024  68.520  1.00  0.00    -0.135 C  
HETATM    2  C   UNL     1     -10.170   7.354  69.755  1.00  0.00    -0.209 C  
ENDROOT
BRANCH   2   3
HETATM    3  N   UNL     1     -10.910   8.160  70.867  1.00  0.00    -0.226 N  
BRANCH   3   4
HETATM    4  C   UNL     1     -11.560   7.182  71.890  1.00  0.00    -0.278 C  
HETATM    5  C   UNL     1     -13.055   7.019  71.783  1.00  0.00    -0.343 C  
ENDBRANCH   3   4
BRANCH   3   6
HETATM    6  C   UNL     1     -12.099   8.943  70.263  1.00  0.00     0.328 C  
BRANCH   6   7
HETATM    7  C   UNL     1     -12.355  10.416  70.568  1.00  0.00    -0.410 A  
HETATM    8  C   UNL     1     -12.059  12.757  69.880  1.00  0.00    -0.329 A  
HETATM    9  C   UNL     1     -12.948  10.913  71.741  1.00  0.00    -0.557 A  
HETATM   10  C   UNL     1     -11.961  11.384  69.620  1.00  0.00    -0.348 A  
HETATM   11  C   UNL     1     -13.105  12.279  71.980  1.00  0.00    -0.461 A  
HETATM   12 CL   UNL     1     -11.299  10.906  68.095  1.00  0.00    -0.367 Cl 
HETATM   13  C   UNL     1     -12.637  13.203  71.062  1.00  0.00    -0.397 A  
ENDBRANCH   6   7
ENDBRANCH   3   6
BRANCH   3  14
HETATM   14  C   UNL     1      -9.822   9.113  71.506  1.00  0.00    -0.265 C  
BRANCH  14  15
HETATM   15  C   UNL     1      -8.421   9.163  70.803  1.00  0.00    -0.212 C  
BRANCH  15  16
HETATM   16  N   UNL     1      -8.024  10.405  70.157  1.00  0.00    -0.289 N  
HETATM   17  H   UNL     1      -8.146  11.296  70.639  1.00  0.00     0.000 HD 
HETATM   18  C   UNL     1      -7.478  10.371  68.877  1.00  0.00    -0.099 C  
HETATM   19  O   UNL     1      -7.127   9.345  68.320  1.00  0.00    -0.074 OA 
BRANCH  18  20
HETATM   20  C   UNL     1      -7.230  11.760  68.239  1.00  0.00    -0.084 C  
HETATM   21  N   UNL     1      -8.272  12.255  67.452  1.00  0.00    -0.169 N  
HETATM   22  O   UNL     1      -6.189  12.364  68.438  1.00  0.00    -0.053 OA 
HETATM   23  H   UNL     1      -8.977  11.628  67.064  1.00  0.00     0.000 HD 
BRANCH  21  24
HETATM   24  C   UNL     1      -8.328  13.689  67.199  1.00  0.00    -0.137 C  
BRANCH  24  25
HETATM   25  C   UNL     1      -9.493  14.440  67.900  1.00  0.00    -0.214 C  
BRANCH  25  26
HETATM   26  N   UNL     1     -10.227  15.474  67.011  1.00  0.00    -0.265 N  
BRANCH  26  27
HETATM   27  C   UNL     1     -11.068  14.749  65.920  1.00  0.00    -0.340 C  
HETATM   28  C   UNL     1     -12.316  14.038  66.427  1.00  0.00    -0.468 C  
ENDBRANCH  26  27
BRANCH  26  29
HETATM   29  C   UNL     1     -11.124  16.341  67.937  1.00  0.00    -0.270 C  
HETATM   30  C   UNL     1     -10.829  16.230  69.422  1.00  0.00    -0.331 C  
ENDBRANCH  26  29
BRANCH  26  31
HETATM   31  C   UNL     1      -9.185  16.390  66.268  1.00  0.00    -0.315 C  
BRANCH  31  32
HETATM   32  C   UNL     1      -8.566  17.560  67.013  1.00  0.00    -0.251 A  
HETATM   33  C   UNL     1      -7.458  17.361  67.864  1.00  0.00    -0.195 A  
HETATM   34  C   UNL     1      -6.954  18.395  68.660  1.00  0.00    -0.281 A  
HETATM   35  C   UNL     1      -7.556  19.646  68.641  1.00  0.00    -0.366 A  
HETATM   36  C   UNL     1      -8.638  19.875  67.797  1.00  0.00    -0.370 A  
HETATM   37  C   UNL     1      -9.134  18.850  66.984  1.00  0.00    -0.294 A  
HETATM   38 CL   UNL     1     -10.483  19.240  65.979  1.00  0.00    -0.571 Cl 
ENDBRANCH  31  32
ENDBRANCH  26  31
ENDBRANCH  25  26
ENDBRANCH  24  25
ENDBRANCH  21  24
ENDBRANCH  18  20
ENDBRANCH  15  16
ENDBRANCH  14  15
ENDBRANCH   3  14
ENDBRANCH   2   3
TORSDOF 15
ENDMDL
MODEL      106
REMARK 921   NORMALIZED FREE ENERGY PREDICTED BY IDOCK:   -5.08 KCAL/MOL
REMARK 922        TOTAL FREE ENERGY PREDICTED BY IDOCK:  -12.19 KCAL/MOL
REMARK 923 INTER-LIGAND FREE ENERGY PREDICTED BY IDOCK:  -10.20 KCAL/MOL
REMARK 924 INTRA-LIGAND FREE ENERGY PREDICTED BY IDOCK:   -1.98 KCAL/MOL
REMARK 927      BINDING AFFINITY PREDICTED BY RF-SCORE:    0.00 PKD
ROOT
HETATM    1  C   UNL     1      -9.584   8.315  72.825  1.00  0.00    -0.338 C  
HETATM    2  C   UNL     1     -10.661   7.245  72.724  1.00  0.00    -0.299 C  
ENDROOT
BRANCH   2   3
HETATM    3  N   UNL     1     -10.611   6.354  71.445  1.00  0.00    -0.224 N  
BRANCH   3   4
HETATM    4  C   UNL     1     -10.256   4.888  71.830  1.00  0.00    -0.201 C  
HETATM    5  C   UNL     1     -10.913   4.361  73.081  1.00  0.00    -0.332 C  
ENDBRANCH   3   4
BRANCH   3   6
HETATM    6  C   UNL     1      -9.458   6.807  70.519  1.00  0.00    -0.169 C  
BRANCH   6   7
HETATM    7  C   UNL     1      -9.699   7.404  69.136  1.00  0.00    -0.165 A  
HETATM    8  C   UNL     1      -9.717   7.057  66.703  1.00  0.00    -0.226 A  
HETATM    9  C   UNL     1      -9.985   8.754  68.871  1.00  0.00    -0.200 A  
HETATM   10  C   UNL     1      -9.621   6.559  68.009  1.00  0.00    -0.119 A  
HETATM   11  C   UNL     1     -10.143   9.246  67.574  1.00  0.00    -0.273 A  
HETATM   12 CL   UNL     1      -9.362   4.859  68.197  1.00  0.00    -0.151 Cl 
HETATM   13  C   UNL     1      -9.983   8.404  66.488  1.00  0.00    -0.335 A  
ENDBRANCH   6   7
ENDBRANCH   3   6
BRANCH   3  14
HETATM   14  C   UNL     1     -12.030   6.502  70.759  1.00  0.00    -0.287 C  
BRANCH  14  15
HETATM   15  C   UNL     1     -13.017   7.543  71.391  1.00  0.00    -0.335 C  
BRANCH  15  16
HETATM   16  N   UNL     1     -12.814   8.951  71.086  1.00  0.00    -0.501 N  
HETATM   17  H   UNL     1     -12.274   9.225  70.265  1.00  0.00     0.000 HD 
HETATM   18  C   UNL     1     -13.360   9.922  71.920  1.00  0.00    -0.424 C  
HETATM   19  O   UNL     1     -14.169   9.680  72.800  1.00  0.00    -0.224 OA 
BRANCH  18  20
HETATM   20  C   UNL     1     -12.956  11.378  71.575  1.00  0.00    -0.399 C  
HETATM   21  N   UNL     1     -11.928  11.510  70.640  1.00  0.00    -0.433 N  
HETATM   22  O   UNL     1     -13.523  12.325  72.094  1.00  0.00    -0.509 OA 
HETATM   23  H   UNL     1     -11.285  10.739  70.457  1.00  0.00     0.000 HD 
BRANCH  21  24
HETATM   24  C   UNL     1     -11.796  12.776  69.930  1.00  0.00    -0.301 C  
BRANCH  24  25
HETATM   25  C   UNL     1     -11.372  12.659  68.441  1.00  0.00    -0.290 C  
BRANCH  25  26
HETATM   26  N   UNL     1     -11.008  14.003  67.762  1.00  0.00    -0.254 N  
BRANCH  26  27
HETATM   27  C   UNL     1      -9.730  13.840  66.888  1.00  0.00    -0.265 C  
HETATM   28  C   UNL     1      -8.923  12.575  67.146  1.00  0.00    -0.200 C  
ENDBRANCH  26  27
BRANCH  26  29
HETATM   29  C   UNL     1     -12.228  14.446  66.907  1.00  0.00    -0.267 C  
HETATM   30  C   UNL     1     -12.264  13.899  65.491  1.00  0.00    -0.467 C  
ENDBRANCH  26  29
BRANCH  26  31
HETATM   31  C   UNL     1     -10.695  15.095  68.851  1.00  0.00    -0.240 C  
BRANCH  31  32
HETATM   32  C   UNL     1      -9.401  15.885  68.753  1.00  0.00    -0.220 A  
HETATM   33  C   UNL     1      -8.237  15.436  69.412  1.00  0.00    -0.250 A  
HETATM   34  C   UNL     1      -7.072  16.211  69.447  1.00  0.00    -0.215 A  
HETATM   35  C   UNL     1      -7.049  17.460  68.842  1.00  0.00    -0.251 A  
HETATM   36  C   UNL     1      -8.176  17.919  68.169  1.00  0.00    -0.269 A  
HETATM   37  C   UNL     1      -9.337  17.140  68.115  1.00  0.00    -0.264 A  
HETATM   38 CL   UNL     1     -10.680  17.807  67.258  1.00  0.00    -0.302 Cl 
ENDBRANCH  31  32
ENDBRANCH  26  31
ENDBRANCH  25  26
ENDBRANCH  24  25
ENDBRANCH  21  24
ENDBRANCH  18  20
ENDBRANCH  15  16
ENDBRANCH  14  15
ENDBRANCH   3  14
ENDBRANCH   2   3
TORSDOF 15
ENDMDL
MODEL      107
REMARK 921   NORMALIZED FREE ENERGY PREDICTED BY IDOCK:   -5.07 KCAL/MOL
REMARK 922        TOTAL FREE ENERGY PREDICTED BY IDOCK:  -12.18 KCAL/MOL
REMARK 923 INTER-LIGAND FREE ENERGY PREDICTED BY IDOCK:  -10.34 KCAL/MOL
REMARK 924 INTRA-LIGAND FREE ENERGY PREDICTED BY IDOCK:   -1.83 KCAL/MOL
REMARK 927      BINDING AFFINITY PREDICTED BY RF-SCORE:    0.00 PKD
ROOT
HETATM    1  C   UNL     1      -7.799  14.847  67.456  1.00  0.00    -0.206 C  
HETATM    2  C   UNL     1      -9.155  14.852  68.145  1.00  0.00    -0.177 C  
ENDROOT
BRANCH   2   3
HETATM    3  N   UNL     1     -10.258  15.719  67.462  1.00  0.00    -0.260 N  
BRANCH   3   4
HETATM    4  C   UNL     1     -10.354  17.106  68.162  1.00  0.00    -0.350 C  
HETATM    5  C   UNL     1     -10.059  18.301  67.291  1.00  0.00    -0.366 C  
ENDBRANCH   3   4
BRANCH   3   6
HETATM    6  C   UNL     1     -11.650  15.078  67.668  1.00  0.00    -0.312 C  
BRANCH   6   7
HETATM    7  C   UNL     1     -11.875  13.868  68.569  1.00  0.00    -0.401 A  
HETATM    8  C   UNL     1     -12.437  13.029  70.810  1.00  0.00    -0.384 A  
HETATM    9  C   UNL     1     -11.663  12.529  68.202  1.00  0.00    -0.400 A  
HETATM   10  C   UNL     1     -12.318  14.080  69.892  1.00  0.00    -0.310 A  
HETATM   11  C   UNL     1     -11.839  11.470  69.095  1.00  0.00    -0.406 A  
HETATM   12 CL   UNL     1     -12.702  15.673  70.449  1.00  0.00    -0.412 Cl 
HETATM   13  C   UNL     1     -12.200  11.721  70.407  1.00  0.00    -0.416 A  
ENDBRANCH   6   7
ENDBRANCH   3   6
BRANCH   3  14
HETATM   14  C   UNL     1      -9.853  15.807  65.935  1.00  0.00    -0.349 C  
BRANCH  14  15
HETATM   15  C   UNL     1     -10.507  14.761  64.967  1.00  0.00    -0.416 C  
BRANCH  15  16
HETATM   16  N   UNL     1     -10.150  13.359  65.133  1.00  0.00    -0.501 N  
HETATM   17  H   UNL     1      -9.501  13.079  65.869  1.00  0.00     0.000 HD 
HETATM   18  C   UNL     1     -10.699  12.404  64.283  1.00  0.00    -0.357 C  
HETATM   19  O   UNL     1     -11.618  12.632  63.515  1.00  0.00    -0.465 OA 
BRANCH  18  20
HETATM   20  C   UNL     1     -10.135  10.972  64.464  1.00  0.00    -0.321 C  
HETATM   21  N   UNL     1      -9.795  10.622  65.772  1.00  0.00    -0.227 N  
HETATM   22  O   UNL     1     -10.018  10.220  63.511  1.00  0.00    -0.215 OA 
HETATM   23  H   UNL     1      -9.617  11.338  66.476  1.00  0.00     0.000 HD 
BRANCH  21  24
HETATM   24  C   UNL     1      -9.698   9.206  66.107  1.00  0.00    -0.287 C  
BRANCH  24  25
HETATM   25  C   UNL     1     -10.641   8.730  67.246  1.00  0.00    -0.233 C  
BRANCH  25  26
HETATM   26  N   UNL     1     -10.008   7.714  68.228  1.00  0.00    -0.170 N  
BRANCH  26  27
HETATM   27  C   UNL     1     -10.774   6.359  68.174  1.00  0.00    -0.291 C  
HETATM   28  C   UNL     1      -9.895   5.120  68.069  1.00  0.00    -0.199 C  
ENDBRANCH  26  27
BRANCH  26  29
HETATM   29  C   UNL     1      -8.516   7.539  67.833  1.00  0.00    -0.122 C  
HETATM   30  C   UNL     1      -7.523   8.323  68.672  1.00  0.00    -0.097 C  
ENDBRANCH  26  29
BRANCH  26  31
HETATM   31  C   UNL     1     -10.109   8.250  69.705  1.00  0.00    -0.199 C  
BRANCH  31  32
HETATM   32  C   UNL     1     -10.170   7.253  70.850  1.00  0.00    -0.203 A  
HETATM   33  C   UNL     1      -8.988   6.676  71.361  1.00  0.00    -0.139 A  
HETATM   34  C   UNL     1      -9.027   5.661  72.323  1.00  0.00    -0.141 A  
HETATM   35  C   UNL     1     -10.248   5.184  72.782  1.00  0.00    -0.222 A  
HETATM   36  C   UNL     1     -11.428   5.748  72.309  1.00  0.00    -0.320 A  
HETATM   37  C   UNL     1     -11.394   6.777  71.362  1.00  0.00    -0.279 A  
HETATM   38 CL   UNL     1     -12.917   7.402  70.840  1.00  0.00    -0.188 Cl 
ENDBRANCH  31  32
ENDBRANCH  26  31
ENDBRANCH  25  26
ENDBRANCH  24  25
ENDBRANCH  21  24
ENDBRANCH  18  20
ENDBRANCH  15  16
ENDBRANCH  14  15
ENDBRANCH   3  14
ENDBRANCH   2   3
TORSDOF 15
ENDMDL
MODEL      108
REMARK 921   NORMALIZED FREE ENERGY PREDICTED BY IDOCK:   -5.06 KCAL/MOL
REMARK 922        TOTAL FREE ENERGY PREDICTED BY IDOCK:  -12.16 KCAL/MOL
REMARK 923 INTER-LIGAND FREE ENERGY PREDICTED BY IDOCK:  -10.62 KCAL/MOL
REMARK 924 INTRA-LIGAND FREE ENERGY PREDICTED BY IDOCK:   -1.54 KCAL/MOL
REMARK 927      BINDING AFFINITY PREDICTED BY RF-SCORE:    0.00 PKD
ROOT
HETATM    1  C   UNL     1     -10.804  15.492  65.799  1.00  0.00    -0.337 C  
HETATM    2  C   UNL     1      -9.736  16.368  66.438  1.00  0.00    -0.287 C  
ENDROOT
BRANCH   2   3
HETATM    3  N   UNL     1     -10.123  17.018  67.802  1.00  0.00    -0.291 N  
BRANCH   3   4
HETATM    4  C   UNL     1     -10.640  18.469  67.573  1.00  0.00    -0.423 C  
HETATM    5  C   UNL     1     -10.024  19.531  68.448  1.00  0.00    -0.540 C  
ENDBRANCH   3   4
BRANCH   3   6
HETATM    6  C   UNL     1      -8.870  17.184  68.694  1.00  0.00    -0.266 C  
BRANCH   6   7
HETATM    7  C   UNL     1      -7.658  16.262  68.590  1.00  0.00    -0.188 A  
HETATM    8  C   UNL     1      -5.388  15.915  67.716  1.00  0.00    -0.147 A  
HETATM    9  C   UNL     1      -7.594  14.945  69.073  1.00  0.00    -0.151 A  
HETATM   10  C   UNL     1      -6.496  16.740  67.949  1.00  0.00    -0.138 A  
HETATM   11  C   UNL     1      -6.469  14.137  68.898  1.00  0.00    -0.094 A  
HETATM   12 CL   UNL     1      -6.407  18.374  67.385  1.00  0.00    -0.184 Cl 
HETATM   13  C   UNL     1      -5.375  14.612  68.197  1.00  0.00    -0.121 A  
ENDBRANCH   6   7
ENDBRANCH   3   6
BRANCH   3  14
HETATM   14  C   UNL     1     -11.201  16.057  68.448  1.00  0.00    -0.364 C  
BRANCH  14  15
HETATM   15  C   UNL     1     -11.142  15.869  70.004  1.00  0.00    -0.354 C  
BRANCH  15  16
HETATM   16  N   UNL     1     -11.626  14.614  70.560  1.00  0.00    -0.364 N  
HETATM   17  H   UNL     1     -11.147  13.740  70.345  1.00  0.00     0.000 HD 
HETATM   18  C   UNL     1     -12.746  14.614  71.386  1.00  0.00    -0.333 C  
HETATM   19  O   UNL     1     -13.251  15.628  71.840  1.00  0.00    -0.434 OA 
BRANCH  18  20
HETATM   20  C   UNL     1     -13.250  13.208  71.798  1.00  0.00    -0.403 C  
HETATM   21  N   UNL     1     -12.681  12.140  71.103  1.00  0.00    -0.322 N  
HETATM   22  O   UNL     1     -14.080  13.075  72.682  1.00  0.00    -0.643 OA 
HETATM   23  H   UNL     1     -12.237  12.282  70.196  1.00  0.00     0.000 HD 
BRANCH  21  24
HETATM   24  C   UNL     1     -12.737  10.813  71.706  1.00  0.00    -0.359 C  
BRANCH  24  25
HETATM   25  C   UNL     1     -12.633   9.628  70.708  1.00  0.00    -0.143 C  
BRANCH  25  26
HETATM   26  N   UNL     1     -11.713   8.471  71.168  1.00  0.00    -0.279 N  
BRANCH  26  27
HETATM   27  C   UNL     1     -10.737   8.964  72.277  1.00  0.00    -0.149 C  
HETATM   28  C   UNL     1      -9.561   8.041  72.565  1.00  0.00    -0.306 C  
ENDBRANCH  26  27
BRANCH  26  29
HETATM   29  C   UNL     1     -12.620   7.320  71.682  1.00  0.00    -0.368 C  
HETATM   30  C   UNL     1     -14.112   7.599  71.643  1.00  0.00    -0.547 C  
ENDBRANCH  26  29
BRANCH  26  31
HETATM   31  C   UNL     1     -10.835   7.962  69.965  1.00  0.00    -0.238 C  
BRANCH  31  32
HETATM   32  C   UNL     1     -10.411   8.948  68.890  1.00  0.00    -0.225 A  
HETATM   33  C   UNL     1     -10.011  10.256  69.236  1.00  0.00    -0.244 A  
HETATM   34  C   UNL     1      -9.743  11.221  68.259  1.00  0.00    -0.199 A  
HETATM   35  C   UNL     1      -9.889  10.908  66.914  1.00  0.00    -0.222 A  
HETATM   36  C   UNL     1     -10.264   9.621  66.544  1.00  0.00    -0.294 A  
HETATM   37  C   UNL     1     -10.514   8.647  67.517  1.00  0.00    -0.266 A  
HETATM   38 CL   UNL     1     -10.978   7.084  66.948  1.00  0.00    -0.395 Cl 
ENDBRANCH  31  32
ENDBRANCH  26  31
ENDBRANCH  25  26
ENDBRANCH  24  25
ENDBRANCH  21  24
ENDBRANCH  18  20
ENDBRANCH  15  16
ENDBRANCH  14  15
ENDBRANCH   3  14
ENDBRANCH   2   3
TORSDOF 15
ENDMDL
MODEL      109
REMARK 921   NORMALIZED FREE ENERGY PREDICTED BY IDOCK:   -5.06 KCAL/MOL
REMARK 922        TOTAL FREE ENERGY PREDICTED BY IDOCK:  -12.15 KCAL/MOL
REMARK 923 INTER-LIGAND FREE ENERGY PREDICTED BY IDOCK:  -10.69 KCAL/MOL
REMARK 924 INTRA-LIGAND FREE ENERGY PREDICTED BY IDOCK:   -1.46 KCAL/MOL
REMARK 927      BINDING AFFINITY PREDICTED BY RF-SCORE:    0.00 PKD
ROOT
HETATM    1  C   UNL     1     -12.200  13.507  64.056  1.00  0.00    -0.458 C  
HETATM    2  C   UNL     1     -12.572  13.991  65.450  1.00  0.00    -0.505 C  
ENDROOT
BRANCH   2   3
HETATM    3  N   UNL     1     -11.388  14.132  66.455  1.00  0.00    -0.328 N  
BRANCH   3   4
HETATM    4  C   UNL     1     -11.126  15.635  66.762  1.00  0.00    -0.169 C  
HETATM    5  C   UNL     1     -10.186  16.344  65.820  1.00  0.00    -0.370 C  
ENDBRANCH   3   4
BRANCH   3   6
HETATM    6  C   UNL     1     -10.074  13.628  65.813  1.00  0.00    -0.298 C  
BRANCH   6   7
HETATM    7  C   UNL     1      -8.973  12.945  66.618  1.00  0.00    -0.141 A  
HETATM    8  C   UNL     1      -7.663  10.906  67.024  1.00  0.00    -0.129 A  
HETATM    9  C   UNL     1      -8.302  13.506  67.718  1.00  0.00    -0.181 A  
HETATM   10  C   UNL     1      -8.584  11.637  66.262  1.00  0.00    -0.103 A  
HETATM   11  C   UNL     1      -7.339  12.805  68.445  1.00  0.00    -0.118 A  
HETATM   12 CL   UNL     1      -9.266  10.860  64.874  1.00  0.00    -0.224 Cl 
HETATM   13  C   UNL     1      -7.037  11.495  68.115  1.00  0.00    -0.076 A  
ENDBRANCH   6   7
ENDBRANCH   3   6
BRANCH   3  14
HETATM   14  C   UNL     1     -11.800  13.288  67.728  1.00  0.00    -0.353 C  
BRANCH  14  15
HETATM   15  C   UNL     1     -11.741  11.727  67.594  1.00  0.00    -0.250 C  
BRANCH  15  16
HETATM   16  N   UNL     1     -12.150  10.927  68.739  1.00  0.00    -0.450 N  
HETATM   17  H   UNL     1     -12.359   9.935  68.624  1.00  0.00     0.000 HD 
HETATM   18  C   UNL     1     -12.254  11.523  69.993  1.00  0.00    -0.278 C  
HETATM   19  O   UNL     1     -11.841  12.642  70.246  1.00  0.00    -0.310 OA 
BRANCH  18  20
HETATM   20  C   UNL     1     -12.834  10.608  71.101  1.00  0.00    -0.420 C  
HETATM   21  N   UNL     1     -12.932   9.255  70.772  1.00  0.00    -0.519 N  
HETATM   22  O   UNL     1     -13.164  11.067  72.182  1.00  0.00    -0.481 OA 
HETATM   23  H   UNL     1     -12.940   8.953  69.798  1.00  0.00     0.000 HD 
BRANCH  21  24
HETATM   24  C   UNL     1     -13.024   8.284  71.855  1.00  0.00    -0.347 C  
BRANCH  24  25
HETATM   25  C   UNL     1     -12.470   6.871  71.527  1.00  0.00    -0.375 C  
BRANCH  25  26
HETATM   26  N   UNL     1     -11.150   6.507  72.250  1.00  0.00    -0.251 N  
BRANCH  26  27
HETATM   27  C   UNL     1     -10.808   7.580  73.325  1.00  0.00    -0.355 C  
HETATM   28  C   UNL     1      -9.353   8.027  73.358  1.00  0.00    -0.323 C  
ENDBRANCH  26  27
BRANCH  26  29
HETATM   29  C   UNL     1     -11.332   5.102  72.888  1.00  0.00    -0.282 C  
HETATM   30  C   UNL     1     -10.633   4.896  74.220  1.00  0.00    -0.321 C  
ENDBRANCH  26  29
BRANCH  26  31
HETATM   31  C   UNL     1      -9.957   6.476  71.224  1.00  0.00    -0.181 C  
BRANCH  31  32
HETATM   32  C   UNL     1     -10.222   6.834  69.771  1.00  0.00    -0.207 A  
HETATM   33  C   UNL     1     -10.667   5.852  68.862  1.00  0.00    -0.370 A  
HETATM   34  C   UNL     1     -10.792   6.124  67.495  1.00  0.00    -0.422 A  
HETATM   35  C   UNL     1     -10.456   7.378  67.002  1.00  0.00    -0.404 A  
HETATM   36  C   UNL     1     -10.033   8.371  67.880  1.00  0.00    -0.228 A  
HETATM   37  C   UNL     1      -9.926   8.109  69.250  1.00  0.00    -0.188 A  
HETATM   38 CL   UNL     1      -9.387   9.411  70.248  1.00  0.00    -0.270 Cl 
ENDBRANCH  31  32
ENDBRANCH  26  31
ENDBRANCH  25  26
ENDBRANCH  24  25
ENDBRANCH  21  24
ENDBRANCH  18  20
ENDBRANCH  15  16
ENDBRANCH  14  15
ENDBRANCH   3  14
ENDBRANCH   2   3
TORSDOF 15
ENDMDL
MODEL      110
REMARK 921   NORMALIZED FREE ENERGY PREDICTED BY IDOCK:   -5.05 KCAL/MOL
REMARK 922        TOTAL FREE ENERGY PREDICTED BY IDOCK:  -12.15 KCAL/MOL
REMARK 923 INTER-LIGAND FREE ENERGY PREDICTED BY IDOCK:  -10.97 KCAL/MOL
REMARK 924 INTRA-LIGAND FREE ENERGY PREDICTED BY IDOCK:   -1.17 KCAL/MOL
REMARK 927      BINDING AFFINITY PREDICTED BY RF-SCORE:    0.00 PKD
ROOT
HETATM    1  C   UNL     1     -11.847  15.704  70.918  1.00  0.00    -0.428 C  
HETATM    2  C   UNL     1     -11.523  14.948  69.638  1.00  0.00    -0.294 C  
ENDROOT
BRANCH   2   3
HETATM    3  N   UNL     1     -10.449  15.608  68.717  1.00  0.00    -0.218 N  
BRANCH   3   4
HETATM    4  C   UNL     1      -9.055  14.968  68.981  1.00  0.00    -0.205 C  
HETATM    5  C   UNL     1      -8.220  14.687  67.758  1.00  0.00    -0.169 C  
ENDBRANCH   3   4
BRANCH   3   6
HETATM    6  C   UNL     1     -10.272  17.100  69.081  1.00  0.00    -0.284 C  
BRANCH   6   7
HETATM    7  C   UNL     1      -9.940  18.167  68.042  1.00  0.00    -0.353 A  
HETATM    8  C   UNL     1      -8.255  19.689  67.101  1.00  0.00    -0.323 A  
HETATM    9  C   UNL     1     -10.859  18.755  67.157  1.00  0.00    -0.375 A  
HETATM   10  C   UNL     1      -8.611  18.633  67.949  1.00  0.00    -0.284 A  
HETATM   11  C   UNL     1     -10.497  19.767  66.265  1.00  0.00    -0.614 A  
HETATM   12 CL   UNL     1      -7.361  17.933  68.919  1.00  0.00    -0.272 Cl 
HETATM   13  C   UNL     1      -9.202  20.253  66.254  1.00  0.00    -0.316 A  
ENDBRANCH   6   7
ENDBRANCH   3   6
BRANCH   3  14
HETATM   14  C   UNL     1     -10.968  15.405  67.236  1.00  0.00    -0.317 C  
BRANCH  14  15
HETATM   15  C   UNL     1     -11.924  14.189  66.979  1.00  0.00    -0.439 C  
BRANCH  15  16
HETATM   16  N   UNL     1     -11.561  12.902  67.554  1.00  0.00    -0.335 N  
HETATM   17  H   UNL     1     -11.939  12.619  68.458  1.00  0.00     0.000 HD 
HETATM   18  C   UNL     1     -10.696  12.059  66.863  1.00  0.00    -0.244 C  
HETATM   19  O   UNL     1     -10.360  12.238  65.705  1.00  0.00    -0.245 OA 
BRANCH  18  20
HETATM   20  C   UNL     1     -10.272  10.786  67.638  1.00  0.00    -0.189 C  
HETATM   21  N   UNL     1      -9.982  10.975  68.990  1.00  0.00    -0.311 N  
HETATM   22  O   UNL     1     -10.216   9.703  67.080  1.00  0.00    -0.215 OA 
HETATM   23  H   UNL     1      -9.745  11.900  69.350  1.00  0.00     0.000 HD 
BRANCH  21  24
HETATM   24  C   UNL     1     -10.024   9.818  69.876  1.00  0.00    -0.245 C  
BRANCH  24  25
HETATM   25  C   UNL     1     -11.439   9.232  70.134  1.00  0.00    -0.108 C  
BRANCH  25  26
HETATM   26  N   UNL     1     -11.512   8.192  71.278  1.00  0.00    -0.261 N  
BRANCH  26  27
HETATM   27  C   UNL     1     -10.112   8.009  71.934  1.00  0.00    -0.203 C  
HETATM   28  C   UNL     1     -10.127   7.705  73.425  1.00  0.00    -0.379 C  
ENDBRANCH  26  27
BRANCH  26  29
HETATM   29  C   UNL     1     -12.560   8.694  72.308  1.00  0.00    -0.395 C  
HETATM   30  C   UNL     1     -13.298   9.964  71.922  1.00  0.00    -0.524 C  
ENDBRANCH  26  29
BRANCH  26  31
HETATM   31  C   UNL     1     -11.950   6.790  70.712  1.00  0.00    -0.378 C  
BRANCH  31  32
HETATM   32  C   UNL     1     -11.013   6.044  69.777  1.00  0.00    -0.471 A  
HETATM   33  C   UNL     1     -10.950   6.380  68.408  1.00  0.00    -0.390 A  
HETATM   34  C   UNL     1     -10.195   5.625  67.504  1.00  0.00    -0.246 A  
HETATM   35  C   UNL     1      -9.502   4.505  67.943  1.00  0.00    -0.200 A  
HETATM   36  C   UNL     1      -9.531   4.162  69.290  1.00  0.00    -0.258 A  
HETATM   37  C   UNL     1     -10.268   4.925  70.202  1.00  0.00    -0.240 A  
HETATM   38 CL   UNL     1     -10.240   4.408  71.849  1.00  0.00    -0.244 Cl 
ENDBRANCH  31  32
ENDBRANCH  26  31
ENDBRANCH  25  26
ENDBRANCH  24  25
ENDBRANCH  21  24
ENDBRANCH  18  20
ENDBRANCH  15  16
ENDBRANCH  14  15
ENDBRANCH   3  14
ENDBRANCH   2   3
TORSDOF 15
ENDMDL
MODEL      111
REMARK 921   NORMALIZED FREE ENERGY PREDICTED BY IDOCK:   -5.05 KCAL/MOL
REMARK 922        TOTAL FREE ENERGY PREDICTED BY IDOCK:  -12.14 KCAL/MOL
REMARK 923 INTER-LIGAND FREE ENERGY PREDICTED BY IDOCK:  -10.43 KCAL/MOL
REMARK 924 INTRA-LIGAND FREE ENERGY PREDICTED BY IDOCK:   -1.71 KCAL/MOL
REMARK 927      BINDING AFFINITY PREDICTED BY RF-SCORE:    0.00 PKD
ROOT
HETATM    1  C   UNL     1      -9.611   8.233  72.875  1.00  0.00    -0.320 C  
HETATM    2  C   UNL     1     -11.101   8.009  72.658  1.00  0.00    -0.387 C  
ENDROOT
BRANCH   2   3
HETATM    3  N   UNL     1     -11.591   8.107  71.180  1.00  0.00    -0.277 N  
BRANCH   3   4
HETATM    4  C   UNL     1     -12.894   8.955  71.106  1.00  0.00    -0.143 C  
HETATM    5  C   UNL     1     -12.845  10.296  71.795  1.00  0.00    -0.565 C  
ENDBRANCH   3   4
BRANCH   3   6
HETATM    6  C   UNL     1     -12.000   6.711  70.656  1.00  0.00    -0.343 C  
BRANCH   6   7
HETATM    7  C   UNL     1     -11.088   5.862  69.776  1.00  0.00    -0.422 A  
HETATM    8  C   UNL     1      -9.303   4.176  69.662  1.00  0.00    -0.241 A  
HETATM    9  C   UNL     1     -10.992   5.951  68.377  1.00  0.00    -0.264 A  
HETATM   10  C   UNL     1     -10.248   4.910  70.391  1.00  0.00    -0.222 A  
HETATM   11  C   UNL     1     -10.095   5.178  67.638  1.00  0.00    -0.204 A  
HETATM   12 CL   UNL     1     -10.327   4.634  72.098  1.00  0.00    -0.257 Cl 
HETATM   13  C   UNL     1      -9.232   4.309  68.281  1.00  0.00    -0.190 A  
ENDBRANCH   6   7
ENDBRANCH   3   6
BRANCH   3  14
HETATM   14  C   UNL     1     -10.384   8.728  70.366  1.00  0.00    -0.199 C  
BRANCH  14  15
HETATM   15  C   UNL     1     -10.728   9.404  68.994  1.00  0.00    -0.187 C  
BRANCH  15  16
HETATM   16  N   UNL     1     -10.254  10.761  68.762  1.00  0.00    -0.184 N  
HETATM   17  H   UNL     1      -9.962  11.343  69.547  1.00  0.00     0.000 HD 
HETATM   18  C   UNL     1     -10.199  11.258  67.463  1.00  0.00    -0.189 C  
HETATM   19  O   UNL     1     -10.345  10.568  66.469  1.00  0.00    -0.233 OA 
BRANCH  18  20
HETATM   20  C   UNL     1      -9.816  12.755  67.357  1.00  0.00    -0.210 C  
HETATM   21  N   UNL     1      -9.257  13.315  68.506  1.00  0.00    -0.355 N  
HETATM   22  O   UNL     1      -9.993  13.375  66.321  1.00  0.00    -0.283 OA 
HETATM   23  H   UNL     1      -9.396  12.883  69.420  1.00  0.00     0.000 HD 
BRANCH  21  24
HETATM   24  C   UNL     1      -8.468  14.534  68.370  1.00  0.00    -0.163 C  
BRANCH  24  25
HETATM   25  C   UNL     1      -9.044  15.780  69.097  1.00  0.00    -0.262 C  
BRANCH  25  26
HETATM   26  N   UNL     1      -9.852  16.742  68.193  1.00  0.00    -0.256 N  
BRANCH  26  27
HETATM   27  C   UNL     1      -9.301  16.710  66.737  1.00  0.00    -0.244 C  
HETATM   28  C   UNL     1     -10.358  16.713  65.642  1.00  0.00    -0.310 C  
ENDBRANCH  26  27
BRANCH  26  29
HETATM   29  C   UNL     1     -11.341  16.302  68.246  1.00  0.00    -0.280 C  
HETATM   30  C   UNL     1     -11.818  15.774  69.587  1.00  0.00    -0.352 C  
ENDBRANCH  26  29
BRANCH  26  31
HETATM   31  C   UNL     1      -9.715  18.222  68.713  1.00  0.00    -0.330 C  
BRANCH  31  32
HETATM   32  C   UNL     1      -8.510  19.045  68.289  1.00  0.00    -0.366 A  
HETATM   33  C   UNL     1      -7.297  18.957  69.004  1.00  0.00    -0.318 A  
HETATM   34  C   UNL     1      -6.217  19.799  68.716  1.00  0.00    -0.302 A  
HETATM   35  C   UNL     1      -6.331  20.761  67.722  1.00  0.00    -0.371 A  
HETATM   36  C   UNL     1      -7.509  20.857  66.989  1.00  0.00    -0.289 A  
HETATM   37  C   UNL     1      -8.585  20.004  67.260  1.00  0.00    -0.335 A  
HETATM   38 CL   UNL     1     -10.001  20.211  66.294  1.00  0.00    -0.574 Cl 
ENDBRANCH  31  32
ENDBRANCH  26  31
ENDBRANCH  25  26
ENDBRANCH  24  25
ENDBRANCH  21  24
ENDBRANCH  18  20
ENDBRANCH  15  16
ENDBRANCH  14  15
ENDBRANCH   3  14
ENDBRANCH   2   3
TORSDOF 15
ENDMDL
MODEL      112
REMARK 921   NORMALIZED FREE ENERGY PREDICTED BY IDOCK:   -5.04 KCAL/MOL
REMARK 922        TOTAL FREE ENERGY PREDICTED BY IDOCK:  -12.12 KCAL/MOL
REMARK 923 INTER-LIGAND FREE ENERGY PREDICTED BY IDOCK:  -10.69 KCAL/MOL
REMARK 924 INTRA-LIGAND FREE ENERGY PREDICTED BY IDOCK:   -1.43 KCAL/MOL
REMARK 927      BINDING AFFINITY PREDICTED BY RF-SCORE:    0.00 PKD
ROOT
HETATM    1  C   UNL     1      -8.286   8.315  72.288  1.00  0.00    -0.229 C  
HETATM    2  C   UNL     1      -8.894   7.011  71.794  1.00  0.00    -0.126 C  
ENDROOT
BRANCH   2   3
HETATM    3  N   UNL     1     -10.416   6.822  72.083  1.00  0.00    -0.204 N  
BRANCH   3   4
HETATM    4  C   UNL     1     -10.614   5.825  73.262  1.00  0.00    -0.254 C  
HETATM    5  C   UNL     1      -9.403   5.013  73.645  1.00  0.00    -0.129 C  
ENDBRANCH   3   4
BRANCH   3   6
HETATM    6  C   UNL     1     -11.113   6.149  70.878  1.00  0.00    -0.307 C  
BRANCH   6   7
HETATM    7  C   UNL     1     -10.381   5.210  69.923  1.00  0.00    -0.347 A  
HETATM    8  C   UNL     1      -9.743   4.697  67.606  1.00  0.00    -0.207 A  
HETATM    9  C   UNL     1      -9.782   3.991  70.280  1.00  0.00    -0.263 A  
HETATM   10  C   UNL     1     -10.297   5.561  68.559  1.00  0.00    -0.178 A  
HETATM   11  C   UNL     1      -9.173   3.153  69.344  1.00  0.00    -0.219 A  
HETATM   12 CL   UNL     1     -10.916   7.076  67.997  1.00  0.00    -0.218 Cl 
HETATM   13  C   UNL     1      -9.176   3.492  68.002  1.00  0.00    -0.228 A  
ENDBRANCH   6   7
ENDBRANCH   3   6
BRANCH   3  14
HETATM   14  C   UNL     1     -10.982   8.270  72.376  1.00  0.00    -0.368 C  
BRANCH  14  15
HETATM   15  C   UNL     1     -12.210   8.737  71.521  1.00  0.00    -0.327 C  
BRANCH  15  16
HETATM   16  N   UNL     1     -11.947   9.476  70.295  1.00  0.00    -0.463 N  
HETATM   17  H   UNL     1     -11.638   8.985  69.456  1.00  0.00     0.000 HD 
HETATM   18  C   UNL     1     -12.121  10.857  70.273  1.00  0.00    -0.355 C  
HETATM   19  O   UNL     1     -12.665  11.484  71.166  1.00  0.00    -0.393 OA 
BRANCH  18  20
HETATM   20  C   UNL     1     -11.673  11.548  68.960  1.00  0.00    -0.335 C  
HETATM   21  N   UNL     1     -10.537  12.353  69.062  1.00  0.00    -0.410 N  
HETATM   22  O   UNL     1     -12.285  11.372  67.920  1.00  0.00    -0.592 OA 
HETATM   23  H   UNL     1     -10.234  12.718  69.966  1.00  0.00     0.000 HD 
BRANCH  21  24
HETATM   24  C   UNL     1      -9.794  12.661  67.846  1.00  0.00    -0.218 C  
BRANCH  24  25
HETATM   25  C   UNL     1     -10.038  14.079  67.262  1.00  0.00    -0.249 C  
BRANCH  25  26
HETATM   26  N   UNL     1      -9.168  15.196  67.886  1.00  0.00    -0.183 N  
BRANCH  26  27
HETATM   27  C   UNL     1      -9.985  15.992  68.946  1.00  0.00    -0.232 C  
HETATM   28  C   UNL     1     -11.498  15.917  68.790  1.00  0.00    -0.393 C  
ENDBRANCH  26  27
BRANCH  26  29
HETATM   29  C   UNL     1      -7.919  14.524  68.520  1.00  0.00    -0.142 C  
HETATM   30  C   UNL     1      -6.619  14.713  67.758  1.00  0.00    -0.189 C  
ENDBRANCH  26  29
BRANCH  26  31
HETATM   31  C   UNL     1      -8.718  16.219  66.778  1.00  0.00    -0.231 C  
BRANCH  31  32
HETATM   32  C   UNL     1      -9.100  17.683  66.924  1.00  0.00    -0.262 A  
HETATM   33  C   UNL     1     -10.152  18.228  66.158  1.00  0.00    -0.354 A  
HETATM   34  C   UNL     1     -10.436  19.597  66.177  1.00  0.00    -0.624 A  
HETATM   35  C   UNL     1      -9.664  20.457  66.946  1.00  0.00    -0.567 A  
HETATM   36  C   UNL     1      -8.633  19.944  67.726  1.00  0.00    -0.370 A  
HETATM   37  C   UNL     1      -8.357  18.573  67.725  1.00  0.00    -0.259 A  
HETATM   38 CL   UNL     1      -7.053  18.043  68.726  1.00  0.00    -0.269 Cl 
ENDBRANCH  31  32
ENDBRANCH  26  31
ENDBRANCH  25  26
ENDBRANCH  24  25
ENDBRANCH  21  24
ENDBRANCH  18  20
ENDBRANCH  15  16
ENDBRANCH  14  15
ENDBRANCH   3  14
ENDBRANCH   2   3
TORSDOF 15
ENDMDL
MODEL      113
REMARK 921   NORMALIZED FREE ENERGY PREDICTED BY IDOCK:   -5.02 KCAL/MOL
REMARK 922        TOTAL FREE ENERGY PREDICTED BY IDOCK:  -12.07 KCAL/MOL
REMARK 923 INTER-LIGAND FREE ENERGY PREDICTED BY IDOCK:   -9.78 KCAL/MOL
REMARK 924 INTRA-LIGAND FREE ENERGY PREDICTED BY IDOCK:   -2.30 KCAL/MOL
REMARK 927      BINDING AFFINITY PREDICTED BY RF-SCORE:    0.00 PKD
ROOT
HETATM    1  C   UNL     1      -9.763  15.594  66.140  1.00  0.00    -0.348 C  
HETATM    2  C   UNL     1     -11.085  14.882  66.389  1.00  0.00    -0.342 C  
ENDROOT
BRANCH   2   3
HETATM    3  N   UNL     1     -10.982  13.483  67.072  1.00  0.00    -0.285 N  
BRANCH   3   4
HETATM    4  C   UNL     1     -11.389  12.368  66.065  1.00  0.00    -0.353 C  
HETATM    5  C   UNL     1     -12.475  12.734  65.085  1.00  0.00    -0.565 C  
ENDBRANCH   3   4
BRANCH   3   6
HETATM    6  C   UNL     1     -12.009  13.369  68.222  1.00  0.00    -0.317 C  
BRANCH   6   7
HETATM    7  C   UNL     1     -11.898  14.181  69.509  1.00  0.00    -0.373 A  
HETATM    8  C   UNL     1     -12.237  14.264  71.942  1.00  0.00    -0.268 A  
HETATM    9  C   UNL     1     -11.522  15.532  69.590  1.00  0.00    -0.337 A  
HETATM   10  C   UNL     1     -12.206  13.554  70.735  1.00  0.00    -0.338 A  
HETATM   11  C   UNL     1     -11.491  16.230  70.798  1.00  0.00    -0.327 A  
HETATM   12 CL   UNL     1     -12.599  11.869  70.791  1.00  0.00    -0.368 Cl 
HETATM   13  C   UNL     1     -11.874  15.605  71.972  1.00  0.00    -0.548 A  
ENDBRANCH   6   7
ENDBRANCH   3   6
BRANCH   3  14
HETATM   14  C   UNL     1      -9.489  13.361  67.582  1.00  0.00    -0.216 C  
BRANCH  14  15
HETATM   15  C   UNL     1      -8.855  11.927  67.583  1.00  0.00    -0.169 C  
BRANCH  15  16
HETATM   16  N   UNL     1      -8.769  11.219  68.852  1.00  0.00    -0.342 N  
HETATM   17  H   UNL     1      -8.000  11.411  69.495  1.00  0.00     0.000 HD 
HETATM   18  C   UNL     1      -9.742  10.281  69.184  1.00  0.00    -0.217 C  
HETATM   19  O   UNL     1     -10.782  10.138  68.565  1.00  0.00    -0.207 OA 
BRANCH  18  20
HETATM   20  C   UNL     1      -9.465   9.493  70.489  1.00  0.00    -0.246 C  
HETATM   21  N   UNL     1     -10.590   8.947  71.111  1.00  0.00    -0.241 N  
HETATM   22  O   UNL     1      -8.330   9.364  70.915  1.00  0.00    -0.252 OA 
HETATM   23  H   UNL     1     -11.523   9.310  70.916  1.00  0.00     0.000 HD 
BRANCH  21  24
HETATM   24  C   UNL     1     -10.399   7.844  72.045  1.00  0.00    -0.225 C  
BRANCH  24  25
HETATM   25  C   UNL     1     -10.846   6.451  71.526  1.00  0.00    -0.254 C  
BRANCH  25  26
HETATM   26  N   UNL     1      -9.746   5.362  71.559  1.00  0.00    -0.155 N  
BRANCH  26  27
HETATM   27  C   UNL     1      -8.431   5.939  72.162  1.00  0.00    -0.125 C  
HETATM   28  C   UNL     1      -7.278   4.951  72.272  1.00  0.00    -0.081 C  
ENDBRANCH  26  27
BRANCH  26  29
HETATM   29  C   UNL     1     -10.283   4.173  72.403  1.00  0.00    -0.170 C  
HETATM   30  C   UNL     1     -11.168   4.553  73.576  1.00  0.00    -0.388 C  
ENDBRANCH  26  29
BRANCH  26  31
HETATM   31  C   UNL     1      -9.417   4.875  70.099  1.00  0.00    -0.172 C  
BRANCH  31  32
HETATM   32  C   UNL     1      -9.562   5.851  68.944  1.00  0.00    -0.158 A  
HETATM   33  C   UNL     1     -10.798   5.993  68.278  1.00  0.00    -0.366 A  
HETATM   34  C   UNL     1     -10.923   6.785  67.132  1.00  0.00    -0.458 A  
HETATM   35  C   UNL     1      -9.812   7.437  66.612  1.00  0.00    -0.263 A  
HETATM   36  C   UNL     1      -8.586   7.329  67.260  1.00  0.00    -0.121 A  
HETATM   37  C   UNL     1      -8.460   6.554  68.417  1.00  0.00    -0.120 A  
HETATM   38 CL   UNL     1      -6.893   6.485  69.138  1.00  0.00    -0.063 Cl 
ENDBRANCH  31  32
ENDBRANCH  26  31
ENDBRANCH  25  26
ENDBRANCH  24  25
ENDBRANCH  21  24
ENDBRANCH  18  20
ENDBRANCH  15  16
ENDBRANCH  14  15
ENDBRANCH   3  14
ENDBRANCH   2   3
TORSDOF 15
ENDMDL
MODEL      114
REMARK 921   NORMALIZED FREE ENERGY PREDICTED BY IDOCK:   -5.01 KCAL/MOL
REMARK 922        TOTAL FREE ENERGY PREDICTED BY IDOCK:  -12.06 KCAL/MOL
REMARK 923 INTER-LIGAND FREE ENERGY PREDICTED BY IDOCK:  -10.15 KCAL/MOL
REMARK 924 INTRA-LIGAND FREE ENERGY PREDICTED BY IDOCK:   -1.90 KCAL/MOL
REMARK 927      BINDING AFFINITY PREDICTED BY RF-SCORE:    0.00 PKD
ROOT
HETATM    1  C   UNL     1      -7.543  18.562  68.472  1.00  0.00    -0.328 C  
HETATM    2  C   UNL     1      -8.495  17.376  68.420  1.00  0.00    -0.263 C  
ENDROOT
BRANCH   2   3
HETATM    3  N   UNL     1      -9.464  17.340  67.198  1.00  0.00    -0.250 N  
BRANCH   3   4
HETATM    4  C   UNL     1      -9.547  18.750  66.542  1.00  0.00    -0.348 C  
HETATM    5  C   UNL     1     -10.773  19.560  66.880  1.00  0.00    -0.576 C  
ENDBRANCH   3   4
BRANCH   3   6
HETATM    6  C   UNL     1     -10.907  17.039  67.664  1.00  0.00    -0.244 C  
BRANCH   6   7
HETATM    7  C   UNL     1     -11.220  16.070  68.800  1.00  0.00    -0.360 A  
HETATM    8  C   UNL     1     -12.241  13.942  69.487  1.00  0.00    -0.356 A  
HETATM    9  C   UNL     1     -10.973  16.307  70.163  1.00  0.00    -0.335 A  
HETATM   10  C   UNL     1     -11.821  14.832  68.490  1.00  0.00    -0.306 A  
HETATM   11  C   UNL     1     -11.334  15.397  71.158  1.00  0.00    -0.427 A  
HETATM   12 CL   UNL     1     -12.101  14.374  66.844  1.00  0.00    -0.436 Cl 
HETATM   13  C   UNL     1     -11.991  14.226  70.825  1.00  0.00    -0.390 A  
ENDBRANCH   6   7
ENDBRANCH   3   6
BRANCH   3  14
HETATM   14  C   UNL     1      -8.897  16.225  66.230  1.00  0.00    -0.331 C  
BRANCH  14  15
HETATM   15  C   UNL     1      -8.210  14.985  66.901  1.00  0.00    -0.171 C  
BRANCH  15  16
HETATM   16  N   UNL     1      -8.950  13.732  66.941  1.00  0.00    -0.312 N  
HETATM   17  H   UNL     1      -9.689  13.551  66.262  1.00  0.00     0.000 HD 
HETATM   18  C   UNL     1      -8.642  12.783  67.911  1.00  0.00    -0.181 C  
HETATM   19  O   UNL     1      -7.657  12.842  68.626  1.00  0.00    -0.127 OA 
BRANCH  18  20
HETATM   20  C   UNL     1      -9.590  11.557  67.943  1.00  0.00    -0.177 C  
HETATM   21  N   UNL     1      -9.844  11.028  69.210  1.00  0.00    -0.414 N  
HETATM   22  O   UNL     1     -10.074  11.113  66.916  1.00  0.00    -0.203 OA 
HETATM   23  H   UNL     1      -9.213  11.213  69.990  1.00  0.00     0.000 HD 
BRANCH  21  24
HETATM   24  C   UNL     1     -11.034  10.205  69.391  1.00  0.00    -0.245 C  
BRANCH  24  25
HETATM   25  C   UNL     1     -11.301   9.739  70.848  1.00  0.00    -0.365 C  
BRANCH  25  26
HETATM   26  N   UNL     1     -10.998   8.245  71.116  1.00  0.00    -0.239 N  
BRANCH  26  27
HETATM   27  C   UNL     1     -10.599   8.032  72.606  1.00  0.00    -0.350 C  
HETATM   28  C   UNL     1      -9.102   7.970  72.875  1.00  0.00    -0.313 C  
ENDBRANCH  26  27
BRANCH  26  29
HETATM   29  C   UNL     1     -12.269   7.430  70.748  1.00  0.00    -0.170 C  
HETATM   30  C   UNL     1     -12.873   6.617  71.879  1.00  0.00    -0.209 C  
ENDBRANCH  26  29
BRANCH  26  31
HETATM   31  C   UNL     1      -9.785   7.768  70.234  1.00  0.00    -0.179 C  
BRANCH  31  32
HETATM   32  C   UNL     1      -9.852   6.408  69.558  1.00  0.00    -0.176 A  
HETATM   33  C   UNL     1      -9.574   5.233  70.287  1.00  0.00    -0.241 A  
HETATM   34  C   UNL     1      -9.500   3.984  69.660  1.00  0.00    -0.262 A  
HETATM   35  C   UNL     1      -9.683   3.884  68.287  1.00  0.00    -0.119 A  
HETATM   36  C   UNL     1      -9.978   5.024  67.547  1.00  0.00    -0.209 A  
HETATM   37  C   UNL     1     -10.072   6.272  68.173  1.00  0.00    -0.152 A  
HETATM   38 CL   UNL     1     -10.438   7.622  67.160  1.00  0.00    -0.388 Cl 
ENDBRANCH  31  32
ENDBRANCH  26  31
ENDBRANCH  25  26
ENDBRANCH  24  25
ENDBRANCH  21  24
ENDBRANCH  18  20
ENDBRANCH  15  16
ENDBRANCH  14  15
ENDBRANCH   3  14
ENDBRANCH   2   3
TORSDOF 15
ENDMDL
MODEL      115
REMARK 921   NORMALIZED FREE ENERGY PREDICTED BY IDOCK:   -5.01 KCAL/MOL
REMARK 922        TOTAL FREE ENERGY PREDICTED BY IDOCK:  -12.05 KCAL/MOL
REMARK 923 INTER-LIGAND FREE ENERGY PREDICTED BY IDOCK:  -10.17 KCAL/MOL
REMARK 924 INTRA-LIGAND FREE ENERGY PREDICTED BY IDOCK:   -1.89 KCAL/MOL
REMARK 927      BINDING AFFINITY PREDICTED BY RF-SCORE:    0.00 PKD
ROOT
HETATM    1  C   UNL     1     -10.590   5.992  67.993  1.00  0.00    -0.330 C  
HETATM    2  C   UNL     1     -10.558   7.432  68.485  1.00  0.00    -0.153 C  
ENDROOT
BRANCH   2   3
HETATM    3  N   UNL     1      -9.309   7.830  69.330  1.00  0.00    -0.153 N  
BRANCH   3   4
HETATM    4  C   UNL     1      -8.303   6.644  69.384  1.00  0.00    -0.128 C  
HETATM    5  C   UNL     1      -8.036   6.070  70.752  1.00  0.00    -0.120 C  
ENDBRANCH   3   4
BRANCH   3   6
HETATM    6  C   UNL     1      -9.712   8.070  70.804  1.00  0.00    -0.165 C  
BRANCH   6   7
HETATM    7  C   UNL     1     -11.127   8.462  71.218  1.00  0.00    -0.307 A  
HETATM    8  C   UNL     1     -13.379   7.718  71.862  1.00  0.00    -0.308 A  
HETATM    9  C   UNL     1     -11.629   9.774  71.258  1.00  0.00    -0.465 A  
HETATM   10  C   UNL     1     -12.034   7.445  71.582  1.00  0.00    -0.307 A  
HETATM   11  C   UNL     1     -12.953  10.058  71.596  1.00  0.00    -0.554 A  
HETATM   12 CL   UNL     1     -11.523   5.793  71.661  1.00  0.00    -0.233 Cl 
HETATM   13  C   UNL     1     -13.837   9.030  71.873  1.00  0.00    -0.477 A  
ENDBRANCH   6   7
ENDBRANCH   3   6
BRANCH   3  14
HETATM   14  C   UNL     1      -8.721   9.129  68.646  1.00  0.00    -0.129 C  
BRANCH  14  15
HETATM   15  C   UNL     1      -9.728  10.029  67.850  1.00  0.00    -0.146 C  
BRANCH  15  16
HETATM   16  N   UNL     1      -9.923  11.400  68.300  1.00  0.00    -0.192 N  
HETATM   17  H   UNL     1      -9.119  11.985  68.527  1.00  0.00     0.000 HD 
HETATM   18  C   UNL     1     -11.213  11.908  68.419  1.00  0.00    -0.258 C  
HETATM   19  O   UNL     1     -12.204  11.343  67.988  1.00  0.00    -0.607 OA 
BRANCH  18  20
HETATM   20  C   UNL     1     -11.299  13.323  69.042  1.00  0.00    -0.285 C  
HETATM   21  N   UNL     1     -10.079  13.981  69.211  1.00  0.00    -0.429 N  
HETATM   22  O   UNL     1     -12.376  13.810  69.345  1.00  0.00    -0.310 OA 
HETATM   23  H   UNL     1      -9.203  13.459  69.236  1.00  0.00     0.000 HD 
BRANCH  21  24
HETATM   24  C   UNL     1     -10.088  15.432  69.348  1.00  0.00    -0.269 C  
BRANCH  24  25
HETATM   25  C   UNL     1     -10.389  16.220  68.044  1.00  0.00    -0.279 C  
BRANCH  25  26
HETATM   26  N   UNL     1      -9.187  16.363  67.080  1.00  0.00    -0.210 N  
BRANCH  26  27
HETATM   27  C   UNL     1      -7.859  16.484  67.885  1.00  0.00    -0.154 C  
HETATM   28  C   UNL     1      -6.825  15.403  67.598  1.00  0.00    -0.208 C  
ENDBRANCH  26  27
BRANCH  26  29
HETATM   29  C   UNL     1      -9.175  15.119  66.150  1.00  0.00    -0.283 C  
HETATM   30  C   UNL     1     -10.537  14.651  65.670  1.00  0.00    -0.344 C  
ENDBRANCH  26  29
BRANCH  26  31
HETATM   31  C   UNL     1      -9.332  17.672  66.218  1.00  0.00    -0.197 C  
BRANCH  31  32
HETATM   32  C   UNL     1      -8.300  18.777  66.372  1.00  0.00    -0.294 A  
HETATM   33  C   UNL     1      -7.113  18.758  65.609  1.00  0.00    -0.219 A  
HETATM   34  C   UNL     1      -6.091  19.688  65.826  1.00  0.00    -0.210 A  
HETATM   35  C   UNL     1      -6.221  20.645  66.822  1.00  0.00    -0.272 A  
HETATM   36  C   UNL     1      -7.389  20.699  67.576  1.00  0.00    -0.364 A  
HETATM   37  C   UNL     1      -8.422  19.783  67.350  1.00  0.00    -0.314 A  
HETATM   38 CL   UNL     1      -9.825  19.936  68.345  1.00  0.00    -0.494 Cl 
ENDBRANCH  31  32
ENDBRANCH  26  31
ENDBRANCH  25  26
ENDBRANCH  24  25
ENDBRANCH  21  24
ENDBRANCH  18  20
ENDBRANCH  15  16
ENDBRANCH  14  15
ENDBRANCH   3  14
ENDBRANCH   2   3
TORSDOF 15
ENDMDL
MODEL      116
REMARK 921   NORMALIZED FREE ENERGY PREDICTED BY IDOCK:   -5.00 KCAL/MOL
REMARK 922        TOTAL FREE ENERGY PREDICTED BY IDOCK:  -12.04 KCAL/MOL
REMARK 923 INTER-LIGAND FREE ENERGY PREDICTED BY IDOCK:   -9.42 KCAL/MOL
REMARK 924 INTRA-LIGAND FREE ENERGY PREDICTED BY IDOCK:   -2.62 KCAL/MOL
REMARK 927      BINDING AFFINITY PREDICTED BY RF-SCORE:    0.00 PKD
ROOT
HETATM    1  C   UNL     1      -9.295  15.099  66.278  1.00  0.00    -0.348 C  
HETATM    2  C   UNL     1      -9.738  13.657  66.080  1.00  0.00    -0.255 C  
ENDROOT
BRANCH   2   3
HETATM    3  N   UNL     1     -10.893  13.171  67.010  1.00  0.00    -0.262 N  
BRANCH   3   4
HETATM    4  C   UNL     1     -12.170  14.026  66.764  1.00  0.00    -0.404 C  
HETATM    5  C   UNL     1     -12.764  13.937  65.381  1.00  0.00    -0.525 C  
ENDBRANCH   3   4
BRANCH   3   6
HETATM    6  C   UNL     1     -10.531  13.423  68.493  1.00  0.00    -0.252 C  
BRANCH   6   7
HETATM    7  C   UNL     1     -11.529  13.220  69.629  1.00  0.00    -0.267 A  
HETATM    8  C   UNL     1     -12.814  14.233  71.463  1.00  0.00    -0.419 A  
HETATM    9  C   UNL     1     -12.035  11.982  70.057  1.00  0.00    -0.400 A  
HETATM   10  C   UNL     1     -11.989  14.351  70.337  1.00  0.00    -0.325 A  
HETATM   11  C   UNL     1     -12.907  11.863  71.141  1.00  0.00    -0.346 A  
HETATM   12 CL   UNL     1     -11.514  15.945  69.860  1.00  0.00    -0.331 Cl 
HETATM   13  C   UNL     1     -13.277  12.985  71.861  1.00  0.00    -0.527 A  
ENDBRANCH   6   7
ENDBRANCH   3   6
BRANCH   3  14
HETATM   14  C   UNL     1     -11.088  11.635  66.688  1.00  0.00    -0.307 C  
BRANCH  14  15
HETATM   15  C   UNL     1     -10.401  11.089  65.389  1.00  0.00    -0.268 C  
BRANCH  15  16
HETATM   16  N   UNL     1      -9.717   9.806  65.465  1.00  0.00    -0.297 N  
HETATM   17  H   UNL     1     -10.205   8.949  65.205  1.00  0.00     0.000 HD 
HETATM   18  C   UNL     1      -8.394   9.756  65.895  1.00  0.00    -0.124 C  
HETATM   19  O   UNL     1      -7.692  10.743  66.037  1.00  0.00    -0.153 OA 
BRANCH  18  20
HETATM   20  C   UNL     1      -7.822   8.327  66.072  1.00  0.00    -0.095 C  
HETATM   21  N   UNL     1      -7.251   8.059  67.317  1.00  0.00    -0.086 N  
HETATM   22  O   UNL     1      -7.891   7.509  65.170  1.00  0.00    -0.107 OA 
HETATM   23  H   UNL     1      -6.940   8.817  67.924  1.00  0.00     0.000 HD 
BRANCH  21  24
HETATM   24  C   UNL     1      -7.110   6.667  67.729  1.00  0.00    -0.085 C  
BRANCH  24  25
HETATM   25  C   UNL     1      -7.927   6.263  68.987  1.00  0.00    -0.110 C  
BRANCH  25  26
HETATM   26  N   UNL     1      -8.946   5.120  68.758  1.00  0.00    -0.099 N  
BRANCH  26  27
HETATM   27  C   UNL     1      -9.043   4.776  67.243  1.00  0.00    -0.119 C  
HETATM   28  C   UNL     1     -10.324   5.228  66.554  1.00  0.00    -0.332 C  
ENDBRANCH  26  27
BRANCH  26  29
HETATM   29  C   UNL     1      -8.477   3.895  69.589  1.00  0.00    -0.057 C  
HETATM   30  C   UNL     1      -9.342   2.653  69.466  1.00  0.00    -0.184 C  
ENDBRANCH  26  29
BRANCH  26  31
HETATM   31  C   UNL     1     -10.380   5.567  69.230  1.00  0.00    -0.265 C  
BRANCH  31  32
HETATM   32  C   UNL     1     -10.507   6.544  70.386  1.00  0.00    -0.256 A  
HETATM   33  C   UNL     1     -10.612   6.073  71.712  1.00  0.00    -0.277 A  
HETATM   34  C   UNL     1     -10.861   6.944  72.779  1.00  0.00    -0.305 A  
HETATM   35  C   UNL     1     -11.030   8.301  72.543  1.00  0.00    -0.424 A  
HETATM   36  C   UNL     1     -10.913   8.795  71.248  1.00  0.00    -0.345 A  
HETATM   37  C   UNL     1     -10.644   7.931  70.181  1.00  0.00    -0.237 A  
HETATM   38 CL   UNL     1     -10.523   8.648  68.615  1.00  0.00    -0.227 Cl 
ENDBRANCH  31  32
ENDBRANCH  26  31
ENDBRANCH  25  26
ENDBRANCH  24  25
ENDBRANCH  21  24
ENDBRANCH  18  20
ENDBRANCH  15  16
ENDBRANCH  14  15
ENDBRANCH   3  14
ENDBRANCH   2   3
TORSDOF 15
ENDMDL
MODEL      117
REMARK 921   NORMALIZED FREE ENERGY PREDICTED BY IDOCK:   -5.00 KCAL/MOL
REMARK 922        TOTAL FREE ENERGY PREDICTED BY IDOCK:  -12.04 KCAL/MOL
REMARK 923 INTER-LIGAND FREE ENERGY PREDICTED BY IDOCK:  -10.04 KCAL/MOL
REMARK 924 INTRA-LIGAND FREE ENERGY PREDICTED BY IDOCK:   -2.00 KCAL/MOL
REMARK 927      BINDING AFFINITY PREDICTED BY RF-SCORE:    0.00 PKD
ROOT
HETATM    1  C   UNL     1      -9.587  18.495  68.733  1.00  0.00    -0.365 C  
HETATM    2  C   UNL     1      -8.501  17.467  68.450  1.00  0.00    -0.275 C  
ENDROOT
BRANCH   2   3
HETATM    3  N   UNL     1      -8.591  16.752  67.066  1.00  0.00    -0.199 N  
BRANCH   3   4
HETATM    4  C   UNL     1      -7.761  17.535  66.008  1.00  0.00    -0.202 C  
HETATM    5  C   UNL     1      -6.520  18.219  66.522  1.00  0.00    -0.229 C  
ENDBRANCH   3   4
BRANCH   3   6
HETATM    6  C   UNL     1     -10.043  16.792  66.534  1.00  0.00    -0.315 C  
BRANCH   6   7
HETATM    7  C   UNL     1     -10.816  15.531  66.155  1.00  0.00    -0.295 A  
HETATM    8  C   UNL     1     -12.273  13.694  66.891  1.00  0.00    -0.398 A  
HETATM    9  C   UNL     1     -10.783  14.905  64.898  1.00  0.00    -0.426 A  
HETATM   10  C   UNL     1     -11.626  14.914  67.130  1.00  0.00    -0.315 A  
HETATM   11  C   UNL     1     -11.475  13.721  64.634  1.00  0.00    -0.385 A  
HETATM   12 CL   UNL     1     -11.827  15.628  68.694  1.00  0.00    -0.362 Cl 
HETATM   13  C   UNL     1     -12.199  13.101  65.636  1.00  0.00    -0.521 A  
ENDBRANCH   6   7
ENDBRANCH   3   6
BRANCH   3  14
HETATM   14  C   UNL     1      -8.077  15.276  67.309  1.00  0.00    -0.201 C  
BRANCH  14  15
HETATM   15  C   UNL     1      -8.318  14.666  68.734  1.00  0.00    -0.163 C  
BRANCH  15  16
HETATM   16  N   UNL     1      -7.838  13.316  68.989  1.00  0.00    -0.334 N  
HETATM   17  H   UNL     1      -7.112  13.152  69.686  1.00  0.00     0.000 HD 
HETATM   18  C   UNL     1      -8.377  12.248  68.276  1.00  0.00    -0.174 C  
HETATM   19  O   UNL     1      -9.370  12.337  67.574  1.00  0.00    -0.174 OA 
BRANCH  18  20
HETATM   20  C   UNL     1      -7.689  10.884  68.530  1.00  0.00    -0.119 C  
HETATM   21  N   UNL     1      -7.856  10.357  69.812  1.00  0.00    -0.309 N  
HETATM   22  O   UNL     1      -7.059  10.326  67.647  1.00  0.00    -0.084 OA 
HETATM   23  H   UNL     1      -8.114  10.957  70.595  1.00  0.00     0.000 HD 
BRANCH  21  24
HETATM   24  C   UNL     1      -7.652   8.926  70.005  1.00  0.00    -0.066 C  
BRANCH  24  25
HETATM   25  C   UNL     1      -7.819   8.424  71.465  1.00  0.00    -0.120 C  
BRANCH  25  26
HETATM   26  N   UNL     1      -9.093   7.581  71.719  1.00  0.00    -0.125 N  
BRANCH  26  27
HETATM   27  C   UNL     1      -8.750   6.062  71.697  1.00  0.00    -0.135 C  
HETATM   28  C   UNL     1      -9.565   5.225  70.721  1.00  0.00    -0.234 C  
ENDBRANCH  26  27
BRANCH  26  29
HETATM   29  C   UNL     1      -9.679   8.010  73.092  1.00  0.00    -0.270 C  
HETATM   30  C   UNL     1     -10.048   6.873  74.028  1.00  0.00    -0.383 C  
ENDBRANCH  26  29
BRANCH  26  31
HETATM   31  C   UNL     1     -10.152   7.838  70.583  1.00  0.00    -0.191 C  
BRANCH  31  32
HETATM   32  C   UNL     1     -11.346   8.730  70.875  1.00  0.00    -0.322 A  
HETATM   33  C   UNL     1     -11.265  10.124  70.671  1.00  0.00    -0.418 A  
HETATM   34  C   UNL     1     -12.302  10.980  71.055  1.00  0.00    -0.490 A  
HETATM   35  C   UNL     1     -13.436  10.467  71.670  1.00  0.00    -0.335 A  
HETATM   36  C   UNL     1     -13.551   9.095  71.866  1.00  0.00    -0.493 A  
HETATM   37  C   UNL     1     -12.525   8.232  71.466  1.00  0.00    -0.312 A  
HETATM   38 CL   UNL     1     -12.767   6.548  71.761  1.00  0.00    -0.302 Cl 
ENDBRANCH  31  32
ENDBRANCH  26  31
ENDBRANCH  25  26
ENDBRANCH  24  25
ENDBRANCH  21  24
ENDBRANCH  18  20
ENDBRANCH  15  16
ENDBRANCH  14  15
ENDBRANCH   3  14
ENDBRANCH   2   3
TORSDOF 15
ENDMDL
MODEL      118
REMARK 921   NORMALIZED FREE ENERGY PREDICTED BY IDOCK:   -4.99 KCAL/MOL
REMARK 922        TOTAL FREE ENERGY PREDICTED BY IDOCK:  -12.03 KCAL/MOL
REMARK 923 INTER-LIGAND FREE ENERGY PREDICTED BY IDOCK:   -9.91 KCAL/MOL
REMARK 924 INTRA-LIGAND FREE ENERGY PREDICTED BY IDOCK:   -2.12 KCAL/MOL
REMARK 927      BINDING AFFINITY PREDICTED BY RF-SCORE:    0.00 PKD
ROOT
HETATM    1  C   UNL     1     -10.246  17.610  66.665  1.00  0.00    -0.341 C  
HETATM    2  C   UNL     1     -10.568  16.293  67.357  1.00  0.00    -0.307 C  
ENDROOT
BRANCH   2   3
HETATM    3  N   UNL     1     -10.712  15.055  66.420  1.00  0.00    -0.315 N  
BRANCH   3   4
HETATM    4  C   UNL     1     -11.048  15.519  64.972  1.00  0.00    -0.401 C  
HETATM    5  C   UNL     1     -12.113  14.725  64.259  1.00  0.00    -0.415 C  
ENDBRANCH   3   4
BRANCH   3   6
HETATM    6  C   UNL     1     -11.924  14.195  66.847  1.00  0.00    -0.449 C  
BRANCH   6   7
HETATM    7  C   UNL     1     -11.955  13.407  68.154  1.00  0.00    -0.356 A  
HETATM    8  C   UNL     1     -11.837  11.212  69.253  1.00  0.00    -0.422 A  
HETATM    9  C   UNL     1     -12.223  13.946  69.423  1.00  0.00    -0.338 A  
HETATM   10  C   UNL     1     -11.713  12.017  68.113  1.00  0.00    -0.333 A  
HETATM   11  C   UNL     1     -12.287  13.157  70.573  1.00  0.00    -0.380 A  
HETATM   12 CL   UNL     1     -11.285  11.239  66.629  1.00  0.00    -0.310 Cl 
HETATM   13  C   UNL     1     -12.121  11.786  70.486  1.00  0.00    -0.439 A  
ENDBRANCH   6   7
ENDBRANCH   3   6
BRANCH   3  14
HETATM   14  C   UNL     1      -9.344  14.267  66.530  1.00  0.00    -0.271 C  
BRANCH  14  15
HETATM   15  C   UNL     1      -8.597  14.334  67.907  1.00  0.00    -0.171 C  
BRANCH  15  16
HETATM   16  N   UNL     1      -8.441  13.098  68.661  1.00  0.00    -0.353 N  
HETATM   17  H   UNL     1      -9.101  12.862  69.402  1.00  0.00     0.000 HD 
HETATM   18  C   UNL     1      -7.388  12.239  68.362  1.00  0.00    -0.109 C  
HETATM   19  O   UNL     1      -6.681  12.354  67.376  1.00  0.00    -0.133 OA 
BRANCH  18  20
HETATM   20  C   UNL     1      -7.242  11.032  69.323  1.00  0.00    -0.124 C  
HETATM   21  N   UNL     1      -8.439  10.493  69.797  1.00  0.00    -0.382 N  
HETATM   22  O   UNL     1      -6.142  10.596  69.618  1.00  0.00    -0.046 OA 
HETATM   23  H   UNL     1      -9.300  11.041  69.784  1.00  0.00     0.000 HD 
BRANCH  21  24
HETATM   24  C   UNL     1      -8.430   9.129  70.310  1.00  0.00    -0.191 C  
BRANCH  24  25
HETATM   25  C   UNL     1      -9.533   8.198  69.736  1.00  0.00    -0.159 C  
BRANCH  25  26
HETATM   26  N   UNL     1     -10.285   7.354  70.794  1.00  0.00    -0.197 N  
BRANCH  26  27
HETATM   27  C   UNL     1     -11.113   8.278  71.735  1.00  0.00    -0.278 C  
HETATM   28  C   UNL     1     -12.605   7.980  71.791  1.00  0.00    -0.353 C  
ENDBRANCH  26  27
BRANCH  26  29
HETATM   29  C   UNL     1     -11.198   6.351  70.037  1.00  0.00    -0.411 C  
HETATM   30  C   UNL     1     -10.971   6.265  68.539  1.00  0.00    -0.421 C  
ENDBRANCH  26  29
BRANCH  26  31
HETATM   31  C   UNL     1      -9.259   6.568  71.693  1.00  0.00    -0.143 C  
BRANCH  31  32
HETATM   32  C   UNL     1      -9.293   5.049  71.696  1.00  0.00    -0.188 A  
HETATM   33  C   UNL     1      -8.612   4.316  70.701  1.00  0.00    -0.109 A  
HETATM   34  C   UNL     1      -8.735   2.926  70.605  1.00  0.00    -0.128 A  
HETATM   35  C   UNL     1      -9.556   2.238  71.488  1.00  0.00    -0.214 A  
HETATM   36  C   UNL     1     -10.224   2.933  72.491  1.00  0.00    -0.222 A  
HETATM   37  C   UNL     1     -10.088   4.321  72.603  1.00  0.00    -0.164 A  
HETATM   38 CL   UNL     1     -10.964   5.085  73.881  1.00  0.00    -0.342 Cl 
ENDBRANCH  31  32
ENDBRANCH  26  31
ENDBRANCH  25  26
ENDBRANCH  24  25
ENDBRANCH  21  24
ENDBRANCH  18  20
ENDBRANCH  15  16
ENDBRANCH  14  15
ENDBRANCH   3  14
ENDBRANCH   2   3
TORSDOF 15
ENDMDL
MODEL      119
REMARK 921   NORMALIZED FREE ENERGY PREDICTED BY IDOCK:   -4.99 KCAL/MOL
REMARK 922        TOTAL FREE ENERGY PREDICTED BY IDOCK:  -12.02 KCAL/MOL
REMARK 923 INTER-LIGAND FREE ENERGY PREDICTED BY IDOCK:   -9.84 KCAL/MOL
REMARK 924 INTRA-LIGAND FREE ENERGY PREDICTED BY IDOCK:   -2.18 KCAL/MOL
REMARK 927      BINDING AFFINITY PREDICTED BY RF-SCORE:    0.00 PKD
ROOT
HETATM    1  C   UNL     1      -8.262  14.231  67.488  1.00  0.00    -0.201 C  
HETATM    2  C   UNL     1      -9.449  13.392  67.937  1.00  0.00    -0.216 C  
ENDROOT
BRANCH   2   3
HETATM    3  N   UNL     1     -10.840  14.097  67.866  1.00  0.00    -0.242 N  
BRANCH   3   4
HETATM    4  C   UNL     1     -10.706  15.469  67.144  1.00  0.00    -0.315 C  
HETATM    5  C   UNL     1     -10.958  16.687  67.996  1.00  0.00    -0.311 C  
ENDBRANCH   3   4
BRANCH   3   6
HETATM    6  C   UNL     1     -11.337  14.448  69.288  1.00  0.00    -0.284 C  
BRANCH   6   7
HETATM    7  C   UNL     1     -12.005  13.427  70.203  1.00  0.00    -0.396 A  
HETATM    8  C   UNL     1     -13.458  13.020  72.143  1.00  0.00    -0.638 A  
HETATM    9  C   UNL     1     -11.800  12.038  70.159  1.00  0.00    -0.383 A  
HETATM   10  C   UNL     1     -12.897  13.886  71.196  1.00  0.00    -0.351 A  
HETATM   11  C   UNL     1     -12.405  11.162  71.062  1.00  0.00    -0.487 A  
HETATM   12 CL   UNL     1     -13.308  15.563  71.305  1.00  0.00    -0.581 Cl 
HETATM   13  C   UNL     1     -13.213  11.654  72.071  1.00  0.00    -0.443 A  
ENDBRANCH   6   7
ENDBRANCH   3   6
BRANCH   3  14
HETATM   14  C   UNL     1     -11.800  13.082  67.125  1.00  0.00    -0.373 C  
BRANCH  14  15
HETATM   15  C   UNL     1     -11.470  12.758  65.626  1.00  0.00    -0.342 C  
BRANCH  15  16
HETATM   16  N   UNL     1     -10.732  11.538  65.337  1.00  0.00    -0.285 N  
HETATM   17  H   UNL     1     -10.631  10.818  66.052  1.00  0.00     0.000 HD 
HETATM   18  C   UNL     1     -10.164  11.359  64.079  1.00  0.00    -0.346 C  
HETATM   19  O   UNL     1     -10.401  12.077  63.123  1.00  0.00    -0.404 OA 
BRANCH  18  20
HETATM   20  C   UNL     1      -9.284  10.092  63.938  1.00  0.00    -0.272 C  
HETATM   21  N   UNL     1      -9.178   9.304  65.085  1.00  0.00    -0.360 N  
HETATM   22  O   UNL     1      -8.743   9.820  62.879  1.00  0.00    -0.190 OA 
HETATM   23  H   UNL     1      -9.377   9.692  66.007  1.00  0.00     0.000 HD 
BRANCH  21  24
HETATM   24  C   UNL     1      -8.775   7.911  64.933  1.00  0.00     0.157 C  
BRANCH  24  25
HETATM   25  C   UNL     1      -8.246   7.230  66.225  1.00  0.00    -0.123 C  
BRANCH  25  26
HETATM   26  N   UNL     1      -9.296   6.391  66.993  1.00  0.00    -0.127 N  
BRANCH  26  27
HETATM   27  C   UNL     1     -10.055   5.446  66.015  1.00  0.00    -0.075 C  
HETATM   28  C   UNL     1      -9.333   4.150  65.674  1.00  0.00    -0.162 C  
ENDBRANCH  26  27
BRANCH  26  29
HETATM   29  C   UNL     1      -8.548   5.587  68.092  1.00  0.00    -0.100 C  
HETATM   30  C   UNL     1      -7.061   5.873  68.211  1.00  0.00    -0.078 C  
ENDBRANCH  26  29
BRANCH  26  31
HETATM   31  C   UNL     1     -10.366   7.334  67.658  1.00  0.00    -0.227 C  
BRANCH  31  32
HETATM   32  C   UNL     1     -10.029   8.026  68.968  1.00  0.00    -0.186 A  
HETATM   33  C   UNL     1      -9.065   9.055  69.008  1.00  0.00    -0.143 A  
HETATM   34  C   UNL     1      -8.643   9.615  70.218  1.00  0.00    -0.234 A  
HETATM   35  C   UNL     1      -9.160   9.147  71.418  1.00  0.00    -0.179 A  
HETATM   36  C   UNL     1     -10.126   8.147  71.408  1.00  0.00    -0.248 A  
HETATM   37  C   UNL     1     -10.566   7.597  70.199  1.00  0.00    -0.236 A  
HETATM   38 CL   UNL     1     -11.765   6.358  70.300  1.00  0.00    -0.459 Cl 
ENDBRANCH  31  32
ENDBRANCH  26  31
ENDBRANCH  25  26
ENDBRANCH  24  25
ENDBRANCH  21  24
ENDBRANCH  18  20
ENDBRANCH  15  16
ENDBRANCH  14  15
ENDBRANCH   3  14
ENDBRANCH   2   3
TORSDOF 15
ENDMDL
MODEL      120
REMARK 921   NORMALIZED FREE ENERGY PREDICTED BY IDOCK:   -4.98 KCAL/MOL
REMARK 922        TOTAL FREE ENERGY PREDICTED BY IDOCK:  -12.00 KCAL/MOL
REMARK 923 INTER-LIGAND FREE ENERGY PREDICTED BY IDOCK:   -9.72 KCAL/MOL
REMARK 924 INTRA-LIGAND FREE ENERGY PREDICTED BY IDOCK:   -2.28 KCAL/MOL
REMARK 927      BINDING AFFINITY PREDICTED BY RF-SCORE:    0.00 PKD
ROOT
HETATM    1  C   UNL     1      -8.113   4.896  70.912  1.00  0.00    -0.095 C  
HETATM    2  C   UNL     1      -8.744   5.268  69.578  1.00  0.00    -0.104 C  
ENDROOT
BRANCH   2   3
HETATM    3  N   UNL     1      -8.896   6.797  69.305  1.00  0.00    -0.137 N  
BRANCH   3   4
HETATM    4  C   UNL     1      -8.418   7.609  70.544  1.00  0.00    -0.128 C  
HETATM    5  C   UNL     1      -7.369   8.658  70.276  1.00  0.00    -0.054 C  
ENDBRANCH   3   4
BRANCH   3   6
HETATM    6  C   UNL     1     -10.389   7.168  69.145  1.00  0.00    -0.200 C  
BRANCH   6   7
HETATM    7  C   UNL     1     -11.032   8.336  69.887  1.00  0.00    -0.166 A  
HETATM    8  C   UNL     1     -12.478   9.074  71.732  1.00  0.00    -0.438 A  
HETATM    9  C   UNL     1     -10.971   9.683  69.494  1.00  0.00    -0.233 A  
HETATM   10  C   UNL     1     -11.767   8.070  71.062  1.00  0.00    -0.277 A  
HETATM   11  C   UNL     1     -11.628  10.697  70.193  1.00  0.00    -0.414 A  
HETATM   12 CL   UNL     1     -11.850   6.467  71.708  1.00  0.00    -0.374 Cl 
HETATM   13  C   UNL     1     -12.403  10.391  71.296  1.00  0.00    -0.507 A  
ENDBRANCH   6   7
ENDBRANCH   3   6
BRANCH   3  14
HETATM   14  C   UNL     1      -8.058   7.087  67.995  1.00  0.00    -0.119 C  
BRANCH  14  15
HETATM   15  C   UNL     1      -8.830   7.032  66.632  1.00  0.00    -0.132 C  
BRANCH  15  16
HETATM   16  N   UNL     1      -9.452   8.256  66.149  1.00  0.00    -0.354 N  
HETATM   17  H   UNL     1     -10.325   8.586  66.563  1.00  0.00     0.000 HD 
HETATM   18  C   UNL     1      -8.850   8.975  65.121  1.00  0.00    -0.182 C  
HETATM   19  O   UNL     1      -7.722   8.754  64.712  1.00  0.00    -0.103 OA 
BRANCH  18  20
HETATM   20  C   UNL     1      -9.677  10.176  64.597  1.00  0.00    -0.309 C  
HETATM   21  N   UNL     1     -10.661  10.652  65.465  1.00  0.00    -0.167 N  
HETATM   22  O   UNL     1      -9.452  10.660  63.500  1.00  0.00    -0.250 OA 
HETATM   23  H   UNL     1     -11.024  10.065  66.216  1.00  0.00     0.000 HD 
BRANCH  21  24
HETATM   24  C   UNL     1     -11.157  12.009  65.273  1.00  0.00    -0.317 C  
BRANCH  24  25
HETATM   25  C   UNL     1     -11.745  12.686  66.541  1.00  0.00    -0.400 C  
BRANCH  25  26
HETATM   26  N   UNL     1     -10.885  13.836  67.120  1.00  0.00    -0.281 N  
BRANCH  26  27
HETATM   27  C   UNL     1      -9.918  13.293  68.213  1.00  0.00    -0.236 C  
HETATM   28  C   UNL     1      -8.585  14.021  68.321  1.00  0.00    -0.180 C  
ENDBRANCH  26  27
BRANCH  26  29
HETATM   29  C   UNL     1     -10.104  14.482  65.942  1.00  0.00    -0.326 C  
HETATM   30  C   UNL     1     -10.695  15.770  65.396  1.00  0.00    -0.420 C  
ENDBRANCH  26  29
BRANCH  26  31
HETATM   31  C   UNL     1     -11.806  14.914  67.803  1.00  0.00    -0.251 C  
BRANCH  31  32
HETATM   32  C   UNL     1     -11.863  14.983  69.320  1.00  0.00    -0.344 A  
HETATM   33  C   UNL     1     -12.579  14.013  70.053  1.00  0.00    -0.250 A  
HETATM   34  C   UNL     1     -12.757  14.128  71.436  1.00  0.00    -0.439 A  
HETATM   35  C   UNL     1     -12.241  15.223  72.115  1.00  0.00    -0.457 A  
HETATM   36  C   UNL     1     -11.514  16.184  71.420  1.00  0.00    -0.429 A  
HETATM   37  C   UNL     1     -11.318  16.064  70.040  1.00  0.00    -0.352 A  
HETATM   38 CL   UNL     1     -10.405  17.315  69.275  1.00  0.00    -0.298 Cl 
ENDBRANCH  31  32
ENDBRANCH  26  31
ENDBRANCH  25  26
ENDBRANCH  24  25
ENDBRANCH  21  24
ENDBRANCH  18  20
ENDBRANCH  15  16
ENDBRANCH  14  15
ENDBRANCH   3  14
ENDBRANCH   2   3
TORSDOF 15
ENDMDL
MODEL      121
REMARK 921   NORMALIZED FREE ENERGY PREDICTED BY IDOCK:   -4.97 KCAL/MOL
REMARK 922        TOTAL FREE ENERGY PREDICTED BY IDOCK:  -12.00 KCAL/MOL
REMARK 923 INTER-LIGAND FREE ENERGY PREDICTED BY IDOCK:   -9.75 KCAL/MOL
REMARK 924 INTRA-LIGAND FREE ENERGY PREDICTED BY IDOCK:   -2.25 KCAL/MOL
REMARK 927      BINDING AFFINITY PREDICTED BY RF-SCORE:    0.00 PKD
ROOT
HETATM    1  C   UNL     1      -5.890  17.879  66.283  1.00  0.00    -0.226 C  
HETATM    2  C   UNL     1      -7.393  17.652  66.359  1.00  0.00    -0.288 C  
ENDROOT
BRANCH   2   3
HETATM    3  N   UNL     1      -8.118  18.328  67.564  1.00  0.00    -0.238 N  
BRANCH   3   4
HETATM    4  C   UNL     1      -7.530  19.748  67.811  1.00  0.00    -0.286 C  
HETATM    5  C   UNL     1      -6.643  19.890  69.021  1.00  0.00    -0.364 C  
ENDBRANCH   3   4
BRANCH   3   6
HETATM    6  C   UNL     1      -7.830  17.551  68.870  1.00  0.00    -0.197 C  
BRANCH   6   7
HETATM    7  C   UNL     1      -7.482  16.066  68.885  1.00  0.00    -0.188 A  
HETATM    8  C   UNL     1      -5.799  14.336  69.350  1.00  0.00    -0.095 A  
HETATM    9  C   UNL     1      -8.302  15.033  68.402  1.00  0.00    -0.154 A  
HETATM   10  C   UNL     1      -6.234  15.667  69.407  1.00  0.00    -0.136 A  
HETATM   11  C   UNL     1      -7.899  13.696  68.397  1.00  0.00    -0.140 A  
HETATM   12 CL   UNL     1      -5.162  16.826  70.116  1.00  0.00    -0.176 Cl 
HETATM   13  C   UNL     1      -6.638  13.349  68.847  1.00  0.00    -0.107 A  
ENDBRANCH   6   7
ENDBRANCH   3   6
BRANCH   3  14
HETATM   14  C   UNL     1      -9.656  18.335  67.193  1.00  0.00    -0.281 C  
BRANCH  14  15
HETATM   15  C   UNL     1     -10.062  17.660  65.838  1.00  0.00    -0.181 C  
BRANCH  15  16
HETATM   16  N   UNL     1     -10.652  16.330  65.887  1.00  0.00    -0.321 N  
HETATM   17  H   UNL     1     -10.627  15.789  66.751  1.00  0.00     0.000 HD 
HETATM   18  C   UNL     1     -11.250  15.800  64.747  1.00  0.00    -0.366 C  
HETATM   19  O   UNL     1     -11.489  16.452  63.744  1.00  0.00    -1.002 OA 
BRANCH  18  20
HETATM   20  C   UNL     1     -11.712  14.327  64.881  1.00  0.00    -0.397 C  
HETATM   21  N   UNL     1     -10.758  13.442  65.384  1.00  0.00    -0.292 N  
HETATM   22  O   UNL     1     -12.844  13.995  64.569  1.00  0.00    -0.644 OA 
HETATM   23  H   UNL     1      -9.764  13.669  65.350  1.00  0.00     0.000 HD 
BRANCH  21  24
HETATM   24  C   UNL     1     -11.215  12.184  65.962  1.00  0.00    -0.336 C  
BRANCH  24  25
HETATM   25  C   UNL     1     -10.439  10.921  65.499  1.00  0.00    -0.219 C  
BRANCH  25  26
HETATM   26  N   UNL     1      -9.820  10.085  66.645  1.00  0.00    -0.193 N  
BRANCH  26  27
HETATM   27  C   UNL     1     -10.759   8.900  67.019  1.00  0.00    -0.110 C  
HETATM   28  C   UNL     1     -10.238   7.517  66.653  1.00  0.00    -0.261 C  
ENDBRANCH  26  27
BRANCH  26  29
HETATM   29  C   UNL     1      -8.432   9.578  66.164  1.00  0.00    -0.120 C  
HETATM   30  C   UNL     1      -7.335  10.627  66.119  1.00  0.00    -0.138 C  
ENDBRANCH  26  29
BRANCH  26  31
HETATM   31  C   UNL     1      -9.646  10.971  67.934  1.00  0.00    -0.172 C  
BRANCH  31  32
HETATM   32  C   UNL     1      -9.724  10.310  69.300  1.00  0.00    -0.240 A  
HETATM   33  C   UNL     1      -8.643   9.548  69.790  1.00  0.00    -0.201 A  
HETATM   34  C   UNL     1      -8.740   8.823  70.983  1.00  0.00    -0.248 A  
HETATM   35  C   UNL     1      -9.926   8.828  71.704  1.00  0.00    -0.381 A  
HETATM   36  C   UNL     1     -11.002   9.586  71.255  1.00  0.00    -0.440 A  
HETATM   37  C   UNL     1     -10.903  10.328  70.073  1.00  0.00    -0.307 A  
HETATM   38 CL   UNL     1     -12.299  11.230  69.604  1.00  0.00    -0.304 Cl 
ENDBRANCH  31  32
ENDBRANCH  26  31
ENDBRANCH  25  26
ENDBRANCH  24  25
ENDBRANCH  21  24
ENDBRANCH  18  20
ENDBRANCH  15  16
ENDBRANCH  14  15
ENDBRANCH   3  14
ENDBRANCH   2   3
TORSDOF 15
ENDMDL
MODEL      122
REMARK 921   NORMALIZED FREE ENERGY PREDICTED BY IDOCK:   -4.96 KCAL/MOL
REMARK 922        TOTAL FREE ENERGY PREDICTED BY IDOCK:  -11.98 KCAL/MOL
REMARK 923 INTER-LIGAND FREE ENERGY PREDICTED BY IDOCK:  -10.14 KCAL/MOL
REMARK 924 INTRA-LIGAND FREE ENERGY PREDICTED BY IDOCK:   -1.84 KCAL/MOL
REMARK 927      BINDING AFFINITY PREDICTED BY RF-SCORE:    0.00 PKD
ROOT
HETATM    1  C   UNL     1     -12.141  12.951  63.483  1.00  0.00    -0.633 C  
HETATM    2  C   UNL     1     -12.462  12.845  64.966  1.00  0.00    -0.492 C  
ENDROOT
BRANCH   2   3
HETATM    3  N   UNL     1     -11.255  13.044  65.935  1.00  0.00    -0.284 N  
BRANCH   3   4
HETATM    4  C   UNL     1     -10.084  13.748  65.189  1.00  0.00    -0.289 C  
HETATM    5  C   UNL     1     -10.009  15.245  65.349  1.00  0.00    -0.364 C  
ENDBRANCH   3   4
BRANCH   3   6
HETATM    6  C   UNL     1     -10.679  11.674  66.365  1.00  0.00    -0.272 C  
BRANCH   6   7
HETATM    7  C   UNL     1      -9.635  10.924  65.543  1.00  0.00    -0.266 A  
HETATM    8  C   UNL     1      -7.256  10.453  65.150  1.00  0.00    -0.081 A  
HETATM    9  C   UNL     1      -9.902  10.141  64.408  1.00  0.00    -0.307 A  
HETATM   10  C   UNL     1      -8.279  11.019  65.921  1.00  0.00    -0.100 A  
HETATM   11  C   UNL     1      -8.891   9.523  63.670  1.00  0.00    -0.236 A  
HETATM   12 CL   UNL     1      -7.819  11.879  67.350  1.00  0.00    -0.149 Cl 
HETATM   13  C   UNL     1      -7.565   9.700  64.024  1.00  0.00    -0.128 A  
ENDBRANCH   6   7
ENDBRANCH   3   6
BRANCH   3  14
HETATM   14  C   UNL     1     -11.816  13.874  67.159  1.00  0.00    -0.412 C  
BRANCH  14  15
HETATM   15  C   UNL     1     -11.043  13.746  68.517  1.00  0.00    -0.267 C  
BRANCH  15  16
HETATM   16  N   UNL     1     -11.461  12.707  69.446  1.00  0.00    -0.377 N  
HETATM   17  H   UNL     1     -11.033  11.782  69.407  1.00  0.00     0.000 HD 
HETATM   18  C   UNL     1     -12.447  12.983  70.388  1.00  0.00    -0.194 C  
HETATM   19  O   UNL     1     -12.864  14.105  70.622  1.00  0.00    -0.336 OA 
BRANCH  18  20
HETATM   20  C   UNL     1     -12.909  11.761  71.222  1.00  0.00    -0.308 C  
HETATM   21  N   UNL     1     -12.706  10.516  70.626  1.00  0.00    -0.371 N  
HETATM   22  O   UNL     1     -13.402  11.909  72.328  1.00  0.00    -0.471 OA 
HETATM   23  H   UNL     1     -12.581  10.433  69.617  1.00  0.00     0.000 HD 
BRANCH  21  24
HETATM   24  C   UNL     1     -12.676   9.335  71.481  1.00  0.00    -0.350 C  
BRANCH  24  25
HETATM   25  C   UNL     1     -11.268   8.922  71.991  1.00  0.00    -0.352 C  
BRANCH  25  26
HETATM   26  N   UNL     1     -10.504   7.945  71.065  1.00  0.00    -0.203 N  
BRANCH  26  27
HETATM   27  C   UNL     1     -10.320   8.570  69.651  1.00  0.00    -0.218 C  
HETATM   28  C   UNL     1      -9.346   9.738  69.578  1.00  0.00    -0.226 C  
ENDBRANCH  26  27
BRANCH  26  29
HETATM   29  C   UNL     1      -9.134   7.635  71.730  1.00  0.00    -0.133 C  
HETATM   30  C   UNL     1      -9.035   7.977  73.206  1.00  0.00    -0.338 C  
ENDBRANCH  26  29
BRANCH  26  31
HETATM   31  C   UNL     1     -11.322   6.612  70.884  1.00  0.00    -0.325 C  
BRANCH  31  32
HETATM   32  C   UNL     1     -10.584   5.284  70.901  1.00  0.00    -0.247 A  
HETATM   33  C   UNL     1     -10.086   4.726  69.704  1.00  0.00    -0.275 A  
HETATM   34  C   UNL     1      -9.521   3.447  69.674  1.00  0.00    -0.223 A  
HETATM   35  C   UNL     1      -9.458   2.687  70.834  1.00  0.00    -0.221 A  
HETATM   36  C   UNL     1      -9.923   3.219  72.032  1.00  0.00    -0.222 A  
HETATM   37  C   UNL     1     -10.471   4.506  72.071  1.00  0.00    -0.097 A  
HETATM   38 CL   UNL     1     -11.023   5.068  73.608  1.00  0.00    -0.373 Cl 
ENDBRANCH  31  32
ENDBRANCH  26  31
ENDBRANCH  25  26
ENDBRANCH  24  25
ENDBRANCH  21  24
ENDBRANCH  18  20
ENDBRANCH  15  16
ENDBRANCH  14  15
ENDBRANCH   3  14
ENDBRANCH   2   3
TORSDOF 15
ENDMDL
MODEL      123
REMARK 921   NORMALIZED FREE ENERGY PREDICTED BY IDOCK:   -4.96 KCAL/MOL
REMARK 922        TOTAL FREE ENERGY PREDICTED BY IDOCK:  -11.97 KCAL/MOL
REMARK 923 INTER-LIGAND FREE ENERGY PREDICTED BY IDOCK:   -9.67 KCAL/MOL
REMARK 924 INTRA-LIGAND FREE ENERGY PREDICTED BY IDOCK:   -2.30 KCAL/MOL
REMARK 927      BINDING AFFINITY PREDICTED BY RF-SCORE:    0.00 PKD
ROOT
HETATM    1  C   UNL     1     -10.706  16.111  65.441  1.00  0.00    -0.374 C  
HETATM    2  C   UNL     1     -10.252  14.756  64.919  1.00  0.00    -0.275 C  
ENDROOT
BRANCH   2   3
HETATM    3  N   UNL     1     -10.289  13.587  65.951  1.00  0.00    -0.293 N  
BRANCH   3   4
HETATM    4  C   UNL     1     -10.108  12.225  65.220  1.00  0.00    -0.271 C  
HETATM    5  C   UNL     1     -10.530  12.195  63.773  1.00  0.00    -0.470 C  
ENDBRANCH   3   4
BRANCH   3   6
HETATM    6  C   UNL     1     -11.684  13.496  66.612  1.00  0.00    -0.387 C  
BRANCH   6   7
HETATM    7  C   UNL     1     -11.897  12.928  68.012  1.00  0.00    -0.390 A  
HETATM    8  C   UNL     1     -12.095  13.373  70.421  1.00  0.00    -0.405 A  
HETATM    9  C   UNL     1     -11.976  11.563  68.333  1.00  0.00    -0.268 A  
HETATM   10  C   UNL     1     -12.013  13.823  69.097  1.00  0.00    -0.361 A  
HETATM   11  C   UNL     1     -12.120  11.109  69.645  1.00  0.00    -0.406 A  
HETATM   12 CL   UNL     1     -12.022  15.533  68.833  1.00  0.00    -0.346 Cl 
HETATM   13  C   UNL     1     -12.153  12.012  70.693  1.00  0.00    -0.369 A  
ENDBRANCH   6   7
ENDBRANCH   3   6
BRANCH   3  14
HETATM   14  C   UNL     1      -9.144  13.900  66.998  1.00  0.00    -0.250 C  
BRANCH  14  15
HETATM   15  C   UNL     1      -8.121  12.749  67.296  1.00  0.00    -0.172 C  
BRANCH  15  16
HETATM   16  N   UNL     1      -8.168  12.115  68.605  1.00  0.00    -0.315 N  
HETATM   17  H   UNL     1      -8.342  12.674  69.440  1.00  0.00     0.000 HD 
HETATM   18  C   UNL     1      -7.974  10.741  68.711  1.00  0.00    -0.136 C  
HETATM   19  O   UNL     1      -7.954   9.985  67.753  1.00  0.00    -0.104 OA 
BRANCH  18  20
HETATM   20  C   UNL     1      -7.903  10.204  70.162  1.00  0.00    -0.044 C  
HETATM   21  N   UNL     1      -9.101   9.710  70.680  1.00  0.00    -0.309 N  
HETATM   22  O   UNL     1      -6.853  10.216  70.783  1.00  0.00    -0.317 OA 
HETATM   23  H   UNL     1      -9.997   9.981  70.274  1.00  0.00     0.000 HD 
BRANCH  21  24
HETATM   24  C   UNL     1      -9.042   8.796  71.814  1.00  0.00    -0.235 C  
BRANCH  24  25
HETATM   25  C   UNL     1     -10.345   7.999  72.091  1.00  0.00    -0.254 C  
BRANCH  25  26
HETATM   26  N   UNL     1     -10.345   6.548  71.551  1.00  0.00    -0.209 N  
BRANCH  26  27
HETATM   27  C   UNL     1      -9.997   5.546  72.692  1.00  0.00    -0.167 C  
HETATM   28  C   UNL     1      -9.962   4.080  72.281  1.00  0.00    -0.236 C  
ENDBRANCH  26  27
BRANCH  26  29
HETATM   29  C   UNL     1     -11.751   6.263  70.955  1.00  0.00    -0.217 C  
HETATM   30  C   UNL     1     -12.837   7.249  71.349  1.00  0.00    -0.425 C  
ENDBRANCH  26  29
BRANCH  26  31
HETATM   31  C   UNL     1      -9.249   6.383  70.434  1.00  0.00    -0.155 C  
BRANCH  31  32
HETATM   32  C   UNL     1      -9.634   5.742  69.110  1.00  0.00    -0.171 A  
HETATM   33  C   UNL     1      -9.333   4.387  68.857  1.00  0.00    -0.216 A  
HETATM   34  C   UNL     1      -9.557   3.811  67.602  1.00  0.00    -0.199 A  
HETATM   35  C   UNL     1     -10.069   4.581  66.565  1.00  0.00    -0.257 A  
HETATM   36  C   UNL     1     -10.392   5.914  66.793  1.00  0.00    -0.302 A  
HETATM   37  C   UNL     1     -10.188   6.489  68.052  1.00  0.00    -0.164 A  
HETATM   38 CL   UNL     1     -10.618   8.153  68.224  1.00  0.00    -0.197 Cl 
ENDBRANCH  31  32
ENDBRANCH  26  31
ENDBRANCH  25  26
ENDBRANCH  24  25
ENDBRANCH  21  24
ENDBRANCH  18  20
ENDBRANCH  15  16
ENDBRANCH  14  15
ENDBRANCH   3  14
ENDBRANCH   2   3
TORSDOF 15
ENDMDL
MODEL      124
REMARK 921   NORMALIZED FREE ENERGY PREDICTED BY IDOCK:   -4.96 KCAL/MOL
REMARK 922        TOTAL FREE ENERGY PREDICTED BY IDOCK:  -11.97 KCAL/MOL
REMARK 923 INTER-LIGAND FREE ENERGY PREDICTED BY IDOCK:  -10.35 KCAL/MOL
REMARK 924 INTRA-LIGAND FREE ENERGY PREDICTED BY IDOCK:   -1.62 KCAL/MOL
REMARK 927      BINDING AFFINITY PREDICTED BY RF-SCORE:    0.00 PKD
ROOT
HETATM    1  C   UNL     1     -10.974   4.831  73.651  1.00  0.00    -0.391 C  
HETATM    2  C   UNL     1      -9.993   5.853  73.095  1.00  0.00    -0.177 C  
ENDROOT
BRANCH   2   3
HETATM    3  N   UNL     1     -10.533   6.746  71.935  1.00  0.00    -0.199 N  
BRANCH   3   4
HETATM    4  C   UNL     1     -11.563   7.772  72.489  1.00  0.00    -0.367 C  
HETATM    5  C   UNL     1     -12.885   7.831  71.765  1.00  0.00    -0.352 C  
ENDBRANCH   3   4
BRANCH   3   6
HETATM    6  C   UNL     1     -11.334   5.890  70.926  1.00  0.00    -0.148 C  
BRANCH   6   7
HETATM    7  C   UNL     1     -10.837   5.605  69.512  1.00  0.00    -0.345 A  
HETATM    8  C   UNL     1      -9.399   4.245  68.055  1.00  0.00    -0.200 A  
HETATM    9  C   UNL     1     -11.146   6.367  68.372  1.00  0.00    -0.374 A  
HETATM   10  C   UNL     1      -9.984   4.501  69.302  1.00  0.00    -0.122 A  
HETATM   11  C   UNL     1     -10.613   6.081  67.114  1.00  0.00    -0.374 A  
HETATM   12 CL   UNL     1      -9.594   3.428  70.602  1.00  0.00    -0.249 Cl 
HETATM   13  C   UNL     1      -9.719   5.036  66.959  1.00  0.00    -0.180 A  
ENDBRANCH   6   7
ENDBRANCH   3   6
BRANCH   3  14
HETATM   14  C   UNL     1      -9.259   7.418  71.280  1.00  0.00    -0.150 C  
BRANCH  14  15
HETATM   15  C   UNL     1      -9.130   8.975  71.415  1.00  0.00    -0.201 C  
BRANCH  15  16
HETATM   16  N   UNL     1      -8.850   9.744  70.212  1.00  0.00    -0.326 N  
HETATM   17  H   UNL     1      -7.889   9.984  69.969  1.00  0.00     0.000 HD 
HETATM   18  C   UNL     1      -9.901  10.150  69.395  1.00  0.00    -0.229 C  
HETATM   19  O   UNL     1     -11.044   9.743  69.512  1.00  0.00    -0.232 OA 
BRANCH  18  20
HETATM   20  C   UNL     1      -9.493  11.082  68.226  1.00  0.00    -0.172 C  
HETATM   21  N   UNL     1      -9.632  12.449  68.472  1.00  0.00    -0.362 N  
HETATM   22  O   UNL     1      -9.070  10.624  67.178  1.00  0.00    -0.143 OA 
HETATM   23  H   UNL     1     -10.251  12.788  69.209  1.00  0.00     0.000 HD 
BRANCH  21  24
HETATM   24  C   UNL     1      -8.872  13.382  67.648  1.00  0.00    -0.200 C  
BRANCH  24  25
HETATM   25  C   UNL     1      -9.658  14.016  66.468  1.00  0.00    -0.293 C  
BRANCH  25  26
HETATM   26  N   UNL     1     -10.694  15.089  66.881  1.00  0.00    -0.302 N  
BRANCH  26  27
HETATM   27  C   UNL     1     -12.141  14.557  66.664  1.00  0.00    -0.296 C  
HETATM   28  C   UNL     1     -12.295  13.530  65.551  1.00  0.00    -0.524 C  
ENDBRANCH  26  27
BRANCH  26  29
HETATM   29  C   UNL     1     -10.438  15.445  68.372  1.00  0.00    -0.239 C  
HETATM   30  C   UNL     1     -11.683  15.635  69.220  1.00  0.00    -0.388 C  
ENDBRANCH  26  29
BRANCH  26  31
HETATM   31  C   UNL     1     -10.530  16.376  65.990  1.00  0.00    -0.323 C  
BRANCH  31  32
HETATM   32  C   UNL     1     -10.010  17.654  66.627  1.00  0.00    -0.328 A  
HETATM   33  C   UNL     1     -10.898  18.696  66.969  1.00  0.00    -0.297 A  
HETATM   34  C   UNL     1     -10.432  19.931  67.433  1.00  0.00    -0.542 A  
HETATM   35  C   UNL     1      -9.067  20.160  67.547  1.00  0.00    -0.465 A  
HETATM   36  C   UNL     1      -8.170  19.145  67.235  1.00  0.00    -0.299 A  
HETATM   37  C   UNL     1      -8.632  17.902  66.789  1.00  0.00    -0.254 A  
HETATM   38 CL   UNL     1      -7.433  16.713  66.425  1.00  0.00    -0.304 Cl 
ENDBRANCH  31  32
ENDBRANCH  26  31
ENDBRANCH  25  26
ENDBRANCH  24  25
ENDBRANCH  21  24
ENDBRANCH  18  20
ENDBRANCH  15  16
ENDBRANCH  14  15
ENDBRANCH   3  14
ENDBRANCH   2   3
TORSDOF 15
ENDMDL
MODEL      125
REMARK 921   NORMALIZED FREE ENERGY PREDICTED BY IDOCK:   -4.95 KCAL/MOL
REMARK 922        TOTAL FREE ENERGY PREDICTED BY IDOCK:  -11.95 KCAL/MOL
REMARK 923 INTER-LIGAND FREE ENERGY PREDICTED BY IDOCK:  -10.56 KCAL/MOL
REMARK 924 INTRA-LIGAND FREE ENERGY PREDICTED BY IDOCK:   -1.39 KCAL/MOL
REMARK 927      BINDING AFFINITY PREDICTED BY RF-SCORE:    0.00 PKD
ROOT
HETATM    1  C   UNL     1      -9.742  16.706  66.192  1.00  0.00    -0.329 C  
HETATM    2  C   UNL     1     -10.783  16.459  67.273  1.00  0.00    -0.257 C  
ENDROOT
BRANCH   2   3
HETATM    3  N   UNL     1     -10.897  14.988  67.778  1.00  0.00    -0.276 N  
BRANCH   3   4
HETATM    4  C   UNL     1      -9.577  14.219  67.483  1.00  0.00    -0.216 C  
HETATM    5  C   UNL     1      -8.579  14.169  68.612  1.00  0.00    -0.126 C  
ENDBRANCH   3   4
BRANCH   3   6
HETATM    6  C   UNL     1     -11.982  14.227  66.980  1.00  0.00    -0.433 C  
BRANCH   6   7
HETATM    7  C   UNL     1     -11.645  13.266  65.844  1.00  0.00    -0.380 A  
HETATM    8  C   UNL     1     -11.679  12.821  63.427  1.00  0.00    -0.556 A  
HETATM    9  C   UNL     1     -11.146  11.962  66.002  1.00  0.00    -0.369 A  
HETATM   10  C   UNL     1     -11.856  13.687  64.514  1.00  0.00    -0.412 A  
HETATM   11  C   UNL     1     -10.909  11.114  64.918  1.00  0.00    -0.261 A  
HETATM   12 CL   UNL     1     -12.384  15.299  64.172  1.00  0.00    -0.275 Cl 
HETATM   13  C   UNL     1     -11.200  11.533  63.632  1.00  0.00    -0.451 A  
ENDBRANCH   6   7
ENDBRANCH   3   6
BRANCH   3  14
HETATM   14  C   UNL     1     -11.241  15.086  69.320  1.00  0.00    -0.286 C  
BRANCH  14  15
HETATM   15  C   UNL     1     -12.182  13.978  69.909  1.00  0.00    -0.340 C  
BRANCH  15  16
HETATM   16  N   UNL     1     -11.649  12.630  70.044  1.00  0.00    -0.531 N  
HETATM   17  H   UNL     1     -10.812  12.355  69.529  1.00  0.00     0.000 HD 
HETATM   18  C   UNL     1     -12.288  11.719  70.879  1.00  0.00    -0.320 C  
HETATM   19  O   UNL     1     -13.168  12.025  71.666  1.00  0.00    -0.410 OA 
BRANCH  18  20
HETATM   20  C   UNL     1     -11.715  10.280  70.829  1.00  0.00    -0.360 C  
HETATM   21  N   UNL     1     -10.396  10.174  70.384  1.00  0.00    -0.416 N  
HETATM   22  O   UNL     1     -12.391   9.325  71.173  1.00  0.00    -0.307 OA 
HETATM   23  H   UNL     1      -9.969  10.918  69.833  1.00  0.00     0.000 HD 
BRANCH  21  24
HETATM   24  C   UNL     1      -9.644   8.973  70.727  1.00  0.00    -0.249 C  
BRANCH  24  25
HETATM   25  C   UNL     1      -9.171   8.120  69.519  1.00  0.00    -0.158 C  
BRANCH  25  26
HETATM   26  N   UNL     1      -8.835   6.647  69.857  1.00  0.00    -0.143 N  
BRANCH  26  27
HETATM   27  C   UNL     1     -10.005   5.712  69.431  1.00  0.00    -0.197 C  
HETATM   28  C   UNL     1     -11.381   6.363  69.408  1.00  0.00    -0.443 C  
ENDBRANCH  26  27
BRANCH  26  29
HETATM   29  C   UNL     1      -7.518   6.281  69.117  1.00  0.00    -0.094 C  
HETATM   30  C   UNL     1      -7.541   4.965  68.360  1.00  0.00    -0.078 C  
ENDBRANCH  26  29
BRANCH  26  31
HETATM   31  C   UNL     1      -8.640   6.475  71.409  1.00  0.00    -0.126 C  
BRANCH  31  32
HETATM   32  C   UNL     1      -9.372   5.353  72.126  1.00  0.00    -0.161 A  
HETATM   33  C   UNL     1      -9.036   4.005  71.876  1.00  0.00    -0.156 A  
HETATM   34  C   UNL     1      -9.780   2.954  72.422  1.00  0.00    -0.217 A  
HETATM   35  C   UNL     1     -10.888   3.223  73.213  1.00  0.00    -0.283 A  
HETATM   36  C   UNL     1     -11.231   4.543  73.491  1.00  0.00    -0.388 A  
HETATM   37  C   UNL     1     -10.478   5.597  72.963  1.00  0.00    -0.216 A  
HETATM   38 CL   UNL     1     -10.993   7.196  73.367  1.00  0.00    -0.343 Cl 
ENDBRANCH  31  32
ENDBRANCH  26  31
ENDBRANCH  25  26
ENDBRANCH  24  25
ENDBRANCH  21  24
ENDBRANCH  18  20
ENDBRANCH  15  16
ENDBRANCH  14  15
ENDBRANCH   3  14
ENDBRANCH   2   3
TORSDOF 15
ENDMDL
MODEL      126
REMARK 921   NORMALIZED FREE ENERGY PREDICTED BY IDOCK:   -4.94 KCAL/MOL
REMARK 922        TOTAL FREE ENERGY PREDICTED BY IDOCK:  -11.94 KCAL/MOL
REMARK 923 INTER-LIGAND FREE ENERGY PREDICTED BY IDOCK:  -10.06 KCAL/MOL
REMARK 924 INTRA-LIGAND FREE ENERGY PREDICTED BY IDOCK:   -1.87 KCAL/MOL
REMARK 927      BINDING AFFINITY PREDICTED BY RF-SCORE:    0.00 PKD
ROOT
HETATM    1  C   UNL     1      -8.673   8.739  71.351  1.00  0.00    -0.278 C  
HETATM    2  C   UNL     1      -9.160   7.470  70.667  1.00  0.00    -0.155 C  
ENDROOT
BRANCH   2   3
HETATM    3  N   UNL     1     -10.641   7.492  70.175  1.00  0.00    -0.230 N  
BRANCH   3   4
HETATM    4  C   UNL     1     -11.319   8.830  70.591  1.00  0.00    -0.254 C  
HETATM    5  C   UNL     1     -12.439   8.714  71.593  1.00  0.00    -0.382 C  
ENDBRANCH   3   4
BRANCH   3   6
HETATM    6  C   UNL     1     -11.463   6.396  70.892  1.00  0.00    -0.344 C  
BRANCH   6   7
HETATM    7  C   UNL     1     -10.865   5.486  71.961  1.00  0.00    -0.287 A  
HETATM    8  C   UNL     1      -9.669   3.402  72.477  1.00  0.00    -0.207 A  
HETATM    9  C   UNL     1     -10.979   5.677  73.349  1.00  0.00    -0.293 A  
HETATM   10  C   UNL     1     -10.147   4.342  71.555  1.00  0.00    -0.151 A  
HETATM   11  C   UNL     1     -10.452   4.775  74.274  1.00  0.00    -0.337 A  
HETATM   12 CL   UNL     1      -9.855   4.033  69.877  1.00  0.00    -0.258 Cl 
HETATM   13  C   UNL     1      -9.820   3.623  73.840  1.00  0.00    -0.154 A  
ENDBRANCH   6   7
ENDBRANCH   3   6
BRANCH   3  14
HETATM   14  C   UNL     1     -10.579   7.274  68.609  1.00  0.00    -0.168 C  
BRANCH  14  15
HETATM   15  C   UNL     1      -9.551   8.147  67.811  1.00  0.00    -0.151 C  
BRANCH  15  16
HETATM   16  N   UNL     1     -10.055   9.301  67.081  1.00  0.00    -0.218 N  
HETATM   17  H   UNL     1     -10.632   9.171  66.251  1.00  0.00     0.000 HD 
HETATM   18  C   UNL     1      -9.747  10.584  67.524  1.00  0.00    -0.166 C  
HETATM   19  O   UNL     1      -9.232  10.821  68.604  1.00  0.00    -0.168 OA 
BRANCH  18  20
HETATM   20  C   UNL     1     -10.218  11.726  66.589  1.00  0.00    -0.210 C  
HETATM   21  N   UNL     1     -11.319  12.455  67.038  1.00  0.00    -0.306 N  
HETATM   22  O   UNL     1      -9.638  11.955  65.540  1.00  0.00    -0.232 OA 
HETATM   23  H   UNL     1     -11.953  12.067  67.738  1.00  0.00     0.000 HD 
BRANCH  21  24
HETATM   24  C   UNL     1     -11.543  13.785  66.485  1.00  0.00    -0.365 C  
BRANCH  24  25
HETATM   25  C   UNL     1     -11.853  14.893  67.528  1.00  0.00    -0.232 C  
BRANCH  25  26
HETATM   26  N   UNL     1     -10.610  15.473  68.247  1.00  0.00    -0.249 N  
BRANCH  26  27
HETATM   27  C   UNL     1      -9.321  15.176  67.425  1.00  0.00    -0.196 C  
HETATM   28  C   UNL     1      -8.052  14.999  68.248  1.00  0.00    -0.133 C  
ENDBRANCH  26  27
BRANCH  26  29
HETATM   29  C   UNL     1     -10.833  17.001  68.419  1.00  0.00    -0.333 C  
HETATM   30  C   UNL     1     -10.492  17.850  67.207  1.00  0.00    -0.373 C  
ENDBRANCH  26  29
BRANCH  26  31
HETATM   31  C   UNL     1     -10.432  14.798  69.657  1.00  0.00    -0.111 C  
BRANCH  31  32
HETATM   32  C   UNL     1     -11.591  14.823  70.640  1.00  0.00    -0.324 A  
HETATM   33  C   UNL     1     -11.834  15.966  71.431  1.00  0.00    -0.524 A  
HETATM   34  C   UNL     1     -12.809  15.967  72.434  1.00  0.00    -0.516 A  
HETATM   35  C   UNL     1     -13.552  14.821  72.682  1.00  0.00    -0.565 A  
HETATM   36  C   UNL     1     -13.347  13.686  71.905  1.00  0.00    -0.510 A  
HETATM   37  C   UNL     1     -12.386  13.686  70.888  1.00  0.00    -0.371 A  
HETATM   38 CL   UNL     1     -12.209  12.224  69.987  1.00  0.00    -0.311 Cl 
ENDBRANCH  31  32
ENDBRANCH  26  31
ENDBRANCH  25  26
ENDBRANCH  24  25
ENDBRANCH  21  24
ENDBRANCH  18  20
ENDBRANCH  15  16
ENDBRANCH  14  15
ENDBRANCH   3  14
ENDBRANCH   2   3
TORSDOF 15
ENDMDL
MODEL      127
REMARK 921   NORMALIZED FREE ENERGY PREDICTED BY IDOCK:   -4.94 KCAL/MOL
REMARK 922        TOTAL FREE ENERGY PREDICTED BY IDOCK:  -11.93 KCAL/MOL
REMARK 923 INTER-LIGAND FREE ENERGY PREDICTED BY IDOCK:   -9.89 KCAL/MOL
REMARK 924 INTRA-LIGAND FREE ENERGY PREDICTED BY IDOCK:   -2.04 KCAL/MOL
REMARK 927      BINDING AFFINITY PREDICTED BY RF-SCORE:    0.00 PKD
ROOT
HETATM    1  C   UNL     1     -12.096  13.262  64.979  1.00  0.00    -0.447 C  
HETATM    2  C   UNL     1     -11.370  14.595  65.084  1.00  0.00    -0.375 C  
ENDROOT
BRANCH   2   3
HETATM    3  N   UNL     1     -10.545  14.815  66.389  1.00  0.00    -0.293 N  
BRANCH   3   4
HETATM    4  C   UNL     1     -11.476  15.321  67.529  1.00  0.00    -0.265 C  
HETATM    5  C   UNL     1     -11.778  14.326  68.620  1.00  0.00    -0.380 C  
ENDBRANCH   3   4
BRANCH   3   6
HETATM    6  C   UNL     1      -9.515  15.951  66.189  1.00  0.00    -0.340 C  
BRANCH   6   7
HETATM    7  C   UNL     1      -9.741  17.368  66.709  1.00  0.00    -0.293 A  
HETATM    8  C   UNL     1      -9.445  18.972  68.547  1.00  0.00    -0.436 A  
HETATM    9  C   UNL     1     -10.481  18.367  66.055  1.00  0.00    -0.400 A  
HETATM   10  C   UNL     1      -9.185  17.730  67.954  1.00  0.00    -0.265 A  
HETATM   11  C   UNL     1     -10.693  19.628  66.613  1.00  0.00    -0.552 A  
HETATM   12 CL   UNL     1      -8.177  16.626  68.826  1.00  0.00    -0.242 Cl 
HETATM   13  C   UNL     1     -10.198  19.924  67.870  1.00  0.00    -0.571 A  
ENDBRANCH   6   7
ENDBRANCH   3   6
BRANCH   3  14
HETATM   14  C   UNL     1      -9.856  13.425  66.704  1.00  0.00    -0.278 C  
BRANCH  14  15
HETATM   15  C   UNL     1      -8.440  13.471  67.375  1.00  0.00    -0.200 C  
BRANCH  15  16
HETATM   16  N   UNL     1      -8.172  12.549  68.469  1.00  0.00    -0.294 N  
HETATM   17  H   UNL     1      -8.729  12.588  69.322  1.00  0.00     0.000 HD 
HETATM   18  C   UNL     1      -7.150  11.612  68.343  1.00  0.00    -0.083 C  
HETATM   19  O   UNL     1      -6.573  11.377  67.295  1.00  0.00    -0.084 OA 
BRANCH  18  20
HETATM   20  C   UNL     1      -6.866  10.785  69.622  1.00  0.00    -0.133 C  
HETATM   21  N   UNL     1      -7.970  10.131  70.172  1.00  0.00    -0.321 N  
HETATM   22  O   UNL     1      -5.741  10.720  70.088  1.00  0.00    -0.060 OA 
HETATM   23  H   UNL     1      -8.919  10.434  69.955  1.00  0.00     0.000 HD 
BRANCH  21  24
HETATM   24  C   UNL     1      -7.733   9.002  71.064  1.00  0.00    -0.125 C  
BRANCH  24  25
HETATM   25  C   UNL     1      -8.159   7.617  70.506  1.00  0.00    -0.105 C  
BRANCH  25  26
HETATM   26  N   UNL     1      -9.278   6.910  71.310  1.00  0.00    -0.157 N  
BRANCH  26  27
HETATM   27  C   UNL     1      -8.970   5.390  71.444  1.00  0.00    -0.138 C  
HETATM   28  C   UNL     1      -9.768   4.481  70.519  1.00  0.00    -0.290 C  
ENDBRANCH  26  27
BRANCH  26  29
HETATM   29  C   UNL     1      -9.366   7.596  72.701  1.00  0.00    -0.172 C  
HETATM   30  C   UNL     1     -10.531   7.157  73.571  1.00  0.00    -0.422 C  
ENDBRANCH  26  29
BRANCH  26  31
HETATM   31  C   UNL     1     -10.655   7.045  70.560  1.00  0.00    -0.224 C  
BRANCH  31  32
HETATM   32  C   UNL     1     -10.819   8.125  69.504  1.00  0.00    -0.128 A  
HETATM   33  C   UNL     1     -10.411   7.893  68.173  1.00  0.00    -0.249 A  
HETATM   34  C   UNL     1     -10.429   8.912  67.215  1.00  0.00    -0.348 A  
HETATM   35  C   UNL     1     -10.836  10.191  67.568  1.00  0.00    -0.349 A  
HETATM   36  C   UNL     1     -11.262  10.444  68.868  1.00  0.00    -0.290 A  
HETATM   37  C   UNL     1     -11.264   9.423  69.825  1.00  0.00    -0.114 A  
HETATM   38 CL   UNL     1     -11.807   9.845  71.409  1.00  0.00    -0.470 Cl 
ENDBRANCH  31  32
ENDBRANCH  26  31
ENDBRANCH  25  26
ENDBRANCH  24  25
ENDBRANCH  21  24
ENDBRANCH  18  20
ENDBRANCH  15  16
ENDBRANCH  14  15
ENDBRANCH   3  14
ENDBRANCH   2   3
TORSDOF 15
ENDMDL
MODEL      128
REMARK 921   NORMALIZED FREE ENERGY PREDICTED BY IDOCK:   -4.91 KCAL/MOL
REMARK 922        TOTAL FREE ENERGY PREDICTED BY IDOCK:  -11.88 KCAL/MOL
REMARK 923 INTER-LIGAND FREE ENERGY PREDICTED BY IDOCK:   -9.19 KCAL/MOL
REMARK 924 INTRA-LIGAND FREE ENERGY PREDICTED BY IDOCK:   -2.69 KCAL/MOL
REMARK 927      BINDING AFFINITY PREDICTED BY RF-SCORE:    0.00 PKD
ROOT
HETATM    1  C   UNL     1     -11.937  15.281  69.007  1.00  0.00    -0.304 C  
HETATM    2  C   UNL     1     -10.594  15.717  68.440  1.00  0.00    -0.252 C  
ENDROOT
BRANCH   2   3
HETATM    3  N   UNL     1      -9.809  14.626  67.648  1.00  0.00    -0.217 N  
BRANCH   3   4
HETATM    4  C   UNL     1      -9.457  15.152  66.226  1.00  0.00    -0.309 C  
HETATM    5  C   UNL     1     -10.163  16.414  65.798  1.00  0.00    -0.370 C  
ENDBRANCH   3   4
BRANCH   3   6
HETATM    6  C   UNL     1     -10.707  13.391  67.399  1.00  0.00    -0.262 C  
BRANCH   6   7
HETATM    7  C   UNL     1     -10.728  12.643  66.069  1.00  0.00    -0.295 A  
HETATM    8  C   UNL     1     -11.924  12.176  63.974  1.00  0.00    -0.533 A  
HETATM    9  C   UNL     1      -9.787  11.684  65.660  1.00  0.00    -0.270 A  
HETATM   10  C   UNL     1     -11.775  12.904  65.161  1.00  0.00    -0.349 A  
HETATM   11  C   UNL     1      -9.895  10.997  64.450  1.00  0.00    -0.351 A  
HETATM   12 CL   UNL     1     -12.953  14.126  65.499  1.00  0.00    -0.442 Cl 
HETATM   13  C   UNL     1     -10.977  11.222  63.618  1.00  0.00    -0.369 A  
ENDBRANCH   6   7
ENDBRANCH   3   6
BRANCH   3  14
HETATM   14  C   UNL     1      -8.540  14.282  68.528  1.00  0.00    -0.175 C  
BRANCH  14  15
HETATM   15  C   UNL     1      -7.789  12.946  68.198  1.00  0.00    -0.147 C  
BRANCH  15  16
HETATM   16  N   UNL     1      -7.763  11.907  69.217  1.00  0.00    -0.337 N  
HETATM   17  H   UNL     1      -8.046  12.120  70.174  1.00  0.00     0.000 HD 
HETATM   18  C   UNL     1      -7.351  10.621  68.879  1.00  0.00    -0.099 C  
HETATM   19  O   UNL     1      -7.185  10.245  67.731  1.00  0.00    -0.085 OA 
BRANCH  18  20
HETATM   20  C   UNL     1      -7.229   9.643  70.073  1.00  0.00    -0.119 C  
HETATM   21  N   UNL     1      -8.337   9.588  70.920  1.00  0.00    -0.107 N  
HETATM   22  O   UNL     1      -6.224   8.970  70.231  1.00  0.00    -0.039 OA 
HETATM   23  H   UNL     1      -9.014  10.350  70.946  1.00  0.00     0.000 HD 
BRANCH  21  24
HETATM   24  C   UNL     1      -8.504   8.413  71.767  1.00  0.00    -0.165 C  
BRANCH  24  25
HETATM   25  C   UNL     1      -9.047   7.148  71.047  1.00  0.00    -0.151 C  
BRANCH  25  26
HETATM   26  N   UNL     1     -10.486   6.741  71.447  1.00  0.00    -0.214 N  
BRANCH  26  27
HETATM   27  C   UNL     1     -10.524   5.246  71.882  1.00  0.00    -0.219 C  
HETATM   28  C   UNL     1     -11.246   4.969  73.193  1.00  0.00    -0.408 C  
ENDBRANCH  26  27
BRANCH  26  29
HETATM   29  C   UNL     1     -10.939   7.679  72.600  1.00  0.00    -0.351 C  
HETATM   30  C   UNL     1     -12.179   8.508  72.316  1.00  0.00    -0.454 C  
ENDBRANCH  26  29
BRANCH  26  31
HETATM   31  C   UNL     1     -11.458   6.898  70.219  1.00  0.00    -0.323 C  
BRANCH  31  32
HETATM   32  C   UNL     1     -10.873   6.964  68.818  1.00  0.00    -0.238 A  
HETATM   33  C   UNL     1     -10.517   5.783  68.134  1.00  0.00    -0.277 A  
HETATM   34  C   UNL     1      -9.858   5.823  66.901  1.00  0.00    -0.179 A  
HETATM   35  C   UNL     1      -9.521   7.044  66.332  1.00  0.00    -0.176 A  
HETATM   36  C   UNL     1      -9.877   8.224  66.975  1.00  0.00    -0.298 A  
HETATM   37  C   UNL     1     -10.554   8.189  68.199  1.00  0.00    -0.110 A  
HETATM   38 CL   UNL     1     -10.944   9.713  68.914  1.00  0.00    -0.195 Cl 
ENDBRANCH  31  32
ENDBRANCH  26  31
ENDBRANCH  25  26
ENDBRANCH  24  25
ENDBRANCH  21  24
ENDBRANCH  18  20
ENDBRANCH  15  16
ENDBRANCH  14  15
ENDBRANCH   3  14
ENDBRANCH   2   3
TORSDOF 15
ENDMDL
MODEL      129
REMARK 921   NORMALIZED FREE ENERGY PREDICTED BY IDOCK:   -4.91 KCAL/MOL
REMARK 922        TOTAL FREE ENERGY PREDICTED BY IDOCK:  -11.87 KCAL/MOL
REMARK 923 INTER-LIGAND FREE ENERGY PREDICTED BY IDOCK:   -9.90 KCAL/MOL
REMARK 924 INTRA-LIGAND FREE ENERGY PREDICTED BY IDOCK:   -1.96 KCAL/MOL
REMARK 927      BINDING AFFINITY PREDICTED BY RF-SCORE:    0.00 PKD
ROOT
HETATM    1  C   UNL     1      -7.541  14.379  68.100  1.00  0.00    -0.128 C  
HETATM    2  C   UNL     1      -8.929  13.850  67.770  1.00  0.00    -0.188 C  
ENDROOT
BRANCH   2   3
HETATM    3  N   UNL     1      -9.700  14.622  66.655  1.00  0.00    -0.258 N  
BRANCH   3   4
HETATM    4  C   UNL     1      -8.851  15.829  66.160  1.00  0.00    -0.311 C  
HETATM    5  C   UNL     1      -9.605  17.117  65.945  1.00  0.00    -0.110 C  
ENDBRANCH   3   4
BRANCH   3   6
HETATM    6  C   UNL     1     -10.987  15.257  67.232  1.00  0.00    -0.327 C  
BRANCH   6   7
HETATM    7  C   UNL     1     -11.437  15.042  68.674  1.00  0.00    -0.329 A  
HETATM    8  C   UNL     1     -11.389  15.837  70.999  1.00  0.00    -0.437 A  
HETATM    9  C   UNL     1     -12.150  13.928  69.146  1.00  0.00    -0.377 A  
HETATM   10  C   UNL     1     -11.111  16.019  69.638  1.00  0.00    -0.331 A  
HETATM   11  C   UNL     1     -12.485  13.769  70.492  1.00  0.00    -0.409 A  
HETATM   12 CL   UNL     1     -10.311  17.482  69.177  1.00  0.00    -0.319 Cl 
HETATM   13  C   UNL     1     -12.082  14.710  71.424  1.00  0.00    -0.416 A  
ENDBRANCH   6   7
ENDBRANCH   3   6
BRANCH   3  14
HETATM   14  C   UNL     1     -10.006  13.557  65.525  1.00  0.00    -0.219 C  
BRANCH  14  15
HETATM   15  C   UNL     1     -10.964  12.376  65.905  1.00  0.00    -0.288 C  
BRANCH  15  16
HETATM   16  N   UNL     1     -10.366  11.133  66.371  1.00  0.00    -0.244 N  
HETATM   17  H   UNL     1      -9.477  10.816  65.986  1.00  0.00     0.000 HD 
HETATM   18  C   UNL     1     -11.015  10.382  67.347  1.00  0.00    -0.270 C  
HETATM   19  O   UNL     1     -11.970  10.786  67.987  1.00  0.00    -0.537 OA 
BRANCH  18  20
HETATM   20  C   UNL     1     -10.357   9.013  67.656  1.00  0.00    -0.257 C  
HETATM   21  N   UNL     1      -9.154   9.071  68.362  1.00  0.00    -0.133 N  
HETATM   22  O   UNL     1     -10.884   7.971  67.304  1.00  0.00    -0.261 OA 
HETATM   23  H   UNL     1      -8.597   9.926  68.377  1.00  0.00     0.000 HD 
BRANCH  21  24
HETATM   24  C   UNL     1      -8.712   7.881  69.078  1.00  0.00    -0.138 C  
BRANCH  24  25
HETATM   25  C   UNL     1      -8.440   8.082  70.593  1.00  0.00    -0.125 C  
BRANCH  25  26
HETATM   26  N   UNL     1      -9.313   7.211  71.530  1.00  0.00    -0.153 N  
BRANCH  26  27
HETATM   27  C   UNL     1      -8.744   5.764  71.610  1.00  0.00    -0.136 C  
HETATM   28  C   UNL     1      -7.233   5.667  71.765  1.00  0.00    -0.090 C  
ENDBRANCH  26  27
BRANCH  26  29
HETATM   29  C   UNL     1      -9.331   7.892  72.927  1.00  0.00    -0.246 C  
HETATM   30  C   UNL     1      -9.836   7.026  74.067  1.00  0.00    -0.345 C  
ENDBRANCH  26  29
BRANCH  26  31
HETATM   31  C   UNL     1     -10.779   7.108  70.968  1.00  0.00    -0.232 C  
BRANCH  31  32
HETATM   32  C   UNL     1     -11.762   8.231  71.256  1.00  0.00    -0.318 A  
HETATM   33  C   UNL     1     -11.395   9.576  71.039  1.00  0.00    -0.423 A  
HETATM   34  C   UNL     1     -12.230  10.632  71.420  1.00  0.00    -0.405 A  
HETATM   35  C   UNL     1     -13.443  10.369  72.043  1.00  0.00    -0.360 A  
HETATM   36  C   UNL     1     -13.838   9.052  72.252  1.00  0.00    -0.547 A  
HETATM   37  C   UNL     1     -13.014   7.993  71.856  1.00  0.00    -0.312 A  
HETATM   38 CL   UNL     1     -13.599   6.398  72.167  1.00  0.00     0.073 Cl 
ENDBRANCH  31  32
ENDBRANCH  26  31
ENDBRANCH  25  26
ENDBRANCH  24  25
ENDBRANCH  21  24
ENDBRANCH  18  20
ENDBRANCH  15  16
ENDBRANCH  14  15
ENDBRANCH   3  14
ENDBRANCH   2   3
TORSDOF 15
ENDMDL
MODEL      130
REMARK 921   NORMALIZED FREE ENERGY PREDICTED BY IDOCK:   -4.90 KCAL/MOL
REMARK 922        TOTAL FREE ENERGY PREDICTED BY IDOCK:  -11.86 KCAL/MOL
REMARK 923 INTER-LIGAND FREE ENERGY PREDICTED BY IDOCK:   -9.19 KCAL/MOL
REMARK 924 INTRA-LIGAND FREE ENERGY PREDICTED BY IDOCK:   -2.67 KCAL/MOL
REMARK 927      BINDING AFFINITY PREDICTED BY RF-SCORE:    0.00 PKD
ROOT
HETATM    1  C   UNL     1     -10.254  16.276  65.740  1.00  0.00    -0.390 C  
HETATM    2  C   UNL     1      -9.614  14.931  66.053  1.00  0.00    -0.313 C  
ENDROOT
BRANCH   2   3
HETATM    3  N   UNL     1     -10.340  14.073  67.135  1.00  0.00    -0.264 N  
BRANCH   3   4
HETATM    4  C   UNL     1     -10.984  12.819  66.475  1.00  0.00    -0.262 C  
HETATM    5  C   UNL     1     -11.634  13.043  65.134  1.00  0.00    -0.357 C  
ENDBRANCH   3   4
BRANCH   3   6
HETATM    6  C   UNL     1     -11.530  14.857  67.734  1.00  0.00    -0.338 C  
BRANCH   6   7
HETATM    7  C   UNL     1     -11.815  14.903  69.232  1.00  0.00    -0.350 A  
HETATM    8  C   UNL     1     -11.449  16.047  71.376  1.00  0.00    -0.464 A  
HETATM    9  C   UNL     1     -12.524  13.931  69.957  1.00  0.00    -0.325 A  
HETATM   10  C   UNL     1     -11.326  15.994  69.982  1.00  0.00    -0.352 A  
HETATM   11  C   UNL     1     -12.704  14.009  71.339  1.00  0.00    -0.442 A  
HETATM   12 CL   UNL     1     -10.511  17.307  69.203  1.00  0.00    -0.318 Cl 
HETATM   13  C   UNL     1     -12.144  15.053  72.054  1.00  0.00    -0.454 A  
ENDBRANCH   6   7
ENDBRANCH   3   6
BRANCH   3  14
HETATM   14  C   UNL     1      -9.240  13.724  68.218  1.00  0.00    -0.204 C  
BRANCH  14  15
HETATM   15  C   UNL     1      -8.192  12.622  67.835  1.00  0.00    -0.170 C  
BRANCH  15  16
HETATM   16  N   UNL     1      -7.835  11.638  68.847  1.00  0.00    -0.295 N  
HETATM   17  H   UNL     1      -7.980  11.843  69.835  1.00  0.00     0.000 HD 
HETATM   18  C   UNL     1      -7.296  10.416  68.457  1.00  0.00    -0.086 C  
HETATM   19  O   UNL     1      -7.272  10.025  67.302  1.00  0.00    -0.085 OA 
BRANCH  18  20
HETATM   20  C   UNL     1      -6.823   9.512  69.624  1.00  0.00    -0.063 C  
HETATM   21  N   UNL     1      -7.684   9.450  70.721  1.00  0.00    -0.142 N  
HETATM   22  O   UNL     1      -5.771   8.899  69.555  1.00  0.00    -0.033 OA 
HETATM   23  H   UNL     1      -8.379  10.180  70.883  1.00  0.00     0.000 HD 
BRANCH  21  24
HETATM   24  C   UNL     1      -7.565   8.318  71.632  1.00  0.00    -0.096 C  
BRANCH  24  25
HETATM   25  C   UNL     1      -8.905   7.797  72.219  1.00  0.00    -0.134 C  
BRANCH  25  26
HETATM   26  N   UNL     1      -9.366   6.426  71.665  1.00  0.00    -0.145 N  
BRANCH  26  27
HETATM   27  C   UNL     1      -8.280   5.830  70.722  1.00  0.00    -0.123 C  
HETATM   28  C   UNL     1      -7.624   4.548  71.216  1.00  0.00    -0.075 C  
ENDBRANCH  26  27
BRANCH  26  29
HETATM   29  C   UNL     1      -9.639   5.494  72.877  1.00  0.00    -0.147 C  
HETATM   30  C   UNL     1     -11.095   5.124  73.100  1.00  0.00    -0.391 C  
ENDBRANCH  26  29
BRANCH  26  31
HETATM   31  C   UNL     1     -10.681   6.596  70.816  1.00  0.00    -0.238 C  
BRANCH  31  32
HETATM   32  C   UNL     1     -11.039   7.971  70.276  1.00  0.00    -0.224 A  
HETATM   33  C   UNL     1     -10.546   8.399  69.025  1.00  0.00    -0.172 A  
HETATM   34  C   UNL     1     -10.752   9.704  68.566  1.00  0.00    -0.239 A  
HETATM   35  C   UNL     1     -11.438  10.618  69.355  1.00  0.00    -0.356 A  
HETATM   36  C   UNL     1     -11.952  10.218  70.584  1.00  0.00    -0.436 A  
HETATM   37  C   UNL     1     -11.765   8.908  71.038  1.00  0.00    -0.289 A  
HETATM   38 CL   UNL     1     -12.439   8.517  72.579  1.00  0.00    -0.417 Cl 
ENDBRANCH  31  32
ENDBRANCH  26  31
ENDBRANCH  25  26
ENDBRANCH  24  25
ENDBRANCH  21  24
ENDBRANCH  18  20
ENDBRANCH  15  16
ENDBRANCH  14  15
ENDBRANCH   3  14
ENDBRANCH   2   3
TORSDOF 15
ENDMDL
MODEL      131
REMARK 921   NORMALIZED FREE ENERGY PREDICTED BY IDOCK:   -4.88 KCAL/MOL
REMARK 922        TOTAL FREE ENERGY PREDICTED BY IDOCK:  -11.82 KCAL/MOL
REMARK 923 INTER-LIGAND FREE ENERGY PREDICTED BY IDOCK:  -10.18 KCAL/MOL
REMARK 924 INTRA-LIGAND FREE ENERGY PREDICTED BY IDOCK:   -1.64 KCAL/MOL
REMARK 927      BINDING AFFINITY PREDICTED BY RF-SCORE:    0.00 PKD
ROOT
HETATM    1  C   UNL     1     -10.233  11.829  63.661  1.00  0.00    -0.461 C  
HETATM    2  C   UNL     1      -9.928  12.241  65.093  1.00  0.00    -0.215 C  
ENDROOT
BRANCH   2   3
HETATM    3  N   UNL     1     -11.170  12.528  65.993  1.00  0.00    -0.300 N  
BRANCH   3   4
HETATM    4  C   UNL     1     -12.452  12.626  65.115  1.00  0.00    -0.463 C  
HETATM    5  C   UNL     1     -13.126  13.974  65.085  1.00  0.00    -0.107 C  
ENDBRANCH   3   4
BRANCH   3   6
HETATM    6  C   UNL     1     -11.043  13.918  66.659  1.00  0.00    -0.306 C  
BRANCH   6   7
HETATM    7  C   UNL     1      -9.702  14.622  66.846  1.00  0.00    -0.249 A  
HETATM    8  C   UNL     1      -8.207  16.448  66.160  1.00  0.00    -0.250 A  
HETATM    9  C   UNL     1      -8.660  14.179  67.677  1.00  0.00    -0.191 A  
HETATM   10  C   UNL     1      -9.454  15.810  66.127  1.00  0.00    -0.340 A  
HETATM   11  C   UNL     1      -7.435  14.845  67.761  1.00  0.00    -0.179 A  
HETATM   12 CL   UNL     1     -10.684  16.515  65.134  1.00  0.00    -0.340 Cl 
HETATM   13  C   UNL     1      -7.198  15.964  66.984  1.00  0.00    -0.232 A  
ENDBRANCH   6   7
ENDBRANCH   3   6
BRANCH   3  14
HETATM   14  C   UNL     1     -11.216  11.354  67.052  1.00  0.00    -0.283 C  
BRANCH  14  15
HETATM   15  C   UNL     1     -11.816  11.692  68.461  1.00  0.00    -0.292 C  
BRANCH  15  16
HETATM   16  N   UNL     1     -12.090  10.589  69.370  1.00  0.00    -0.538 N  
HETATM   17  H   UNL     1     -11.890   9.630  69.087  1.00  0.00     0.000 HD 
HETATM   18  C   UNL     1     -12.626  10.851  70.627  1.00  0.00    -0.346 C  
HETATM   19  O   UNL     1     -12.711  11.969  71.106  1.00  0.00    -0.364 OA 
BRANCH  18  20
HETATM   20  C   UNL     1     -13.007   9.592  71.446  1.00  0.00    -0.385 C  
HETATM   21  N   UNL     1     -12.430   8.397  71.014  1.00  0.00    -0.488 N  
HETATM   22  O   UNL     1     -13.755   9.672  72.406  1.00  0.00    -0.414 OA 
HETATM   23  H   UNL     1     -12.069   8.304  70.064  1.00  0.00     0.000 HD 
BRANCH  21  24
HETATM   24  C   UNL     1     -12.355   7.284  71.952  1.00  0.00    -0.312 C  
BRANCH  24  25
HETATM   25  C   UNL     1     -11.057   7.220  72.802  1.00  0.00    -0.319 C  
BRANCH  25  26
HETATM   26  N   UNL     1      -9.978   6.249  72.265  1.00  0.00    -0.166 N  
BRANCH  26  27
HETATM   27  C   UNL     1      -8.940   7.020  71.397  1.00  0.00    -0.139 C  
HETATM   28  C   UNL     1      -8.764   8.491  71.749  1.00  0.00    -0.266 C  
ENDBRANCH  26  27
BRANCH  26  29
HETATM   29  C   UNL     1      -9.302   5.569  73.487  1.00  0.00    -0.137 C  
HETATM   30  C   UNL     1      -9.581   4.085  73.645  1.00  0.00    -0.134 C  
ENDBRANCH  26  29
BRANCH  26  31
HETATM   31  C   UNL     1     -10.637   5.156  71.344  1.00  0.00    -0.137 C  
BRANCH  31  32
HETATM   32  C   UNL     1     -10.299   5.135  69.863  1.00  0.00    -0.347 A  
HETATM   33  C   UNL     1     -10.943   6.017  68.970  1.00  0.00    -0.409 A  
HETATM   34  C   UNL     1     -10.747   5.929  67.587  1.00  0.00    -0.352 A  
HETATM   35  C   UNL     1      -9.919   4.945  67.064  1.00  0.00    -0.238 A  
HETATM   36  C   UNL     1      -9.256   4.074  67.923  1.00  0.00    -0.200 A  
HETATM   37  C   UNL     1      -9.434   4.171  69.307  1.00  0.00    -0.188 A  
HETATM   38 CL   UNL     1      -8.569   3.038  70.282  1.00  0.00    -0.099 Cl 
ENDBRANCH  31  32
ENDBRANCH  26  31
ENDBRANCH  25  26
ENDBRANCH  24  25
ENDBRANCH  21  24
ENDBRANCH  18  20
ENDBRANCH  15  16
ENDBRANCH  14  15
ENDBRANCH   3  14
ENDBRANCH   2   3
TORSDOF 15
ENDMDL
MODEL      132
REMARK 921   NORMALIZED FREE ENERGY PREDICTED BY IDOCK:   -4.86 KCAL/MOL
REMARK 922        TOTAL FREE ENERGY PREDICTED BY IDOCK:  -11.78 KCAL/MOL
REMARK 923 INTER-LIGAND FREE ENERGY PREDICTED BY IDOCK:   -9.78 KCAL/MOL
REMARK 924 INTRA-LIGAND FREE ENERGY PREDICTED BY IDOCK:   -2.00 KCAL/MOL
REMARK 927      BINDING AFFINITY PREDICTED BY RF-SCORE:    0.00 PKD
ROOT
HETATM    1  C   UNL     1     -11.926  15.950  69.190  1.00  0.00    -0.268 C  
HETATM    2  C   UNL     1     -11.272  15.548  67.876  1.00  0.00    -0.325 C  
ENDROOT
BRANCH   2   3
HETATM    3  N   UNL     1      -9.917  16.249  67.553  1.00  0.00    -0.244 N  
BRANCH   3   4
HETATM    4  C   UNL     1      -8.739  15.253  67.763  1.00  0.00    -0.165 C  
HETATM    5  C   UNL     1      -9.130  13.830  68.068  1.00  0.00    -0.191 C  
ENDBRANCH   3   4
BRANCH   3   6
HETATM    6  C   UNL     1      -9.649  17.392  68.560  1.00  0.00    -0.298 C  
BRANCH   6   7
HETATM    7  C   UNL     1      -8.522  18.404  68.376  1.00  0.00    -0.345 A  
HETATM    8  C   UNL     1      -7.799  20.549  67.419  1.00  0.00    -0.355 A  
HETATM    9  C   UNL     1      -7.192  18.226  68.793  1.00  0.00    -0.291 A  
HETATM   10  C   UNL     1      -8.804  19.623  67.724  1.00  0.00    -0.322 A  
HETATM   11  C   UNL     1      -6.196  19.173  68.545  1.00  0.00    -0.258 A  
HETATM   12 CL   UNL     1     -10.419  20.010  67.238  1.00  0.00    -0.534 Cl 
HETATM   13  C   UNL     1      -6.492  20.323  67.836  1.00  0.00    -0.299 A  
ENDBRANCH   6   7
ENDBRANCH   3   6
BRANCH   3  14
HETATM   14  C   UNL     1     -10.045  16.773  66.065  1.00  0.00    -0.332 C  
BRANCH  14  15
HETATM   15  C   UNL     1     -10.977  15.958  65.104  1.00  0.00    -0.377 C  
BRANCH  15  16
HETATM   16  N   UNL     1     -10.491  14.681  64.600  1.00  0.00    -0.560 N  
HETATM   17  H   UNL     1      -9.535  14.596  64.257  1.00  0.00     0.000 HD 
HETATM   18  C   UNL     1     -11.339  13.578  64.591  1.00  0.00    -0.356 C  
HETATM   19  O   UNL     1     -12.419  13.550  65.156  1.00  0.00    -0.424 OA 
BRANCH  18  20
HETATM   20  C   UNL     1     -10.758  12.318  63.901  1.00  0.00    -0.420 C  
HETATM   21  N   UNL     1      -9.428  12.024  64.209  1.00  0.00    -0.470 N  
HETATM   22  O   UNL     1     -11.443  11.641  63.153  1.00  0.00    -0.262 OA 
HETATM   23  H   UNL     1      -8.806  12.743  64.578  1.00  0.00     0.000 HD 
BRANCH  21  24
HETATM   24  C   UNL     1      -8.950  10.664  63.991  1.00  0.00    -0.196 C  
BRANCH  24  25
HETATM   25  C   UNL     1      -9.462   9.611  65.010  1.00  0.00    -0.245 C  
BRANCH  25  26
HETATM   26  N   UNL     1      -8.595   9.466  66.284  1.00  0.00    -0.129 N  
BRANCH  26  27
HETATM   27  C   UNL     1      -7.166  10.031  66.033  1.00  0.00    -0.112 C  
HETATM   28  C   UNL     1      -6.797  11.257  66.858  1.00  0.00    -0.134 C  
ENDBRANCH  26  27
BRANCH  26  29
HETATM   29  C   UNL     1      -9.312  10.228  67.434  1.00  0.00    -0.145 C  
HETATM   30  C   UNL     1     -10.799  10.458  67.234  1.00  0.00    -0.324 C  
ENDBRANCH  26  29
BRANCH  26  31
HETATM   31  C   UNL     1      -8.438   7.948  66.668  1.00  0.00    -0.131 C  
BRANCH  31  32
HETATM   32  C   UNL     1      -8.691   7.518  68.103  1.00  0.00    -0.122 A  
HETATM   33  C   UNL     1      -7.716   7.740  69.099  1.00  0.00    -0.101 A  
HETATM   34  C   UNL     1      -7.869   7.238  70.396  1.00  0.00    -0.099 A  
HETATM   35  C   UNL     1      -8.989   6.485  70.722  1.00  0.00    -0.144 A  
HETATM   36  C   UNL     1      -9.975   6.267  69.765  1.00  0.00    -0.204 A  
HETATM   37  C   UNL     1      -9.835   6.784  68.473  1.00  0.00    -0.141 A  
HETATM   38 CL   UNL     1     -11.115   6.450  67.362  1.00  0.00    -0.454 Cl 
ENDBRANCH  31  32
ENDBRANCH  26  31
ENDBRANCH  25  26
ENDBRANCH  24  25
ENDBRANCH  21  24
ENDBRANCH  18  20
ENDBRANCH  15  16
ENDBRANCH  14  15
ENDBRANCH   3  14
ENDBRANCH   2   3
TORSDOF 15
ENDMDL
MODEL      133
REMARK 921   NORMALIZED FREE ENERGY PREDICTED BY IDOCK:   -4.84 KCAL/MOL
REMARK 922        TOTAL FREE ENERGY PREDICTED BY IDOCK:  -11.74 KCAL/MOL
REMARK 923 INTER-LIGAND FREE ENERGY PREDICTED BY IDOCK:   -9.72 KCAL/MOL
REMARK 924 INTRA-LIGAND FREE ENERGY PREDICTED BY IDOCK:   -2.02 KCAL/MOL
REMARK 927      BINDING AFFINITY PREDICTED BY RF-SCORE:    0.00 PKD
ROOT
HETATM    1  C   UNL     1      -7.630  18.954  68.671  1.00  0.00    -0.366 C  
HETATM    2  C   UNL     1      -8.428  17.673  68.478  1.00  0.00    -0.289 C  
ENDROOT
BRANCH   2   3
HETATM    3  N   UNL     1      -9.346  17.632  67.217  1.00  0.00    -0.246 N  
BRANCH   3   4
HETATM    4  C   UNL     1      -9.420  19.044  66.566  1.00  0.00    -0.345 C  
HETATM    5  C   UNL     1     -10.718  19.381  65.878  1.00  0.00    -0.501 C  
ENDBRANCH   3   4
BRANCH   3   6
HETATM    6  C   UNL     1     -10.803  17.309  67.623  1.00  0.00    -0.238 C  
BRANCH   6   7
HETATM    7  C   UNL     1     -11.163  16.147  68.545  1.00  0.00    -0.365 A  
HETATM    8  C   UNL     1     -12.099  13.885  68.757  1.00  0.00    -0.344 A  
HETATM    9  C   UNL     1     -11.075  16.163  69.947  1.00  0.00    -0.357 A  
HETATM   10  C   UNL     1     -11.642  14.950  67.971  1.00  0.00    -0.341 A  
HETATM   11  C   UNL     1     -11.472  15.080  70.734  1.00  0.00    -0.335 A  
HETATM   12 CL   UNL     1     -11.718  14.764  66.252  1.00  0.00    -0.308 Cl 
HETATM   13  C   UNL     1     -12.009  13.951  70.142  1.00  0.00    -0.402 A  
ENDBRANCH   6   7
ENDBRANCH   3   6
BRANCH   3  14
HETATM   14  C   UNL     1      -8.726  16.529  66.268  1.00  0.00    -0.333 C  
BRANCH  14  15
HETATM   15  C   UNL     1      -7.841  15.426  66.945  1.00  0.00    -0.161 C  
BRANCH  15  16
HETATM   16  N   UNL     1      -8.341  14.059  66.954  1.00  0.00    -0.407 N  
HETATM   17  H   UNL     1      -8.639  13.616  66.085  1.00  0.00     0.000 HD 
HETATM   18  C   UNL     1      -8.409  13.359  68.155  1.00  0.00    -0.164 C  
HETATM   19  O   UNL     1      -7.897  13.746  69.193  1.00  0.00     0.024 OA 
BRANCH  18  20
HETATM   20  C   UNL     1      -9.090  11.971  68.061  1.00  0.00    -0.188 C  
HETATM   21  N   UNL     1      -9.178  11.263  69.261  1.00  0.00    -0.388 N  
HETATM   22  O   UNL     1      -9.520  11.555  66.998  1.00  0.00    -0.179 OA 
HETATM   23  H   UNL     1      -8.564  11.483  70.045  1.00  0.00     0.000 HD 
BRANCH  21  24
HETATM   24  C   UNL     1     -10.171  10.200  69.367  1.00  0.00    -0.227 C  
BRANCH  24  25
HETATM   25  C   UNL     1     -10.046   9.300  70.626  1.00  0.00    -0.276 C  
BRANCH  25  26
HETATM   26  N   UNL     1     -10.259   7.789  70.368  1.00  0.00    -0.195 N  
BRANCH  26  27
HETATM   27  C   UNL     1     -11.663   7.345  70.874  1.00  0.00    -0.296 C  
HETATM   28  C   UNL     1     -12.438   8.402  71.650  1.00  0.00    -0.363 C  
ENDBRANCH  26  27
BRANCH  26  29
HETATM   29  C   UNL     1     -10.102   7.543  68.842  1.00  0.00    -0.192 C  
HETATM   30  C   UNL     1     -11.136   6.621  68.220  1.00  0.00    -0.283 C  
ENDBRANCH  26  29
BRANCH  26  31
HETATM   31  C   UNL     1      -9.189   6.945  71.156  1.00  0.00    -0.154 C  
BRANCH  31  32
HETATM   32  C   UNL     1      -9.656   5.798  72.037  1.00  0.00    -0.170 A  
HETATM   33  C   UNL     1      -9.845   4.510  71.493  1.00  0.00    -0.260 A  
HETATM   34  C   UNL     1     -10.398   3.471  72.250  1.00  0.00    -0.125 A  
HETATM   35  C   UNL     1     -10.793   3.700  73.561  1.00  0.00    -0.322 A  
HETATM   36  C   UNL     1     -10.600   4.956  74.129  1.00  0.00    -0.345 A  
HETATM   37  C   UNL     1     -10.029   5.992  73.381  1.00  0.00    -0.182 A  
HETATM   38 CL   UNL     1      -9.839   7.511  74.181  1.00  0.00    -0.099 Cl 
ENDBRANCH  31  32
ENDBRANCH  26  31
ENDBRANCH  25  26
ENDBRANCH  24  25
ENDBRANCH  21  24
ENDBRANCH  18  20
ENDBRANCH  15  16
ENDBRANCH  14  15
ENDBRANCH   3  14
ENDBRANCH   2   3
TORSDOF 15
ENDMDL
MODEL      134
REMARK 921   NORMALIZED FREE ENERGY PREDICTED BY IDOCK:   -4.84 KCAL/MOL
REMARK 922        TOTAL FREE ENERGY PREDICTED BY IDOCK:  -11.74 KCAL/MOL
REMARK 923 INTER-LIGAND FREE ENERGY PREDICTED BY IDOCK:   -9.54 KCAL/MOL
REMARK 924 INTRA-LIGAND FREE ENERGY PREDICTED BY IDOCK:   -2.20 KCAL/MOL
REMARK 927      BINDING AFFINITY PREDICTED BY RF-SCORE:    0.00 PKD
ROOT
HETATM    1  C   UNL     1      -7.821  18.836  68.635  1.00  0.00    -0.361 C  
HETATM    2  C   UNL     1      -8.699  17.593  68.676  1.00  0.00    -0.266 C  
ENDROOT
BRANCH   2   3
HETATM    3  N   UNL     1      -9.213  17.084  67.294  1.00  0.00    -0.219 N  
BRANCH   3   4
HETATM    4  C   UNL     1      -9.228  18.253  66.267  1.00  0.00    -0.203 C  
HETATM    5  C   UNL     1     -10.518  19.027  66.173  1.00  0.00    -0.541 C  
ENDBRANCH   3   4
BRANCH   3   6
HETATM    6  C   UNL     1     -10.690  16.636  67.402  1.00  0.00    -0.253 C  
BRANCH   6   7
HETATM    7  C   UNL     1     -11.127  15.187  67.211  1.00  0.00    -0.332 A  
HETATM    8  C   UNL     1     -11.478  12.978  68.230  1.00  0.00    -0.347 A  
HETATM    9  C   UNL     1     -11.461  14.592  65.983  1.00  0.00    -0.332 A  
HETATM   10  C   UNL     1     -11.196  14.345  68.342  1.00  0.00    -0.273 A  
HETATM   11  C   UNL     1     -11.803  13.243  65.873  1.00  0.00    -0.436 A  
HETATM   12 CL   UNL     1     -10.895  14.970  69.927  1.00  0.00    -0.276 Cl 
HETATM   13  C   UNL     1     -11.786  12.428  66.991  1.00  0.00    -0.368 A  
ENDBRANCH   6   7
ENDBRANCH   3   6
BRANCH   3  14
HETATM   14  C   UNL     1      -8.251  15.896  66.887  1.00  0.00    -0.248 C  
BRANCH  14  15
HETATM   15  C   UNL     1      -7.416  15.233  68.037  1.00  0.00    -0.121 C  
BRANCH  15  16
HETATM   16  N   UNL     1      -7.609  13.813  68.291  1.00  0.00    -0.118 N  
HETATM   17  H   UNL     1      -8.463  13.484  68.742  1.00  0.00     0.000 HD 
HETATM   18  C   UNL     1      -6.623  12.906  67.915  1.00  0.00    -0.125 C  
HETATM   19  O   UNL     1      -5.673  13.196  67.207  1.00  0.00    -0.348 OA 
BRANCH  18  20
HETATM   20  C   UNL     1      -6.877  11.446  68.366  1.00  0.00    -0.068 C  
HETATM   21  N   UNL     1      -7.335  11.293  69.676  1.00  0.00    -0.359 N  
HETATM   22  O   UNL     1      -6.691  10.513  67.602  1.00  0.00    -0.071 OA 
HETATM   23  H   UNL     1      -7.195  12.029  70.368  1.00  0.00     0.000 HD 
BRANCH  21  24
HETATM   24  C   UNL     1      -8.019  10.055  70.031  1.00  0.00    -0.150 C  
BRANCH  24  25
HETATM   25  C   UNL     1      -9.517   9.987  69.628  1.00  0.00    -0.223 C  
BRANCH  25  26
HETATM   26  N   UNL     1     -10.191   8.613  69.866  1.00  0.00    -0.198 N  
BRANCH  26  27
HETATM   27  C   UNL     1     -11.496   8.788  70.698  1.00  0.00    -0.231 C  
HETATM   28  C   UNL     1     -11.900  10.229  70.977  1.00  0.00    -0.472 C  
ENDBRANCH  26  27
BRANCH  26  29
HETATM   29  C   UNL     1     -10.483   7.982  68.477  1.00  0.00    -0.164 C  
HETATM   30  C   UNL     1     -10.463   8.947  67.305  1.00  0.00    -0.348 C  
ENDBRANCH  26  29
BRANCH  26  31
HETATM   31  C   UNL     1      -9.234   7.673  70.689  1.00  0.00    -0.162 C  
BRANCH  31  32
HETATM   32  C   UNL     1      -9.819   6.803  71.789  1.00  0.00    -0.170 A  
HETATM   33  C   UNL     1      -9.857   7.265  73.122  1.00  0.00    -0.281 A  
HETATM   34  C   UNL     1     -10.268   6.436  74.171  1.00  0.00    -0.361 A  
HETATM   35  C   UNL     1     -10.632   5.120  73.916  1.00  0.00    -0.340 A  
HETATM   36  C   UNL     1     -10.622   4.645  72.609  1.00  0.00    -0.259 A  
HETATM   37  C   UNL     1     -10.231   5.476  71.554  1.00  0.00    -0.212 A  
HETATM   38 CL   UNL     1     -10.251   4.784  69.972  1.00  0.00    -0.309 Cl 
ENDBRANCH  31  32
ENDBRANCH  26  31
ENDBRANCH  25  26
ENDBRANCH  24  25
ENDBRANCH  21  24
ENDBRANCH  18  20
ENDBRANCH  15  16
ENDBRANCH  14  15
ENDBRANCH   3  14
ENDBRANCH   2   3
TORSDOF 15
ENDMDL
MODEL      135
REMARK 921   NORMALIZED FREE ENERGY PREDICTED BY IDOCK:   -4.84 KCAL/MOL
REMARK 922        TOTAL FREE ENERGY PREDICTED BY IDOCK:  -11.74 KCAL/MOL
REMARK 923 INTER-LIGAND FREE ENERGY PREDICTED BY IDOCK:   -9.46 KCAL/MOL
REMARK 924 INTRA-LIGAND FREE ENERGY PREDICTED BY IDOCK:   -2.28 KCAL/MOL
REMARK 927      BINDING AFFINITY PREDICTED BY RF-SCORE:    0.00 PKD
ROOT
HETATM    1  C   UNL     1     -10.053   4.318  70.360  1.00  0.00    -0.116 C  
HETATM    2  C   UNL     1      -9.497   5.621  69.805  1.00  0.00    -0.148 C  
ENDROOT
BRANCH   2   3
HETATM    3  N   UNL     1      -8.210   6.159  70.504  1.00  0.00    -0.112 N  
BRANCH   3   4
HETATM    4  C   UNL     1      -7.423   4.981  71.150  1.00  0.00    -0.074 C  
HETATM    5  C   UNL     1      -6.054   4.715  70.579  1.00  0.00    -0.018 C  
ENDBRANCH   3   4
BRANCH   3   6
HETATM    6  C   UNL     1      -8.586   7.078  71.690  1.00  0.00    -0.116 C  
BRANCH   6   7
HETATM    7  C   UNL     1      -9.864   7.910  71.714  1.00  0.00    -0.223 A  
HETATM    8  C   UNL     1     -12.175   8.136  72.520  1.00  0.00    -0.335 A  
HETATM    9  C   UNL     1     -10.088   9.079  70.967  1.00  0.00    -0.352 A  
HETATM   10  C   UNL     1     -10.933   7.488  72.533  1.00  0.00    -0.313 A  
HETATM   11  C   UNL     1     -11.304   9.764  70.996  1.00  0.00    -0.460 A  
HETATM   12 CL   UNL     1     -10.760   6.115  73.572  1.00  0.00    -0.275 Cl 
HETATM   13  C   UNL     1     -12.357   9.279  71.752  1.00  0.00    -0.454 A  
ENDBRANCH   6   7
ENDBRANCH   3   6
BRANCH   3  14
HETATM   14  C   UNL     1      -7.397   6.924  69.383  1.00  0.00    -0.091 C  
BRANCH  14  15
HETATM   15  C   UNL     1      -8.071   7.038  67.972  1.00  0.00    -0.119 C  
BRANCH  15  16
HETATM   16  N   UNL     1      -8.636   8.323  67.587  1.00  0.00    -0.130 N  
HETATM   17  H   UNL     1      -8.059   9.164  67.607  1.00  0.00     0.000 HD 
HETATM   18  C   UNL     1      -9.968   8.398  67.191  1.00  0.00    -0.238 C  
HETATM   19  O   UNL     1     -10.660   7.421  66.958  1.00  0.00    -0.313 OA 
BRANCH  18  20
HETATM   20  C   UNL     1     -10.494   9.834  66.945  1.00  0.00    -0.211 C  
HETATM   21  N   UNL     1      -9.760  10.594  66.033  1.00  0.00    -0.199 N  
HETATM   22  O   UNL     1     -11.491  10.242  67.517  1.00  0.00    -0.323 OA 
HETATM   23  H   UNL     1      -8.794  10.353  65.809  1.00  0.00     0.000 HD 
BRANCH  21  24
HETATM   24  C   UNL     1     -10.407  11.741  65.407  1.00  0.00    -0.268 C  
BRANCH  24  25
HETATM   25  C   UNL     1      -9.780  13.121  65.744  1.00  0.00    -0.138 C  
BRANCH  25  26
HETATM   26  N   UNL     1     -10.656  14.030  66.640  1.00  0.00    -0.273 N  
BRANCH  26  27
HETATM   27  C   UNL     1     -10.535  15.515  66.188  1.00  0.00    -0.313 C  
HETATM   28  C   UNL     1      -9.113  16.016  65.975  1.00  0.00    -0.361 C  
ENDBRANCH  26  27
BRANCH  26  29
HETATM   29  C   UNL     1     -12.121  13.524  66.540  1.00  0.00    -0.408 C  
HETATM   30  C   UNL     1     -12.906  14.034  65.344  1.00  0.00    -0.442 C  
ENDBRANCH  26  29
BRANCH  26  31
HETATM   31  C   UNL     1     -10.167  13.954  68.135  1.00  0.00    -0.249 C  
BRANCH  31  32
HETATM   32  C   UNL     1     -11.176  14.158  69.253  1.00  0.00    -0.308 A  
HETATM   33  C   UNL     1     -11.854  13.056  69.814  1.00  0.00    -0.381 A  
HETATM   34  C   UNL     1     -12.880  13.228  70.750  1.00  0.00    -0.194 A  
HETATM   35  C   UNL     1     -13.265  14.506  71.132  1.00  0.00    -0.423 A  
HETATM   36  C   UNL     1     -12.600  15.611  70.609  1.00  0.00    -0.461 A  
HETATM   37  C   UNL     1     -11.561  15.442  69.687  1.00  0.00    -0.331 A  
HETATM   38 CL   UNL     1     -10.807  16.879  69.097  1.00  0.00    -0.289 Cl 
ENDBRANCH  31  32
ENDBRANCH  26  31
ENDBRANCH  25  26
ENDBRANCH  24  25
ENDBRANCH  21  24
ENDBRANCH  18  20
ENDBRANCH  15  16
ENDBRANCH  14  15
ENDBRANCH   3  14
ENDBRANCH   2   3
TORSDOF 15
ENDMDL
MODEL      136
REMARK 921   NORMALIZED FREE ENERGY PREDICTED BY IDOCK:   -4.82 KCAL/MOL
REMARK 922        TOTAL FREE ENERGY PREDICTED BY IDOCK:  -11.70 KCAL/MOL
REMARK 923 INTER-LIGAND FREE ENERGY PREDICTED BY IDOCK:  -10.39 KCAL/MOL
REMARK 924 INTRA-LIGAND FREE ENERGY PREDICTED BY IDOCK:   -1.31 KCAL/MOL
REMARK 927      BINDING AFFINITY PREDICTED BY RF-SCORE:    0.00 PKD
ROOT
HETATM    1  C   UNL     1     -10.786  16.615  67.999  1.00  0.00    -0.337 C  
HETATM    2  C   UNL     1     -10.791  15.296  68.759  1.00  0.00    -0.254 C  
ENDROOT
BRANCH   2   3
HETATM    3  N   UNL     1     -10.429  14.032  67.920  1.00  0.00    -0.238 N  
BRANCH   3   4
HETATM    4  C   UNL     1      -9.011  13.522  68.310  1.00  0.00    -0.180 C  
HETATM    5  C   UNL     1      -8.802  12.032  68.222  1.00  0.00    -0.182 C  
ENDBRANCH   3   4
BRANCH   3   6
HETATM    6  C   UNL     1     -10.317  14.395  66.421  1.00  0.00    -0.287 C  
BRANCH   6   7
HETATM    7  C   UNL     1     -10.671  13.413  65.307  1.00  0.00    -0.321 A  
HETATM    8  C   UNL     1     -12.130  12.879  63.403  1.00  0.00    -0.610 A  
HETATM    9  C   UNL     1     -10.090  12.148  65.123  1.00  0.00    -0.288 A  
HETATM   10  C   UNL     1     -11.672  13.772  64.380  1.00  0.00    -0.408 A  
HETATM   11  C   UNL     1     -10.499  11.276  64.112  1.00  0.00    -0.431 A  
HETATM   12 CL   UNL     1     -12.409  15.337  64.438  1.00  0.00    -0.311 Cl 
HETATM   13  C   UNL     1     -11.537  11.630  63.267  1.00  0.00    -0.246 A  
ENDBRANCH   6   7
ENDBRANCH   3   6
BRANCH   3  14
HETATM   14  C   UNL     1     -11.578  12.982  68.203  1.00  0.00    -0.341 C  
BRANCH  14  15
HETATM   15  C   UNL     1     -11.946  12.720  69.705  1.00  0.00    -0.288 C  
BRANCH  15  16
HETATM   16  N   UNL     1     -12.069  11.339  70.147  1.00  0.00    -0.345 N  
HETATM   17  H   UNL     1     -11.616  10.590  69.623  1.00  0.00     0.000 HD 
HETATM   18  C   UNL     1     -12.809  11.045  71.289  1.00  0.00    -0.425 C  
HETATM   19  O   UNL     1     -13.213  11.892  72.067  1.00  0.00    -0.495 OA 
BRANCH  18  20
HETATM   20  C   UNL     1     -12.987   9.534  71.577  1.00  0.00    -0.386 C  
HETATM   21  N   UNL     1     -12.408   8.672  70.643  1.00  0.00    -0.482 N  
HETATM   22  O   UNL     1     -13.589   9.152  72.566  1.00  0.00    -0.470 OA 
HETATM   23  H   UNL     1     -12.186   8.995  69.701  1.00  0.00     0.000 HD 
BRANCH  21  24
HETATM   24  C   UNL     1     -12.129   7.300  71.047  1.00  0.00    -0.324 C  
BRANCH  24  25
HETATM   25  C   UNL     1     -10.623   6.927  71.129  1.00  0.00    -0.222 C  
BRANCH  25  26
HETATM   26  N   UNL     1      -9.939   6.689  69.760  1.00  0.00    -0.171 N  
BRANCH  26  27
HETATM   27  C   UNL     1     -10.944   6.050  68.756  1.00  0.00    -0.312 C  
HETATM   28  C   UNL     1     -10.958   6.672  67.367  1.00  0.00    -0.434 C  
ENDBRANCH  26  27
BRANCH  26  29
HETATM   29  C   UNL     1      -9.419   8.060  69.247  1.00  0.00    -0.155 C  
HETATM   30  C   UNL     1      -8.894   9.000  70.317  1.00  0.00    -0.210 C  
ENDBRANCH  26  29
BRANCH  26  31
HETATM   31  C   UNL     1      -8.736   5.687  69.919  1.00  0.00    -0.125 C  
BRANCH  31  32
HETATM   32  C   UNL     1      -8.906   4.248  69.462  1.00  0.00    -0.138 A  
HETATM   33  C   UNL     1      -8.743   3.906  68.103  1.00  0.00    -0.124 A  
HETATM   34  C   UNL     1      -9.023   2.617  67.636  1.00  0.00    -0.194 A  
HETATM   35  C   UNL     1      -9.490   1.646  68.512  1.00  0.00    -0.234 A  
HETATM   36  C   UNL     1      -9.642   1.951  69.861  1.00  0.00    -0.056 A  
HETATM   37  C   UNL     1      -9.345   3.233  70.335  1.00  0.00    -0.167 A  
HETATM   38 CL   UNL     1      -9.572   3.507  72.026  1.00  0.00    -0.199 Cl 
ENDBRANCH  31  32
ENDBRANCH  26  31
ENDBRANCH  25  26
ENDBRANCH  24  25
ENDBRANCH  21  24
ENDBRANCH  18  20
ENDBRANCH  15  16
ENDBRANCH  14  15
ENDBRANCH   3  14
ENDBRANCH   2   3
TORSDOF 15
ENDMDL
MODEL      137
REMARK 921   NORMALIZED FREE ENERGY PREDICTED BY IDOCK:   -4.81 KCAL/MOL
REMARK 922        TOTAL FREE ENERGY PREDICTED BY IDOCK:  -11.69 KCAL/MOL
REMARK 923 INTER-LIGAND FREE ENERGY PREDICTED BY IDOCK:   -9.87 KCAL/MOL
REMARK 924 INTRA-LIGAND FREE ENERGY PREDICTED BY IDOCK:   -1.82 KCAL/MOL
REMARK 927      BINDING AFFINITY PREDICTED BY RF-SCORE:    0.00 PKD
ROOT
HETATM    1  C   UNL     1     -12.294  14.673  64.434  1.00  0.00    -0.420 C  
HETATM    2  C   UNL     1     -11.987  14.471  65.911  1.00  0.00    -0.309 C  
ENDROOT
BRANCH   2   3
HETATM    3  N   UNL     1     -10.576  14.942  66.379  1.00  0.00    -0.299 N  
BRANCH   3   4
HETATM    4  C   UNL     1     -10.569  15.154  67.921  1.00  0.00    -0.257 C  
HETATM    5  C   UNL     1     -11.851  14.809  68.636  1.00  0.00    -0.334 C  
ENDBRANCH   3   4
BRANCH   3   6
HETATM    6  C   UNL     1     -10.251  16.335  65.790  1.00  0.00    -0.367 C  
BRANCH   6   7
HETATM    7  C   UNL     1      -9.901  17.537  66.662  1.00  0.00    -0.308 A  
HETATM    8  C   UNL     1      -8.194  18.708  67.987  1.00  0.00    -0.294 A  
HETATM    9  C   UNL     1     -10.807  18.516  67.101  1.00  0.00    -0.304 A  
HETATM   10  C   UNL     1      -8.566  17.697  67.093  1.00  0.00    -0.227 A  
HETATM   11  C   UNL     1     -10.429  19.563  67.943  1.00  0.00    -0.552 A  
HETATM   12 CL   UNL     1      -7.330  16.612  66.555  1.00  0.00    -0.293 Cl 
HETATM   13  C   UNL     1      -9.129  19.646  68.408  1.00  0.00    -0.386 A  
ENDBRANCH   6   7
ENDBRANCH   3   6
BRANCH   3  14
HETATM   14  C   UNL     1      -9.564  13.829  65.888  1.00  0.00    -0.128 C  
BRANCH  14  15
HETATM   15  C   UNL     1     -10.098  12.356  65.843  1.00  0.00    -0.253 C  
BRANCH  15  16
HETATM   16  N   UNL     1      -9.904  11.522  67.020  1.00  0.00    -0.190 N  
HETATM   17  H   UNL     1      -8.963  11.265  67.317  1.00  0.00     0.000 HD 
HETATM   18  C   UNL     1     -11.011  11.079  67.739  1.00  0.00    -0.269 C  
HETATM   19  O   UNL     1     -12.143  11.497  67.563  1.00  0.00    -0.614 OA 
BRANCH  18  20
HETATM   20  C   UNL     1     -10.687  10.084  68.881  1.00  0.00    -0.219 C  
HETATM   21  N   UNL     1      -9.437   9.467  68.804  1.00  0.00    -0.148 N  
HETATM   22  O   UNL     1     -11.486   9.883  69.781  1.00  0.00    -0.221 OA 
HETATM   23  H   UNL     1      -8.933   9.417  67.919  1.00  0.00     0.000 HD 
BRANCH  21  24
HETATM   24  C   UNL     1      -8.871   8.895  70.020  1.00  0.00    -0.160 C  
BRANCH  24  25
HETATM   25  C   UNL     1      -8.942   7.347  70.119  1.00  0.00    -0.148 C  
BRANCH  25  26
HETATM   26  N   UNL     1      -9.896   6.810  71.214  1.00  0.00    -0.177 N  
BRANCH  26  27
HETATM   27  C   UNL     1     -10.359   7.970  72.145  1.00  0.00    -0.254 C  
HETATM   28  C   UNL     1     -11.778   7.845  72.681  1.00  0.00    -0.398 C  
ENDBRANCH  26  27
BRANCH  26  29
HETATM   29  C   UNL     1     -11.102   6.139  70.502  1.00  0.00    -0.337 C  
HETATM   30  C   UNL     1     -11.038   6.124  68.985  1.00  0.00    -0.437 C  
ENDBRANCH  26  29
BRANCH  26  31
HETATM   31  C   UNL     1      -9.153   5.755  72.115  1.00  0.00    -0.143 C  
BRANCH  31  32
HETATM   32  C   UNL     1      -9.834   4.430  72.414  1.00  0.00    -0.224 A  
HETATM   33  C   UNL     1     -10.634   4.280  73.566  1.00  0.00    -0.291 A  
HETATM   34  C   UNL     1     -11.162   3.037  73.932  1.00  0.00    -0.170 A  
HETATM   35  C   UNL     1     -10.887   1.912  73.168  1.00  0.00    -0.253 A  
HETATM   36  C   UNL     1     -10.117   2.034  72.016  1.00  0.00    -0.226 A  
HETATM   37  C   UNL     1      -9.602   3.278  71.635  1.00  0.00    -0.160 A  
HETATM   38 CL   UNL     1      -8.655   3.317  70.191  1.00  0.00    -0.097 Cl 
ENDBRANCH  31  32
ENDBRANCH  26  31
ENDBRANCH  25  26
ENDBRANCH  24  25
ENDBRANCH  21  24
ENDBRANCH  18  20
ENDBRANCH  15  16
ENDBRANCH  14  15
ENDBRANCH   3  14
ENDBRANCH   2   3
TORSDOF 15
ENDMDL
MODEL      138
REMARK 921   NORMALIZED FREE ENERGY PREDICTED BY IDOCK:   -4.81 KCAL/MOL
REMARK 922        TOTAL FREE ENERGY PREDICTED BY IDOCK:  -11.69 KCAL/MOL
REMARK 923 INTER-LIGAND FREE ENERGY PREDICTED BY IDOCK:  -10.40 KCAL/MOL
REMARK 924 INTRA-LIGAND FREE ENERGY PREDICTED BY IDOCK:   -1.29 KCAL/MOL
REMARK 927      BINDING AFFINITY PREDICTED BY RF-SCORE:    0.00 PKD
ROOT
HETATM    1  C   UNL     1     -10.212   6.499  67.277  1.00  0.00    -0.242 C  
HETATM    2  C   UNL     1      -9.630   7.676  68.045  1.00  0.00    -0.145 C  
ENDROOT
BRANCH   2   3
HETATM    3  N   UNL     1      -9.932   7.702  69.575  1.00  0.00    -0.179 N  
BRANCH   3   4
HETATM    4  C   UNL     1      -8.647   7.350  70.378  1.00  0.00    -0.144 C  
HETATM    5  C   UNL     1      -8.258   8.330  71.457  1.00  0.00    -0.164 C  
ENDBRANCH   3   4
BRANCH   3   6
HETATM    6  C   UNL     1     -10.942   6.589  69.942  1.00  0.00    -0.335 C  
BRANCH   6   7
HETATM    7  C   UNL     1     -10.733   5.644  71.122  1.00  0.00    -0.310 A  
HETATM    8  C   UNL     1     -10.888   5.296  73.550  1.00  0.00    -0.358 A  
HETATM    9  C   UNL     1     -10.135   4.375  71.052  1.00  0.00    -0.195 A  
HETATM   10  C   UNL     1     -11.150   6.059  72.404  1.00  0.00    -0.277 A  
HETATM   11  C   UNL     1      -9.927   3.582  72.182  1.00  0.00    -0.234 A  
HETATM   12 CL   UNL     1     -11.979   7.562  72.620  1.00  0.00    -0.212 Cl 
HETATM   13  C   UNL     1     -10.279   4.052  73.435  1.00  0.00    -0.215 A  
ENDBRANCH   6   7
ENDBRANCH   3   6
BRANCH   3  14
HETATM   14  C   UNL     1     -10.493   9.150  69.880  1.00  0.00    -0.223 C  
BRANCH  14  15
HETATM   15  C   UNL     1     -10.081  10.293  68.889  1.00  0.00    -0.204 C  
BRANCH  15  16
HETATM   16  N   UNL     1     -10.343  11.669  69.286  1.00  0.00    -0.431 N  
HETATM   17  H   UNL     1      -9.720  12.141  69.942  1.00  0.00     0.000 HD 
HETATM   18  C   UNL     1     -11.448  12.336  68.767  1.00  0.00    -0.311 C  
HETATM   19  O   UNL     1     -12.121  11.912  67.843  1.00  0.00    -0.558 OA 
BRANCH  18  20
HETATM   20  C   UNL     1     -11.703  13.740  69.371  1.00  0.00    -0.325 C  
HETATM   21  N   UNL     1     -10.925  14.772  68.843  1.00  0.00    -0.243 N  
HETATM   22  O   UNL     1     -12.542  13.904  70.242  1.00  0.00    -0.328 OA 
HETATM   23  H   UNL     1     -10.052  14.571  68.356  1.00  0.00     0.000 HD 
BRANCH  21  24
HETATM   24  C   UNL     1     -11.392  16.143  69.004  1.00  0.00    -0.340 C  
BRANCH  24  25
HETATM   25  C   UNL     1     -10.288  17.232  68.929  1.00  0.00    -0.352 C  
BRANCH  25  26
HETATM   26  N   UNL     1      -9.988  17.756  67.504  1.00  0.00    -0.311 N  
BRANCH  26  27
HETATM   27  C   UNL     1     -10.513  16.752  66.436  1.00  0.00    -0.269 C  
HETATM   28  C   UNL     1      -9.463  15.815  65.853  1.00  0.00    -0.377 C  
ENDBRANCH  26  27
BRANCH  26  29
HETATM   29  C   UNL     1     -10.668  19.146  67.358  1.00  0.00    -0.481 C  
HETATM   30  C   UNL     1     -10.641  19.741  65.961  1.00  0.00    -0.573 C  
ENDBRANCH  26  29
BRANCH  26  31
HETATM   31  C   UNL     1      -8.435  17.898  67.291  1.00  0.00    -0.236 C  
BRANCH  31  32
HETATM   32  C   UNL     1      -7.560  18.294  68.468  1.00  0.00    -0.313 A  
HETATM   33  C   UNL     1      -7.403  19.651  68.818  1.00  0.00    -0.371 A  
HETATM   34  C   UNL     1      -6.503  20.050  69.812  1.00  0.00    -0.370 A  
HETATM   35  C   UNL     1      -5.725  19.104  70.465  1.00  0.00    -0.226 A  
HETATM   36  C   UNL     1      -5.873  17.757  70.154  1.00  0.00    -0.189 A  
HETATM   37  C   UNL     1      -6.786  17.352  69.174  1.00  0.00    -0.243 A  
HETATM   38 CL   UNL     1      -6.887  15.656  68.862  1.00  0.00    -0.119 Cl 
ENDBRANCH  31  32
ENDBRANCH  26  31
ENDBRANCH  25  26
ENDBRANCH  24  25
ENDBRANCH  21  24
ENDBRANCH  18  20
ENDBRANCH  15  16
ENDBRANCH  14  15
ENDBRANCH   3  14
ENDBRANCH   2   3
TORSDOF 15
ENDMDL
MODEL      139
REMARK 921   NORMALIZED FREE ENERGY PREDICTED BY IDOCK:   -4.78 KCAL/MOL
REMARK 922        TOTAL FREE ENERGY PREDICTED BY IDOCK:  -11.63 KCAL/MOL
REMARK 923 INTER-LIGAND FREE ENERGY PREDICTED BY IDOCK:  -10.17 KCAL/MOL
REMARK 924 INTRA-LIGAND FREE ENERGY PREDICTED BY IDOCK:   -1.46 KCAL/MOL
REMARK 927      BINDING AFFINITY PREDICTED BY RF-SCORE:    0.00 PKD
ROOT
HETATM    1  C   UNL     1      -7.910   9.906  69.953  1.00  0.00    -0.182 C  
HETATM    2  C   UNL     1      -8.612   8.591  70.263  1.00  0.00    -0.137 C  
ENDROOT
BRANCH   2   3
HETATM    3  N   UNL     1     -10.157   8.680  70.459  1.00  0.00    -0.190 N  
BRANCH   3   4
HETATM    4  C   UNL     1     -10.665  10.095  70.057  1.00  0.00    -0.305 C  
HETATM    5  C   UNL     1     -11.928  10.557  70.737  1.00  0.00    -0.472 C  
ENDBRANCH   3   4
BRANCH   3   6
HETATM    6  C   UNL     1     -10.518   8.544  71.957  1.00  0.00    -0.336 C  
BRANCH   6   7
HETATM    7  C   UNL     1     -10.649   7.193  72.653  1.00  0.00    -0.290 A  
HETATM    8  C   UNL     1      -9.716   5.597  74.272  1.00  0.00    -0.189 A  
HETATM    9  C   UNL     1     -11.617   6.218  72.361  1.00  0.00    -0.325 A  
HETATM   10  C   UNL     1      -9.728   6.861  73.669  1.00  0.00    -0.235 A  
HETATM   11  C   UNL     1     -11.648   4.978  73.002  1.00  0.00    -0.299 A  
HETATM   12 CL   UNL     1      -8.539   8.005  74.190  1.00  0.00    -0.306 Cl 
HETATM   13  C   UNL     1     -10.683   4.656  73.939  1.00  0.00    -0.360 A  
ENDBRANCH   6   7
ENDBRANCH   3   6
BRANCH   3  14
HETATM   14  C   UNL     1     -10.771   7.514  69.583  1.00  0.00    -0.230 C  
BRANCH  14  15
HETATM   15  C   UNL     1     -10.405   7.505  68.058  1.00  0.00    -0.204 C  
BRANCH  15  16
HETATM   16  N   UNL     1     -10.804   8.650  67.253  1.00  0.00    -0.434 N  
HETATM   17  H   UNL     1     -11.775   8.962  67.250  1.00  0.00     0.000 HD 
HETATM   18  C   UNL     1      -9.852   9.318  66.488  1.00  0.00    -0.263 C  
HETATM   19  O   UNL     1      -8.652   9.129  66.587  1.00  0.00    -0.124 OA 
BRANCH  18  20
HETATM   20  C   UNL     1     -10.421  10.426  65.566  1.00  0.00    -0.122 C  
HETATM   21  N   UNL     1     -11.068  11.477  66.218  1.00  0.00    -0.292 N  
HETATM   22  O   UNL     1     -10.286  10.363  64.355  1.00  0.00    -0.304 OA 
HETATM   23  H   UNL     1     -11.425  11.362  67.167  1.00  0.00     0.000 HD 
BRANCH  21  24
HETATM   24  C   UNL     1     -11.222  12.742  65.510  1.00  0.00    -0.294 C  
BRANCH  24  25
HETATM   25  C   UNL     1      -9.970  13.661  65.517  1.00  0.00    -0.224 C  
BRANCH  25  26
HETATM   26  N   UNL     1     -10.047  14.856  66.499  1.00  0.00    -0.262 N  
BRANCH  26  27
HETATM   27  C   UNL     1     -11.478  14.968  67.103  1.00  0.00    -0.297 C  
HETATM   28  C   UNL     1     -11.580  14.664  68.592  1.00  0.00    -0.343 C  
ENDBRANCH  26  27
BRANCH  26  29
HETATM   29  C   UNL     1      -8.980  14.629  67.605  1.00  0.00    -0.187 C  
HETATM   30  C   UNL     1      -8.099  13.406  67.421  1.00  0.00    -0.178 C  
ENDBRANCH  26  29
BRANCH  26  31
HETATM   31  C   UNL     1      -9.752  16.203  65.741  1.00  0.00    -0.290 C  
BRANCH  31  32
HETATM   32  C   UNL     1      -9.549  17.475  66.547  1.00  0.00    -0.295 A  
HETATM   33  C   UNL     1     -10.659  18.216  67.006  1.00  0.00    -0.346 A  
HETATM   34  C   UNL     1     -10.500  19.456  67.634  1.00  0.00    -0.573 A  
HETATM   35  C   UNL     1      -9.231  19.993  67.801  1.00  0.00    -0.435 A  
HETATM   36  C   UNL     1      -8.118  19.276  67.375  1.00  0.00    -0.306 A  
HETATM   37  C   UNL     1      -8.271  18.027  66.763  1.00  0.00    -0.251 A  
HETATM   38 CL   UNL     1      -6.824  17.224  66.268  1.00  0.00    -0.293 Cl 
ENDBRANCH  31  32
ENDBRANCH  26  31
ENDBRANCH  25  26
ENDBRANCH  24  25
ENDBRANCH  21  24
ENDBRANCH  18  20
ENDBRANCH  15  16
ENDBRANCH  14  15
ENDBRANCH   3  14
ENDBRANCH   2   3
TORSDOF 15
ENDMDL
MODEL      140
REMARK 921   NORMALIZED FREE ENERGY PREDICTED BY IDOCK:   -4.78 KCAL/MOL
REMARK 922        TOTAL FREE ENERGY PREDICTED BY IDOCK:  -11.63 KCAL/MOL
REMARK 923 INTER-LIGAND FREE ENERGY PREDICTED BY IDOCK:   -9.47 KCAL/MOL
REMARK 924 INTRA-LIGAND FREE ENERGY PREDICTED BY IDOCK:   -2.15 KCAL/MOL
REMARK 927      BINDING AFFINITY PREDICTED BY RF-SCORE:    0.00 PKD
ROOT
HETATM    1  C   UNL     1      -7.288  18.688  65.687  1.00  0.00    -0.096 C  
HETATM    2  C   UNL     1      -8.114  17.493  66.138  1.00  0.00    -0.209 C  
ENDROOT
BRANCH   2   3
HETATM    3  N   UNL     1      -9.148  17.775  67.271  1.00  0.00    -0.243 N  
BRANCH   3   4
HETATM    4  C   UNL     1      -8.895  19.184  67.884  1.00  0.00    -0.304 C  
HETATM    5  C   UNL     1      -9.887  19.634  68.927  1.00  0.00    -0.498 C  
ENDBRANCH   3   4
BRANCH   3   6
HETATM    6  C   UNL     1      -8.940  16.793  68.447  1.00  0.00    -0.233 C  
BRANCH   6   7
HETATM    7  C   UNL     1     -10.012  15.803  68.893  1.00  0.00    -0.223 A  
HETATM    8  C   UNL     1     -10.975  13.553  68.671  1.00  0.00    -0.289 A  
HETATM    9  C   UNL     1     -11.078  16.093  69.761  1.00  0.00    -0.350 A  
HETATM   10  C   UNL     1      -9.964  14.482  68.398  1.00  0.00    -0.241 A  
HETATM   11  C   UNL     1     -12.056  15.152  70.086  1.00  0.00    -0.384 A  
HETATM   12 CL   UNL     1      -8.656  13.965  67.390  1.00  0.00    -0.192 Cl 
HETATM   13  C   UNL     1     -12.021  13.890  69.522  1.00  0.00    -0.396 A  
ENDBRANCH   6   7
ENDBRANCH   3   6
BRANCH   3  14
HETATM   14  C   UNL     1     -10.574  17.623  66.603  1.00  0.00    -0.211 C  
BRANCH  14  15
HETATM   15  C   UNL     1     -10.617  17.040  65.148  1.00  0.00    -0.015 C  
BRANCH  15  16
HETATM   16  N   UNL     1     -10.553  15.594  64.989  1.00  0.00    -0.427 N  
HETATM   17  H   UNL     1      -9.754  15.073  65.351  1.00  0.00     0.000 HD 
HETATM   18  C   UNL     1     -11.588  14.927  64.341  1.00  0.00    -0.288 C  
HETATM   19  O   UNL     1     -12.653  15.447  64.056  1.00  0.00    -0.704 OA 
BRANCH  18  20
HETATM   20  C   UNL     1     -11.340  13.416  64.106  1.00  0.00    -0.364 C  
HETATM   21  N   UNL     1     -10.249  12.873  64.787  1.00  0.00    -0.457 N  
HETATM   22  O   UNL     1     -12.073  12.767  63.378  1.00  0.00    -0.523 OA 
HETATM   23  H   UNL     1      -9.498  13.471  65.132  1.00  0.00     0.000 HD 
BRANCH  21  24
HETATM   24  C   UNL     1     -10.210  11.430  64.994  1.00  0.00    -0.281 C  
BRANCH  24  25
HETATM   25  C   UNL     1      -8.816  10.852  65.360  1.00  0.00    -0.180 C  
BRANCH  25  26
HETATM   26  N   UNL     1      -8.846   9.442  66.000  1.00  0.00    -0.148 N  
BRANCH  26  27
HETATM   27  C   UNL     1      -8.595   8.351  64.917  1.00  0.00    -0.080 C  
HETATM   28  C   UNL     1      -7.143   8.174  64.497  1.00  0.00    -0.077 C  
ENDBRANCH  26  27
BRANCH  26  29
HETATM   29  C   UNL     1      -7.758   9.402  67.108  1.00  0.00    -0.091 C  
HETATM   30  C   UNL     1      -6.733  10.520  67.056  1.00  0.00    -0.082 C  
ENDBRANCH  26  29
BRANCH  26  31
HETATM   31  C   UNL     1     -10.260   9.160  66.630  1.00  0.00    -0.258 C  
BRANCH  31  32
HETATM   32  C   UNL     1     -10.366   8.908  68.125  1.00  0.00    -0.261 A  
HETATM   33  C   UNL     1     -10.537   9.983  69.022  1.00  0.00    -0.235 A  
HETATM   34  C   UNL     1     -10.505   9.791  70.407  1.00  0.00    -0.358 A  
HETATM   35  C   UNL     1     -10.282   8.524  70.928  1.00  0.00    -0.246 A  
HETATM   36  C   UNL     1     -10.130   7.442  70.067  1.00  0.00    -0.191 A  
HETATM   37  C   UNL     1     -10.180   7.626  68.681  1.00  0.00    -0.199 A  
HETATM   38 CL   UNL     1      -9.975   6.218  67.703  1.00  0.00    -0.136 Cl 
ENDBRANCH  31  32
ENDBRANCH  26  31
ENDBRANCH  25  26
ENDBRANCH  24  25
ENDBRANCH  21  24
ENDBRANCH  18  20
ENDBRANCH  15  16
ENDBRANCH  14  15
ENDBRANCH   3  14
ENDBRANCH   2   3
TORSDOF 15
ENDMDL
MODEL      141
REMARK 921   NORMALIZED FREE ENERGY PREDICTED BY IDOCK:   -4.78 KCAL/MOL
REMARK 922        TOTAL FREE ENERGY PREDICTED BY IDOCK:  -11.62 KCAL/MOL
REMARK 923 INTER-LIGAND FREE ENERGY PREDICTED BY IDOCK:   -9.76 KCAL/MOL
REMARK 924 INTRA-LIGAND FREE ENERGY PREDICTED BY IDOCK:   -1.87 KCAL/MOL
REMARK 927      BINDING AFFINITY PREDICTED BY RF-SCORE:    0.00 PKD
ROOT
HETATM    1  C   UNL     1      -8.221  19.204  68.913  1.00  0.00    -0.330 C  
HETATM    2  C   UNL     1      -8.658  17.815  68.472  1.00  0.00    -0.291 C  
ENDROOT
BRANCH   2   3
HETATM    3  N   UNL     1      -9.100  17.687  66.982  1.00  0.00    -0.244 N  
BRANCH   3   4
HETATM    4  C   UNL     1      -9.109  19.089  66.306  1.00  0.00    -0.287 C  
HETATM    5  C   UNL     1     -10.470  19.684  66.048  1.00  0.00    -0.622 C  
ENDBRANCH   3   4
BRANCH   3   6
HETATM    6  C   UNL     1     -10.565  17.199  66.894  1.00  0.00    -0.209 C  
BRANCH   6   7
HETATM    7  C   UNL     1     -10.943  15.815  66.375  1.00  0.00    -0.159 A  
HETATM    8  C   UNL     1     -11.651  13.524  66.909  1.00  0.00    -0.398 A  
HETATM    9  C   UNL     1     -10.866  15.400  65.035  1.00  0.00    -0.462 A  
HETATM   10  C   UNL     1     -11.396  14.846  67.294  1.00  0.00    -0.349 A  
HETATM   11  C   UNL     1     -11.178  14.100  64.635  1.00  0.00    -0.371 A  
HETATM   12 CL   UNL     1     -11.621  15.249  68.962  1.00  0.00    -0.337 Cl 
HETATM   13  C   UNL     1     -11.546  13.153  65.574  1.00  0.00    -0.365 A  
ENDBRANCH   6   7
ENDBRANCH   3   6
BRANCH   3  14
HETATM   14  C   UNL     1      -8.085  16.671  66.317  1.00  0.00    -0.326 C  
BRANCH  14  15
HETATM   15  C   UNL     1      -7.474  15.567  67.248  1.00  0.00    -0.223 C  
BRANCH  15  16
HETATM   16  N   UNL     1      -7.835  14.180  66.992  1.00  0.00    -0.358 N  
HETATM   17  H   UNL     1      -8.683  13.959  66.470  1.00  0.00     0.000 HD 
HETATM   18  C   UNL     1      -7.016  13.158  67.462  1.00  0.00    -0.149 C  
HETATM   19  O   UNL     1      -5.901  13.342  67.920  1.00  0.00    -0.114 OA 
BRANCH  18  20
HETATM   20  C   UNL     1      -7.576  11.729  67.254  1.00  0.00    -0.150 C  
HETATM   21  N   UNL     1      -7.030  10.744  68.079  1.00  0.00    -0.072 N  
HETATM   22  O   UNL     1      -8.444  11.511  66.426  1.00  0.00    -0.175 OA 
HETATM   23  H   UNL     1      -6.126  10.882  68.531  1.00  0.00     0.000 HD 
BRANCH  21  24
HETATM   24  C   UNL     1      -7.783   9.512  68.280  1.00  0.00    -0.086 C  
BRANCH  24  25
HETATM   25  C   UNL     1      -8.161   9.199  69.753  1.00  0.00    -0.128 C  
BRANCH  25  26
HETATM   26  N   UNL     1      -9.091   7.975  69.938  1.00  0.00    -0.145 N  
BRANCH  26  27
HETATM   27  C   UNL     1      -8.614   6.792  69.044  1.00  0.00    -0.131 C  
HETATM   28  C   UNL     1      -8.608   5.428  69.720  1.00  0.00    -0.100 C  
ENDBRANCH  26  27
BRANCH  26  29
HETATM   29  C   UNL     1      -9.073   7.591  71.444  1.00  0.00    -0.137 C  
HETATM   30  C   UNL     1      -8.050   8.325  72.292  1.00  0.00    -0.203 C  
ENDBRANCH  26  29
BRANCH  26  31
HETATM   31  C   UNL     1     -10.558   8.333  69.497  1.00  0.00    -0.213 C  
BRANCH  31  32
HETATM   32  C   UNL     1     -11.428   9.161  70.427  1.00  0.00    -0.228 A  
HETATM   33  C   UNL     1     -12.233   8.534  71.402  1.00  0.00    -0.343 A  
HETATM   34  C   UNL     1     -13.139   9.261  72.181  1.00  0.00    -0.520 A  
HETATM   35  C   UNL     1     -13.277  10.629  71.990  1.00  0.00    -0.473 A  
HETATM   36  C   UNL     1     -12.483  11.277  71.049  1.00  0.00    -0.503 A  
HETATM   37  C   UNL     1     -11.562  10.557  70.282  1.00  0.00    -0.332 A  
HETATM   38 CL   UNL     1     -10.630  11.457  69.140  1.00  0.00    -0.224 Cl 
ENDBRANCH  31  32
ENDBRANCH  26  31
ENDBRANCH  25  26
ENDBRANCH  24  25
ENDBRANCH  21  24
ENDBRANCH  18  20
ENDBRANCH  15  16
ENDBRANCH  14  15
ENDBRANCH   3  14
ENDBRANCH   2   3
TORSDOF 15
ENDMDL
MODEL      142
REMARK 921   NORMALIZED FREE ENERGY PREDICTED BY IDOCK:   -4.76 KCAL/MOL
REMARK 922        TOTAL FREE ENERGY PREDICTED BY IDOCK:  -11.59 KCAL/MOL
REMARK 923 INTER-LIGAND FREE ENERGY PREDICTED BY IDOCK:   -9.78 KCAL/MOL
REMARK 924 INTRA-LIGAND FREE ENERGY PREDICTED BY IDOCK:   -1.81 KCAL/MOL
REMARK 927      BINDING AFFINITY PREDICTED BY RF-SCORE:    0.00 PKD
ROOT
HETATM    1  C   UNL     1      -8.092  14.657  67.231  1.00  0.00    -0.230 C  
HETATM    2  C   UNL     1      -9.343  14.867  68.070  1.00  0.00    -0.193 C  
ENDROOT
BRANCH   2   3
HETATM    3  N   UNL     1     -10.502  15.644  67.373  1.00  0.00    -0.284 N  
BRANCH   3   4
HETATM    4  C   UNL     1     -10.561  17.105  67.906  1.00  0.00    -0.376 C  
HETATM    5  C   UNL     1      -9.272  17.884  67.827  1.00  0.00    -0.258 C  
ENDBRANCH   3   4
BRANCH   3   6
HETATM    6  C   UNL     1     -11.869  15.031  67.757  1.00  0.00    -0.204 C  
BRANCH   6   7
HETATM    7  C   UNL     1     -11.997  13.788  68.634  1.00  0.00    -0.401 A  
HETATM    8  C   UNL     1     -12.337  12.869  70.888  1.00  0.00    -0.365 A  
HETATM    9  C   UNL     1     -11.809  12.465  68.203  1.00  0.00    -0.372 A  
HETATM   10  C   UNL     1     -12.315  13.951  69.999  1.00  0.00    -0.316 A  
HETATM   11  C   UNL     1     -11.889  11.375  69.072  1.00  0.00    -0.415 A  
HETATM   12 CL   UNL     1     -12.660  15.520  70.644  1.00  0.00    -0.481 Cl 
HETATM   13  C   UNL     1     -12.127  11.578  70.419  1.00  0.00    -0.471 A  
ENDBRANCH   6   7
ENDBRANCH   3   6
BRANCH   3  14
HETATM   14  C   UNL     1     -10.214  15.548  65.820  1.00  0.00    -0.366 C  
BRANCH  14  15
HETATM   15  C   UNL     1     -10.981  14.437  65.023  1.00  0.00    -0.389 C  
BRANCH  15  16
HETATM   16  N   UNL     1     -10.524  13.061  65.156  1.00  0.00    -0.310 N  
HETATM   17  H   UNL     1     -10.126  12.736  66.038  1.00  0.00     0.000 HD 
HETATM   18  C   UNL     1     -10.633  12.192  64.075  1.00  0.00    -0.389 C  
HETATM   19  O   UNL     1     -11.266  12.447  63.064  1.00  0.00    -0.272 OA 
BRANCH  18  20
HETATM   20  C   UNL     1      -9.984  10.802  64.290  1.00  0.00    -0.341 C  
HETATM   21  N   UNL     1      -9.870  10.392  65.620  1.00  0.00    -0.242 N  
HETATM   22  O   UNL     1      -9.617  10.128  63.342  1.00  0.00    -0.296 OA 
HETATM   23  H   UNL     1      -9.899  11.070  66.381  1.00  0.00     0.000 HD 
BRANCH  21  24
HETATM   24  C   UNL     1      -9.710   8.969  65.895  1.00  0.00    -0.236 C  
BRANCH  24  25
HETATM   25  C   UNL     1     -10.339   8.476  67.226  1.00  0.00    -0.302 C  
BRANCH  25  26
HETATM   26  N   UNL     1      -9.683   7.208  67.824  1.00  0.00    -0.135 N  
BRANCH  26  27
HETATM   27  C   UNL     1      -8.262   6.999  67.222  1.00  0.00    -0.119 C  
HETATM   28  C   UNL     1      -7.134   6.895  68.239  1.00  0.00    -0.086 C  
ENDBRANCH  26  27
BRANCH  26  29
HETATM   29  C   UNL     1      -9.624   7.388  69.366  1.00  0.00    -0.155 C  
HETATM   30  C   UNL     1     -10.918   7.840  70.019  1.00  0.00    -0.218 C  
ENDBRANCH  26  29
BRANCH  26  31
HETATM   31  C   UNL     1     -10.535   5.934  67.467  1.00  0.00    -0.243 C  
BRANCH  31  32
HETATM   32  C   UNL     1      -9.819   4.631  67.153  1.00  0.00    -0.227 A  
HETATM   33  C   UNL     1      -9.548   4.268  65.817  1.00  0.00    -0.189 A  
HETATM   34  C   UNL     1      -9.011   3.017  65.494  1.00  0.00    -0.145 A  
HETATM   35  C   UNL     1      -8.750   2.092  66.497  1.00  0.00    -0.125 A  
HETATM   36  C   UNL     1      -8.991   2.431  67.825  1.00  0.00    -0.190 A  
HETATM   37  C   UNL     1      -9.510   3.688  68.153  1.00  0.00    -0.156 A  
HETATM   38 CL   UNL     1      -9.774   4.003  69.831  1.00  0.00    -0.280 Cl 
ENDBRANCH  31  32
ENDBRANCH  26  31
ENDBRANCH  25  26
ENDBRANCH  24  25
ENDBRANCH  21  24
ENDBRANCH  18  20
ENDBRANCH  15  16
ENDBRANCH  14  15
ENDBRANCH   3  14
ENDBRANCH   2   3
TORSDOF 15
ENDMDL
MODEL      143
REMARK 921   NORMALIZED FREE ENERGY PREDICTED BY IDOCK:   -4.75 KCAL/MOL
REMARK 922        TOTAL FREE ENERGY PREDICTED BY IDOCK:  -11.58 KCAL/MOL
REMARK 923 INTER-LIGAND FREE ENERGY PREDICTED BY IDOCK:  -10.18 KCAL/MOL
REMARK 924 INTRA-LIGAND FREE ENERGY PREDICTED BY IDOCK:   -1.41 KCAL/MOL
REMARK 927      BINDING AFFINITY PREDICTED BY RF-SCORE:    0.00 PKD
ROOT
HETATM    1  C   UNL     1     -13.028   9.325  71.388  1.00  0.00    -0.394 C  
HETATM    2  C   UNL     1     -12.432   7.928  71.478  1.00  0.00    -0.318 C  
ENDROOT
BRANCH   2   3
HETATM    3  N   UNL     1     -10.890   7.865  71.709  1.00  0.00    -0.230 N  
BRANCH   3   4
HETATM    4  C   UNL     1     -10.248   6.830  70.738  1.00  0.00    -0.195 C  
HETATM    5  C   UNL     1     -11.201   6.123  69.809  1.00  0.00    -0.494 C  
ENDBRANCH   3   4
BRANCH   3   6
HETATM    6  C   UNL     1     -10.579   7.321  73.123  1.00  0.00    -0.355 C  
BRANCH   6   7
HETATM    7  C   UNL     1     -10.320   5.843  73.399  1.00  0.00    -0.246 A  
HETATM    8  C   UNL     1      -8.687   4.098  73.969  1.00  0.00    -0.096 A  
HETATM    9  C   UNL     1     -11.265   4.813  73.267  1.00  0.00    -0.421 A  
HETATM   10  C   UNL     1      -9.029   5.446  73.808  1.00  0.00    -0.124 A  
HETATM   11  C   UNL     1     -10.946   3.471  73.485  1.00  0.00    -0.330 A  
HETATM   12 CL   UNL     1      -7.793   6.623  74.096  1.00  0.00    -0.106 Cl 
HETATM   13  C   UNL     1      -9.651   3.109  73.810  1.00  0.00    -0.123 A  
ENDBRANCH   6   7
ENDBRANCH   3   6
BRANCH   3  14
HETATM   14  C   UNL     1     -10.361   9.341  71.500  1.00  0.00    -0.294 C  
BRANCH  14  15
HETATM   15  C   UNL     1      -9.584   9.635  70.170  1.00  0.00    -0.254 C  
BRANCH  15  16
HETATM   16  N   UNL     1     -10.127  10.642  69.270  1.00  0.00    -0.281 N  
HETATM   17  H   UNL     1      -9.961  11.632  69.448  1.00  0.00     0.000 HD 
HETATM   18  C   UNL     1     -10.874  10.245  68.164  1.00  0.00    -0.265 C  
HETATM   19  O   UNL     1     -10.952   9.090  67.780  1.00  0.00    -0.141 OA 
BRANCH  18  20
HETATM   20  C   UNL     1     -11.517  11.405  67.364  1.00  0.00    -0.251 C  
HETATM   21  N   UNL     1     -11.895  12.517  68.118  1.00  0.00    -0.341 N  
HETATM   22  O   UNL     1     -11.660  11.328  66.155  1.00  0.00    -0.213 OA 
HETATM   23  H   UNL     1     -12.044  12.440  69.125  1.00  0.00     0.000 HD 
BRANCH  21  24
HETATM   24  C   UNL     1     -12.073  13.791  67.433  1.00  0.00    -0.343 C  
BRANCH  24  25
HETATM   25  C   UNL     1     -10.776  14.420  66.856  1.00  0.00    -0.292 C  
BRANCH  25  26
HETATM   26  N   UNL     1      -9.969  15.279  67.860  1.00  0.00    -0.227 N  
BRANCH  26  27
HETATM   27  C   UNL     1     -10.930  16.149  68.722  1.00  0.00    -0.330 C  
HETATM   28  C   UNL     1     -10.928  15.838  70.212  1.00  0.00    -0.368 C  
ENDBRANCH  26  27
BRANCH  26  29
HETATM   29  C   UNL     1      -9.132  14.313  68.743  1.00  0.00    -0.103 C  
HETATM   30  C   UNL     1      -7.646  14.615  68.813  1.00  0.00    -0.138 C  
ENDBRANCH  26  29
BRANCH  26  31
HETATM   31  C   UNL     1      -9.011  16.261  67.089  1.00  0.00    -0.195 C  
BRANCH  31  32
HETATM   32  C   UNL     1      -9.245  17.759  67.198  1.00  0.00    -0.253 A  
HETATM   33  C   UNL     1     -10.275  18.378  66.459  1.00  0.00    -0.423 A  
HETATM   34  C   UNL     1     -10.427  19.768  66.440  1.00  0.00    -0.618 A  
HETATM   35  C   UNL     1      -9.542  20.574  67.143  1.00  0.00    -0.570 A  
HETATM   36  C   UNL     1      -8.528  19.990  67.896  1.00  0.00    -0.301 A  
HETATM   37  C   UNL     1      -8.385  18.598  67.933  1.00  0.00    -0.272 A  
HETATM   38 CL   UNL     1      -7.091  17.978  68.895  1.00  0.00    -0.271 Cl 
ENDBRANCH  31  32
ENDBRANCH  26  31
ENDBRANCH  25  26
ENDBRANCH  24  25
ENDBRANCH  21  24
ENDBRANCH  18  20
ENDBRANCH  15  16
ENDBRANCH  14  15
ENDBRANCH   3  14
ENDBRANCH   2   3
TORSDOF 15
ENDMDL
MODEL      144
REMARK 921   NORMALIZED FREE ENERGY PREDICTED BY IDOCK:   -4.75 KCAL/MOL
REMARK 922        TOTAL FREE ENERGY PREDICTED BY IDOCK:  -11.58 KCAL/MOL
REMARK 923 INTER-LIGAND FREE ENERGY PREDICTED BY IDOCK:  -10.22 KCAL/MOL
REMARK 924 INTRA-LIGAND FREE ENERGY PREDICTED BY IDOCK:   -1.36 KCAL/MOL
REMARK 927      BINDING AFFINITY PREDICTED BY RF-SCORE:    0.00 PKD
ROOT
HETATM    1  C   UNL     1      -9.607   8.118  73.124  1.00  0.00    -0.307 C  
HETATM    2  C   UNL     1      -9.897   8.251  71.636  1.00  0.00    -0.199 C  
ENDROOT
BRANCH   2   3
HETATM    3  N   UNL     1     -11.405   8.228  71.237  1.00  0.00    -0.259 N  
BRANCH   3   4
HETATM    4  C   UNL     1     -12.282   8.675  72.443  1.00  0.00    -0.349 C  
HETATM    5  C   UNL     1     -13.764   8.764  72.179  1.00  0.00    -0.498 C  
ENDBRANCH   3   4
BRANCH   3   6
HETATM    6  C   UNL     1     -11.860   6.780  70.936  1.00  0.00    -0.385 C  
BRANCH   6   7
HETATM    7  C   UNL     1     -10.877   5.623  70.787  1.00  0.00    -0.294 A  
HETATM    8  C   UNL     1      -9.590   4.180  69.270  1.00  0.00    -0.256 A  
HETATM    9  C   UNL     1     -10.399   4.821  71.837  1.00  0.00    -0.242 A  
HETATM   10  C   UNL     1     -10.402   5.298  69.499  1.00  0.00    -0.263 A  
HETATM   11  C   UNL     1      -9.540   3.742  71.623  1.00  0.00    -0.227 A  
HETATM   12 CL   UNL     1     -10.841   6.258  68.128  1.00  0.00    -0.363 Cl 
HETATM   13  C   UNL     1      -9.155   3.404  70.338  1.00  0.00    -0.193 A  
ENDBRANCH   6   7
ENDBRANCH   3   6
BRANCH   3  14
HETATM   14  C   UNL     1     -11.533   9.175  69.976  1.00  0.00    -0.013 C  
BRANCH  14  15
HETATM   15  C   UNL     1     -11.224  10.696  70.197  1.00  0.00    -0.302 C  
BRANCH  15  16
HETATM   16  N   UNL     1     -10.426  11.385  69.194  1.00  0.00    -0.368 N  
HETATM   17  H   UNL     1      -9.424  11.514  69.335  1.00  0.00     0.000 HD 
HETATM   18  C   UNL     1     -11.037  11.865  68.039  1.00  0.00    -0.240 C  
HETATM   19  O   UNL     1     -12.178  11.583  67.711  1.00  0.00    -0.560 OA 
BRANCH  18  20
HETATM   20  C   UNL     1     -10.116  12.702  67.117  1.00  0.00    -0.223 C  
HETATM   21  N   UNL     1     -10.695  13.851  66.575  1.00  0.00    -0.277 N  
HETATM   22  O   UNL     1      -8.964  12.362  66.906  1.00  0.00    -0.202 OA 
HETATM   23  H   UNL     1     -11.708  13.950  66.517  1.00  0.00     0.000 HD 
BRANCH  21  24
HETATM   24  C   UNL     1      -9.814  14.909  66.092  1.00  0.00    -0.308 C  
BRANCH  24  25
HETATM   25  C   UNL     1      -8.998  15.643  67.190  1.00  0.00    -0.214 C  
BRANCH  25  26
HETATM   26  N   UNL     1      -9.019  17.188  67.089  1.00  0.00    -0.223 N  
BRANCH  26  27
HETATM   27  C   UNL     1     -10.031  17.646  65.997  1.00  0.00    -0.209 C  
HETATM   28  C   UNL     1     -10.536  19.075  66.137  1.00  0.00    -0.541 C  
ENDBRANCH  26  27
BRANCH  26  29
HETATM   29  C   UNL     1      -9.403  17.748  68.487  1.00  0.00    -0.295 C  
HETATM   30  C   UNL     1     -10.476  16.971  69.229  1.00  0.00    -0.293 C  
ENDBRANCH  26  29
BRANCH  26  31
HETATM   31  C   UNL     1      -7.601  17.727  66.670  1.00  0.00    -0.236 C  
BRANCH  31  32
HETATM   32  C   UNL     1      -7.002  18.898  67.429  1.00  0.00    -0.214 A  
HETATM   33  C   UNL     1      -7.144  20.215  66.942  1.00  0.00    -0.275 A  
HETATM   34  C   UNL     1      -6.491  21.293  67.550  1.00  0.00    -0.391 A  
HETATM   35  C   UNL     1      -5.667  21.079  68.646  1.00  0.00    -0.360 A  
HETATM   36  C   UNL     1      -5.524  19.794  69.158  1.00  0.00    -0.232 A  
HETATM   37  C   UNL     1      -6.189  18.715  68.566  1.00  0.00    -0.214 A  
HETATM   38 CL   UNL     1      -5.939  17.162  69.279  1.00  0.00    -0.194 Cl 
ENDBRANCH  31  32
ENDBRANCH  26  31
ENDBRANCH  25  26
ENDBRANCH  24  25
ENDBRANCH  21  24
ENDBRANCH  18  20
ENDBRANCH  15  16
ENDBRANCH  14  15
ENDBRANCH   3  14
ENDBRANCH   2   3
TORSDOF 15
ENDMDL
MODEL      145
REMARK 921   NORMALIZED FREE ENERGY PREDICTED BY IDOCK:   -4.74 KCAL/MOL
REMARK 922        TOTAL FREE ENERGY PREDICTED BY IDOCK:  -11.56 KCAL/MOL
REMARK 923 INTER-LIGAND FREE ENERGY PREDICTED BY IDOCK:   -9.97 KCAL/MOL
REMARK 924 INTRA-LIGAND FREE ENERGY PREDICTED BY IDOCK:   -1.59 KCAL/MOL
REMARK 927      BINDING AFFINITY PREDICTED BY RF-SCORE:    0.00 PKD
ROOT
HETATM    1  C   UNL     1     -10.607  18.142  67.350  1.00  0.00    -0.406 C  
HETATM    2  C   UNL     1     -10.302  17.439  68.665  1.00  0.00    -0.364 C  
ENDROOT
BRANCH   2   3
HETATM    3  N   UNL     1     -10.518  15.894  68.671  1.00  0.00    -0.231 N  
BRANCH   3   4
HETATM    4  C   UNL     1      -9.232  15.175  68.171  1.00  0.00    -0.184 C  
HETATM    5  C   UNL     1      -8.082  15.131  69.146  1.00  0.00    -0.214 C  
ENDBRANCH   3   4
BRANCH   3   6
HETATM    6  C   UNL     1     -11.611  15.499  67.651  1.00  0.00    -0.142 C  
BRANCH   6   7
HETATM    7  C   UNL     1     -11.488  14.279  66.743  1.00  0.00    -0.380 A  
HETATM    8  C   UNL     1     -11.326  13.412  64.449  1.00  0.00    -0.419 A  
HETATM    9  C   UNL     1     -11.531  12.941  67.168  1.00  0.00    -0.388 A  
HETATM   10  C   UNL     1     -11.331  14.480  65.355  1.00  0.00    -0.341 A  
HETATM   11  C   UNL     1     -11.465  11.870  66.275  1.00  0.00    -0.367 A  
HETATM   12 CL   UNL     1     -11.175  16.077  64.707  1.00  0.00    -0.414 Cl 
HETATM   13  C   UNL     1     -11.389  12.103  64.913  1.00  0.00    -0.378 A  
ENDBRANCH   6   7
ENDBRANCH   3   6
BRANCH   3  14
HETATM   14  C   UNL     1     -10.915  15.520  70.157  1.00  0.00    -0.321 C  
BRANCH  14  15
HETATM   15  C   UNL     1     -12.233  14.694  70.352  1.00  0.00    -0.329 C  
BRANCH  15  16
HETATM   16  N   UNL     1     -12.114  13.264  70.595  1.00  0.00    -0.496 N  
HETATM   17  H   UNL     1     -11.425  12.712  70.083  1.00  0.00     0.000 HD 
HETATM   18  C   UNL     1     -12.945  12.653  71.530  1.00  0.00    -0.282 C  
HETATM   19  O   UNL     1     -13.650  13.269  72.311  1.00  0.00    -0.536 OA 
BRANCH  18  20
HETATM   20  C   UNL     1     -12.824  11.110  71.597  1.00  0.00    -0.419 C  
HETATM   21  N   UNL     1     -11.753  10.560  70.890  1.00  0.00    -0.347 N  
HETATM   22  O   UNL     1     -13.620  10.447  72.241  1.00  0.00    -0.299 OA 
HETATM   23  H   UNL     1     -11.301  11.080  70.138  1.00  0.00     0.000 HD 
BRANCH  21  24
HETATM   24  C   UNL     1     -11.297   9.224  71.252  1.00  0.00    -0.353 C  
BRANCH  24  25
HETATM   25  C   UNL     1     -10.577   8.440  70.121  1.00  0.00    -0.233 C  
BRANCH  25  26
HETATM   26  N   UNL     1     -10.088   7.027  70.520  1.00  0.00    -0.191 N  
BRANCH  26  27
HETATM   27  C   UNL     1     -10.860   5.940  69.716  1.00  0.00    -0.377 C  
HETATM   28  C   UNL     1      -9.993   4.853  69.094  1.00  0.00    -0.252 C  
ENDBRANCH  26  27
BRANCH  26  29
HETATM   29  C   UNL     1      -8.561   6.959  70.245  1.00  0.00    -0.140 C  
HETATM   30  C   UNL     1      -7.907   8.276  69.867  1.00  0.00    -0.102 C  
ENDBRANCH  26  29
BRANCH  26  31
HETATM   31  C   UNL     1     -10.367   6.765  72.047  1.00  0.00    -0.196 C  
BRANCH  31  32
HETATM   32  C   UNL     1      -9.256   6.196  72.914  1.00  0.00    -0.134 A  
HETATM   33  C   UNL     1      -8.270   7.044  73.461  1.00  0.00    -0.132 A  
HETATM   34  C   UNL     1      -7.166   6.530  74.151  1.00  0.00    -0.088 A  
HETATM   35  C   UNL     1      -7.012   5.158  74.293  1.00  0.00    -0.078 A  
HETATM   36  C   UNL     1      -7.979   4.300  73.779  1.00  0.00    -0.089 A  
HETATM   37  C   UNL     1      -9.094   4.810  73.106  1.00  0.00    -0.116 A  
HETATM   38 CL   UNL     1     -10.231   3.657  72.505  1.00  0.00    -0.238 Cl 
ENDBRANCH  31  32
ENDBRANCH  26  31
ENDBRANCH  25  26
ENDBRANCH  24  25
ENDBRANCH  21  24
ENDBRANCH  18  20
ENDBRANCH  15  16
ENDBRANCH  14  15
ENDBRANCH   3  14
ENDBRANCH   2   3
TORSDOF 15
ENDMDL
MODEL      146
REMARK 921   NORMALIZED FREE ENERGY PREDICTED BY IDOCK:   -4.74 KCAL/MOL
REMARK 922        TOTAL FREE ENERGY PREDICTED BY IDOCK:  -11.55 KCAL/MOL
REMARK 923 INTER-LIGAND FREE ENERGY PREDICTED BY IDOCK:   -9.27 KCAL/MOL
REMARK 924 INTRA-LIGAND FREE ENERGY PREDICTED BY IDOCK:   -2.28 KCAL/MOL
REMARK 927      BINDING AFFINITY PREDICTED BY RF-SCORE:    0.00 PKD
ROOT
HETATM    1  C   UNL     1     -10.659  15.837  65.324  1.00  0.00    -0.446 C  
HETATM    2  C   UNL     1     -10.303  14.388  65.023  1.00  0.00    -0.421 C  
ENDROOT
BRANCH   2   3
HETATM    3  N   UNL     1     -10.994  13.321  65.927  1.00  0.00    -0.274 N  
BRANCH   3   4
HETATM    4  C   UNL     1     -12.304  12.819  65.252  1.00  0.00    -0.488 C  
HETATM    5  C   UNL     1     -12.401  13.039  63.764  1.00  0.00    -0.477 C  
ENDBRANCH   3   4
BRANCH   3   6
HETATM    6  C   UNL     1     -11.458  13.961  67.257  1.00  0.00    -0.344 C  
BRANCH   6   7
HETATM    7  C   UNL     1     -11.844  13.133  68.479  1.00  0.00    -0.377 A  
HETATM    8  C   UNL     1     -12.385  13.105  70.876  1.00  0.00    -0.393 A  
HETATM    9  C   UNL     1     -11.925  11.731  68.519  1.00  0.00    -0.279 A  
HETATM   10  C   UNL     1     -12.135  13.801  69.686  1.00  0.00    -0.336 A  
HETATM   11  C   UNL     1     -12.233  11.032  69.688  1.00  0.00    -0.370 A  
HETATM   12 CL   UNL     1     -12.159  15.530  69.755  1.00  0.00    -0.384 Cl 
HETATM   13  C   UNL     1     -12.438  11.716  70.873  1.00  0.00    -0.440 A  
ENDBRANCH   6   7
ENDBRANCH   3   6
BRANCH   3  14
HETATM   14  C   UNL     1      -9.919  12.181  66.149  1.00  0.00    -0.233 C  
BRANCH  14  15
HETATM   15  C   UNL     1      -9.913  11.002  65.116  1.00  0.00    -0.278 C  
BRANCH  15  16
HETATM   16  N   UNL     1     -10.114   9.651  65.620  1.00  0.00    -0.307 N  
HETATM   17  H   UNL     1     -11.058   9.290  65.759  1.00  0.00     0.000 HD 
HETATM   18  C   UNL     1      -9.010   8.854  65.910  1.00  0.00    -0.200 C  
HETATM   19  O   UNL     1      -7.868   9.139  65.592  1.00  0.00    -0.093 OA 
BRANCH  18  20
HETATM   20  C   UNL     1      -9.347   7.495  66.573  1.00  0.00    -0.181 C  
HETATM   21  N   UNL     1      -8.252   6.772  67.051  1.00  0.00    -0.112 N  
HETATM   22  O   UNL     1     -10.501   7.113  66.667  1.00  0.00    -0.235 OA 
HETATM   23  H   UNL     1      -7.311   6.956  66.702  1.00  0.00     0.000 HD 
BRANCH  21  24
HETATM   24  C   UNL     1      -8.486   5.747  68.061  1.00  0.00    -0.106 C  
BRANCH  24  25
HETATM   25  C   UNL     1      -8.027   6.117  69.498  1.00  0.00    -0.107 C  
BRANCH  25  26
HETATM   26  N   UNL     1      -9.134   6.024  70.576  1.00  0.00    -0.148 N  
BRANCH  26  27
HETATM   27  C   UNL     1     -10.485   5.599  69.930  1.00  0.00    -0.308 C  
HETATM   28  C   UNL     1     -11.645   6.557  70.160  1.00  0.00    -0.466 C  
ENDBRANCH  26  27
BRANCH  26  29
HETATM   29  C   UNL     1      -8.668   4.997  71.645  1.00  0.00    -0.132 C  
HETATM   30  C   UNL     1      -9.751   4.080  72.184  1.00  0.00    -0.221 C  
ENDBRANCH  26  29
BRANCH  26  31
HETATM   31  C   UNL     1      -9.358   7.429  71.249  1.00  0.00    -0.153 C  
BRANCH  31  32
HETATM   32  C   UNL     1      -8.623   8.639  70.697  1.00  0.00    -0.183 A  
HETATM   33  C   UNL     1      -9.201   9.424  69.677  1.00  0.00    -0.195 A  
HETATM   34  C   UNL     1      -8.491  10.460  69.062  1.00  0.00    -0.155 A  
HETATM   35  C   UNL     1      -7.181  10.725  69.437  1.00  0.00    -0.132 A  
HETATM   36  C   UNL     1      -6.593   9.979  70.454  1.00  0.00    -0.132 A  
HETATM   37  C   UNL     1      -7.305   8.954  71.085  1.00  0.00    -0.105 A  
HETATM   38 CL   UNL     1      -6.479   8.088  72.331  1.00  0.00    -0.063 Cl 
ENDBRANCH  31  32
ENDBRANCH  26  31
ENDBRANCH  25  26
ENDBRANCH  24  25
ENDBRANCH  21  24
ENDBRANCH  18  20
ENDBRANCH  15  16
ENDBRANCH  14  15
ENDBRANCH   3  14
ENDBRANCH   2   3
TORSDOF 15
ENDMDL
MODEL      147
REMARK 921   NORMALIZED FREE ENERGY PREDICTED BY IDOCK:   -4.73 KCAL/MOL
REMARK 922        TOTAL FREE ENERGY PREDICTED BY IDOCK:  -11.54 KCAL/MOL
REMARK 923 INTER-LIGAND FREE ENERGY PREDICTED BY IDOCK:  -10.09 KCAL/MOL
REMARK 924 INTRA-LIGAND FREE ENERGY PREDICTED BY IDOCK:   -1.45 KCAL/MOL
REMARK 927      BINDING AFFINITY PREDICTED BY RF-SCORE:    0.00 PKD
ROOT
HETATM    1  C   UNL     1     -13.278   9.585  72.046  1.00  0.00    -0.539 C  
HETATM    2  C   UNL     1     -12.611   8.486  71.232  1.00  0.00    -0.226 C  
ENDROOT
BRANCH   2   3
HETATM    3  N   UNL     1     -11.236   8.858  70.594  1.00  0.00    -0.262 N  
BRANCH   3   4
HETATM    4  C   UNL     1     -10.668   7.641  69.807  1.00  0.00    -0.240 C  
HETATM    5  C   UNL     1     -11.402   6.337  69.995  1.00  0.00    -0.486 C  
ENDBRANCH   3   4
BRANCH   3   6
HETATM    6  C   UNL     1     -10.188   9.135  71.697  1.00  0.00    -0.301 C  
BRANCH   6   7
HETATM    7  C   UNL     1      -9.728   8.065  72.683  1.00  0.00    -0.332 A  
HETATM    8  C   UNL     1      -7.872   6.704  73.545  1.00  0.00    -0.095 A  
HETATM    9  C   UNL     1     -10.565   7.335  73.542  1.00  0.00    -0.408 A  
HETATM   10  C   UNL     1      -8.354   7.751  72.749  1.00  0.00    -0.136 A  
HETATM   11  C   UNL     1     -10.083   6.331  74.383  1.00  0.00    -0.355 A  
HETATM   12 CL   UNL     1      -7.200   8.635  71.810  1.00  0.00    -0.113 Cl 
HETATM   13  C   UNL     1      -8.741   5.996  74.367  1.00  0.00    -0.121 A  
ENDBRANCH   6   7
ENDBRANCH   3   6
BRANCH   3  14
HETATM   14  C   UNL     1     -11.509  10.126  69.688  1.00  0.00    -0.198 C  
BRANCH  14  15
HETATM   15  C   UNL     1     -10.873  10.124  68.255  1.00  0.00    -0.252 C  
BRANCH  15  16
HETATM   16  N   UNL     1     -10.815  11.386  67.531  1.00  0.00    -0.228 N  
HETATM   17  H   UNL     1     -10.935  12.269  68.029  1.00  0.00     0.000 HD 
HETATM   18  C   UNL     1     -10.596  11.381  66.157  1.00  0.00    -0.265 C  
HETATM   19  O   UNL     1     -10.256  10.392  65.530  1.00  0.00    -0.278 OA 
BRANCH  18  20
HETATM   20  C   UNL     1     -10.699  12.770  65.478  1.00  0.00    -0.278 C  
HETATM   21  N   UNL     1     -11.386  13.744  66.205  1.00  0.00    -0.308 N  
HETATM   22  O   UNL     1     -10.195  12.972  64.386  1.00  0.00    -0.372 OA 
HETATM   23  H   UNL     1     -12.038  13.483  66.944  1.00  0.00     0.000 HD 
BRANCH  21  24
HETATM   24  C   UNL     1     -11.148  15.146  65.881  1.00  0.00    -0.319 C  
BRANCH  24  25
HETATM   25  C   UNL     1      -9.865  15.761  66.504  1.00  0.00    -0.269 C  
BRANCH  25  26
HETATM   26  N   UNL     1      -9.886  15.879  68.048  1.00  0.00    -0.217 N  
BRANCH  26  27
HETATM   27  C   UNL     1     -11.347  16.051  68.558  1.00  0.00    -0.382 C  
HETATM   28  C   UNL     1     -11.717  15.204  69.767  1.00  0.00    -0.347 C  
ENDBRANCH  26  27
BRANCH  26  29
HETATM   29  C   UNL     1      -9.230  14.597  68.629  1.00  0.00    -0.194 C  
HETATM   30  C   UNL     1      -7.809  14.765  69.139  1.00  0.00    -0.141 C  
ENDBRANCH  26  29
BRANCH  26  31
HETATM   31  C   UNL     1      -9.077  17.148  68.508  1.00  0.00    -0.265 C  
BRANCH  31  32
HETATM   32  C   UNL     1      -8.389  18.006  67.460  1.00  0.00    -0.233 A  
HETATM   33  C   UNL     1      -7.014  17.844  67.192  1.00  0.00    -0.202 A  
HETATM   34  C   UNL     1      -6.330  18.708  66.329  1.00  0.00    -0.221 A  
HETATM   35  C   UNL     1      -7.001  19.765  65.729  1.00  0.00    -0.316 A  
HETATM   36  C   UNL     1      -8.362  19.937  65.961  1.00  0.00    -0.298 A  
HETATM   37  C   UNL     1      -9.053  19.065  66.808  1.00  0.00    -0.320 A  
HETATM   38 CL   UNL     1     -10.738  19.372  67.029  1.00  0.00    -0.577 Cl 
ENDBRANCH  31  32
ENDBRANCH  26  31
ENDBRANCH  25  26
ENDBRANCH  24  25
ENDBRANCH  21  24
ENDBRANCH  18  20
ENDBRANCH  15  16
ENDBRANCH  14  15
ENDBRANCH   3  14
ENDBRANCH   2   3
TORSDOF 15
ENDMDL
MODEL      148
REMARK 921   NORMALIZED FREE ENERGY PREDICTED BY IDOCK:   -4.73 KCAL/MOL
REMARK 922        TOTAL FREE ENERGY PREDICTED BY IDOCK:  -11.54 KCAL/MOL
REMARK 923 INTER-LIGAND FREE ENERGY PREDICTED BY IDOCK:   -9.40 KCAL/MOL
REMARK 924 INTRA-LIGAND FREE ENERGY PREDICTED BY IDOCK:   -2.13 KCAL/MOL
REMARK 927      BINDING AFFINITY PREDICTED BY RF-SCORE:    0.00 PKD
ROOT
HETATM    1  C   UNL     1      -8.413  14.006  68.205  1.00  0.00    -0.171 C  
HETATM    2  C   UNL     1      -9.616  14.644  68.885  1.00  0.00    -0.184 C  
ENDROOT
BRANCH   2   3
HETATM    3  N   UNL     1     -10.762  15.108  67.934  1.00  0.00    -0.262 N  
BRANCH   3   4
HETATM    4  C   UNL     1     -10.933  16.653  68.021  1.00  0.00    -0.311 C  
HETATM    5  C   UNL     1     -10.030  17.359  69.001  1.00  0.00    -0.265 C  
ENDBRANCH   3   4
BRANCH   3   6
HETATM    6  C   UNL     1     -12.119  14.536  68.408  1.00  0.00    -0.214 C  
BRANCH   6   7
HETATM    7  C   UNL     1     -12.514  14.465  69.880  1.00  0.00    -0.311 A  
HETATM    8  C   UNL     1     -12.911  13.055  71.852  1.00  0.00    -0.414 A  
HETATM    9  C   UNL     1     -12.955  15.549  70.657  1.00  0.00    -0.425 A  
HETATM   10  C   UNL     1     -12.456  13.219  70.538  1.00  0.00    -0.260 A  
HETATM   11  C   UNL     1     -13.352  15.404  71.987  1.00  0.00    -0.545 A  
HETATM   12 CL   UNL     1     -11.848  11.818  69.724  1.00  0.00    -0.400 Cl 
HETATM   13  C   UNL     1     -13.356  14.153  72.579  1.00  0.00    -0.616 A  
ENDBRANCH   6   7
ENDBRANCH   3   6
BRANCH   3  14
HETATM   14  C   UNL     1     -10.361  14.596  66.492  1.00  0.00    -0.282 C  
BRANCH  14  15
HETATM   15  C   UNL     1     -11.213  13.424  65.894  1.00  0.00    -0.300 C  
BRANCH  15  16
HETATM   16  N   UNL     1     -11.036  12.093  66.457  1.00  0.00    -0.291 N  
HETATM   17  H   UNL     1     -11.639  11.773  67.215  1.00  0.00     0.000 HD 
HETATM   18  C   UNL     1     -10.040  11.261  65.956  1.00  0.00    -0.239 C  
HETATM   19  O   UNL     1      -9.414  11.495  64.935  1.00  0.00    -0.211 OA 
BRANCH  18  20
HETATM   20  C   UNL     1      -9.855   9.931  66.728  1.00  0.00    -0.201 C  
HETATM   21  N   UNL     1      -8.552   9.429  66.757  1.00  0.00    -0.126 N  
HETATM   22  O   UNL     1     -10.800   9.387  67.275  1.00  0.00    -0.247 OA 
HETATM   23  H   UNL     1      -7.863   9.723  66.064  1.00  0.00     0.000 HD 
BRANCH  21  24
HETATM   24  C   UNL     1      -8.200   8.475  67.801  1.00  0.00    -0.122 C  
BRANCH  24  25
HETATM   25  C   UNL     1      -8.267   6.981  67.384  1.00  0.00    -0.119 C  
BRANCH  25  26
HETATM   26  N   UNL     1      -8.719   6.014  68.505  1.00  0.00    -0.111 N  
BRANCH  26  27
HETATM   27  C   UNL     1     -10.156   5.487  68.219  1.00  0.00    -0.173 C  
HETATM   28  C   UNL     1     -10.767   5.949  66.903  1.00  0.00    -0.395 C  
ENDBRANCH  26  27
BRANCH  26  29
HETATM   29  C   UNL     1      -7.690   4.851  68.569  1.00  0.00    -0.078 C  
HETATM   30  C   UNL     1      -6.848   4.795  69.831  1.00  0.00    -0.048 C  
ENDBRANCH  26  29
BRANCH  26  31
HETATM   31  C   UNL     1      -8.762   6.765  69.887  1.00  0.00    -0.141 C  
BRANCH  31  32
HETATM   32  C   UNL     1     -10.106   7.015  70.551  1.00  0.00    -0.202 A  
HETATM   33  C   UNL     1     -10.736   8.272  70.438  1.00  0.00    -0.239 A  
HETATM   34  C   UNL     1     -11.905   8.569  71.146  1.00  0.00    -0.322 A  
HETATM   35  C   UNL     1     -12.462   7.625  71.998  1.00  0.00    -0.301 A  
HETATM   36  C   UNL     1     -11.872   6.370  72.113  1.00  0.00    -0.361 A  
HETATM   37  C   UNL     1     -10.713   6.062  71.392  1.00  0.00    -0.259 A  
HETATM   38 CL   UNL     1     -10.061   4.478  71.613  1.00  0.00    -0.263 Cl 
ENDBRANCH  31  32
ENDBRANCH  26  31
ENDBRANCH  25  26
ENDBRANCH  24  25
ENDBRANCH  21  24
ENDBRANCH  18  20
ENDBRANCH  15  16
ENDBRANCH  14  15
ENDBRANCH   3  14
ENDBRANCH   2   3
TORSDOF 15
ENDMDL
MODEL      149
REMARK 921   NORMALIZED FREE ENERGY PREDICTED BY IDOCK:   -4.72 KCAL/MOL
REMARK 922        TOTAL FREE ENERGY PREDICTED BY IDOCK:  -11.51 KCAL/MOL
REMARK 923 INTER-LIGAND FREE ENERGY PREDICTED BY IDOCK:   -9.31 KCAL/MOL
REMARK 924 INTRA-LIGAND FREE ENERGY PREDICTED BY IDOCK:   -2.20 KCAL/MOL
REMARK 927      BINDING AFFINITY PREDICTED BY RF-SCORE:    0.00 PKD
ROOT
HETATM    1  C   UNL     1     -12.760  13.294  65.071  1.00  0.00    -0.438 C  
HETATM    2  C   UNL     1     -12.016  12.437  66.085  1.00  0.00    -0.327 C  
ENDROOT
BRANCH   2   3
HETATM    3  N   UNL     1     -11.118  13.214  67.097  1.00  0.00    -0.272 N  
BRANCH   3   4
HETATM    4  C   UNL     1     -11.354  12.678  68.539  1.00  0.00    -0.296 C  
HETATM    5  C   UNL     1     -12.181  13.561  69.439  1.00  0.00    -0.278 C  
ENDBRANCH   3   4
BRANCH   3   6
HETATM    6  C   UNL     1     -11.538  14.701  67.156  1.00  0.00    -0.378 C  
BRANCH   6   7
HETATM    7  C   UNL     1     -10.527  15.837  67.285  1.00  0.00    -0.308 A  
HETATM    8  C   UNL     1      -9.219  17.585  66.155  1.00  0.00    -0.162 A  
HETATM    9  C   UNL     1      -9.847  16.193  68.462  1.00  0.00    -0.226 A  
HETATM   10  C   UNL     1     -10.218  16.603  66.141  1.00  0.00    -0.348 A  
HETATM   11  C   UNL     1      -8.894  17.212  68.497  1.00  0.00    -0.265 A  
HETATM   12 CL   UNL     1     -11.047  16.330  64.646  1.00  0.00    -0.387 Cl 
HETATM   13  C   UNL     1      -8.560  17.891  67.339  1.00  0.00    -0.239 A  
ENDBRANCH   6   7
ENDBRANCH   3   6
BRANCH   3  14
HETATM   14  C   UNL     1      -9.632  13.026  66.587  1.00  0.00    -0.259 C  
BRANCH  14  15
HETATM   15  C   UNL     1      -9.292  11.671  65.875  1.00  0.00    -0.218 C  
BRANCH  15  16
HETATM   16  N   UNL     1      -8.780  10.580  66.690  1.00  0.00    -0.132 N  
HETATM   17  H   UNL     1      -9.295  10.270  67.515  1.00  0.00     0.000 HD 
HETATM   18  C   UNL     1      -7.585   9.960  66.338  1.00  0.00    -0.101 C  
HETATM   19  O   UNL     1      -7.018  10.141  65.274  1.00  0.00    -0.126 OA 
BRANCH  18  20
HETATM   20  C   UNL     1      -7.070   8.914  67.358  1.00  0.00    -0.079 C  
HETATM   21  N   UNL     1      -7.849   8.761  68.507  1.00  0.00    -0.102 N  
HETATM   22  O   UNL     1      -6.056   8.272  67.140  1.00  0.00    -0.052 OA 
HETATM   23  H   UNL     1      -8.495   9.494  68.801  1.00  0.00     0.000 HD 
BRANCH  21  24
HETATM   24  C   UNL     1      -7.717   7.530  69.276  1.00  0.00    -0.112 C  
BRANCH  24  25
HETATM   25  C   UNL     1      -8.606   6.350  68.796  1.00  0.00    -0.123 C  
BRANCH  25  26
HETATM   26  N   UNL     1      -9.883   6.116  69.639  1.00  0.00    -0.157 N  
BRANCH  26  27
HETATM   27  C   UNL     1     -11.153   6.467  68.809  1.00  0.00    -0.326 C  
HETATM   28  C   UNL     1     -10.964   6.455  67.298  1.00  0.00    -0.474 C  
ENDBRANCH  26  27
BRANCH  26  29
HETATM   29  C   UNL     1      -9.889   4.627  70.084  1.00  0.00    -0.236 C  
HETATM   30  C   UNL     1      -9.319   4.358  71.466  1.00  0.00    -0.203 C  
ENDBRANCH  26  29
BRANCH  26  31
HETATM   31  C   UNL     1      -9.879   7.051  70.906  1.00  0.00    -0.185 C  
BRANCH  31  32
HETATM   32  C   UNL     1     -11.037   8.010  71.120  1.00  0.00    -0.278 A  
HETATM   33  C   UNL     1     -10.919   9.368  70.756  1.00  0.00    -0.371 A  
HETATM   34  C   UNL     1     -11.919  10.297  71.063  1.00  0.00    -0.483 A  
HETATM   35  C   UNL     1     -13.053   9.894  71.757  1.00  0.00    -0.553 A  
HETATM   36  C   UNL     1     -13.204   8.557  72.110  1.00  0.00    -0.384 A  
HETATM   37  C   UNL     1     -12.215   7.622  71.789  1.00  0.00    -0.311 A  
HETATM   38 CL   UNL     1     -12.502   5.991  72.279  1.00  0.00    -0.125 Cl 
ENDBRANCH  31  32
ENDBRANCH  26  31
ENDBRANCH  25  26
ENDBRANCH  24  25
ENDBRANCH  21  24
ENDBRANCH  18  20
ENDBRANCH  15  16
ENDBRANCH  14  15
ENDBRANCH   3  14
ENDBRANCH   2   3
TORSDOF 15
ENDMDL
MODEL      150
REMARK 921   NORMALIZED FREE ENERGY PREDICTED BY IDOCK:   -4.71 KCAL/MOL
REMARK 922        TOTAL FREE ENERGY PREDICTED BY IDOCK:  -11.50 KCAL/MOL
REMARK 923 INTER-LIGAND FREE ENERGY PREDICTED BY IDOCK:   -9.60 KCAL/MOL
REMARK 924 INTRA-LIGAND FREE ENERGY PREDICTED BY IDOCK:   -1.90 KCAL/MOL
REMARK 927      BINDING AFFINITY PREDICTED BY RF-SCORE:    0.00 PKD
ROOT
HETATM    1  C   UNL     1      -9.814   6.115  74.559  1.00  0.00    -0.319 C  
HETATM    2  C   UNL     1      -9.510   6.758  73.214  1.00  0.00    -0.150 C  
ENDROOT
BRANCH   2   3
HETATM    3  N   UNL     1     -10.226   6.122  71.983  1.00  0.00    -0.192 N  
BRANCH   3   4
HETATM    4  C   UNL     1     -10.513   4.616  72.254  1.00  0.00    -0.170 C  
HETATM    5  C   UNL     1      -9.886   3.645  71.286  1.00  0.00    -0.211 C  
ENDBRANCH   3   4
BRANCH   3   6
HETATM    6  C   UNL     1      -9.289   6.128  70.753  1.00  0.00    -0.158 C  
BRANCH   6   7
HETATM    7  C   UNL     1      -9.717   6.677  69.395  1.00  0.00    -0.153 A  
HETATM    8  C   UNL     1      -9.697   8.567  67.824  1.00  0.00    -0.199 A  
HETATM    9  C   UNL     1     -10.560   6.022  68.481  1.00  0.00    -0.325 A  
HETATM   10  C   UNL     1      -9.256   7.951  69.003  1.00  0.00    -0.147 A  
HETATM   11  C   UNL     1     -10.955   6.605  67.276  1.00  0.00    -0.456 A  
HETATM   12 CL   UNL     1      -8.142   8.830  69.993  1.00  0.00    -0.104 Cl 
HETATM   13  C   UNL     1     -10.545   7.888  66.958  1.00  0.00    -0.381 A  
ENDBRANCH   6   7
ENDBRANCH   3   6
BRANCH   3  14
HETATM   14  C   UNL     1     -11.533   6.983  71.751  1.00  0.00    -0.267 C  
BRANCH  14  15
HETATM   15  C   UNL     1     -11.574   8.403  72.416  1.00  0.00    -0.380 C  
BRANCH  15  16
HETATM   16  N   UNL     1     -11.264   9.556  71.584  1.00  0.00    -0.366 N  
HETATM   17  H   UNL     1     -10.293   9.812  71.404  1.00  0.00     0.000 HD 
HETATM   18  C   UNL     1     -12.299  10.308  71.035  1.00  0.00    -0.381 C  
HETATM   19  O   UNL     1     -13.467   9.957  71.045  1.00  0.00    -0.363 OA 
BRANCH  18  20
HETATM   20  C   UNL     1     -11.848  11.589  70.291  1.00  0.00    -0.342 C  
HETATM   21  N   UNL     1     -10.906  11.396  69.279  1.00  0.00    -0.337 N  
HETATM   22  O   UNL     1     -12.310  12.679  70.584  1.00  0.00    -0.359 OA 
HETATM   23  H   UNL     1     -10.327  10.556  69.257  1.00  0.00     0.000 HD 
BRANCH  21  24
HETATM   24  C   UNL     1     -10.770  12.423  68.253  1.00  0.00    -0.230 C  
BRANCH  24  25
HETATM   25  C   UNL     1      -9.632  13.452  68.493  1.00  0.00    -0.141 C  
BRANCH  25  26
HETATM   26  N   UNL     1      -9.935  14.884  67.990  1.00  0.00    -0.218 N  
BRANCH  26  27
HETATM   27  C   UNL     1      -9.316  15.104  66.578  1.00  0.00    -0.280 C  
HETATM   28  C   UNL     1     -10.297  15.018  65.417  1.00  0.00    -0.410 C  
ENDBRANCH  26  27
BRANCH  26  29
HETATM   29  C   UNL     1     -11.479  15.060  67.965  1.00  0.00    -0.342 C  
HETATM   30  C   UNL     1     -12.070  15.796  69.154  1.00  0.00    -0.217 C  
ENDBRANCH  26  29
BRANCH  26  31
HETATM   31  C   UNL     1      -9.293  15.949  68.955  1.00  0.00    -0.233 C  
BRANCH  31  32
HETATM   32  C   UNL     1      -8.321  16.969  68.387  1.00  0.00    -0.241 A  
HETATM   33  C   UNL     1      -6.938  16.694  68.343  1.00  0.00    -0.160 A  
HETATM   34  C   UNL     1      -6.011  17.665  67.948  1.00  0.00    -0.155 A  
HETATM   35  C   UNL     1      -6.443  18.940  67.607  1.00  0.00    -0.209 A  
HETATM   36  C   UNL     1      -7.803  19.233  67.622  1.00  0.00    -0.295 A  
HETATM   37  C   UNL     1      -8.734  18.259  67.998  1.00  0.00    -0.276 A  
HETATM   38 CL   UNL     1     -10.396  18.730  67.987  1.00  0.00    -0.433 Cl 
ENDBRANCH  31  32
ENDBRANCH  26  31
ENDBRANCH  25  26
ENDBRANCH  24  25
ENDBRANCH  21  24
ENDBRANCH  18  20
ENDBRANCH  15  16
ENDBRANCH  14  15
ENDBRANCH   3  14
ENDBRANCH   2   3
TORSDOF 15
ENDMDL
MODEL      151
REMARK 921   NORMALIZED FREE ENERGY PREDICTED BY IDOCK:   -4.70 KCAL/MOL
REMARK 922        TOTAL FREE ENERGY PREDICTED BY IDOCK:  -11.47 KCAL/MOL
REMARK 923 INTER-LIGAND FREE ENERGY PREDICTED BY IDOCK:   -9.31 KCAL/MOL
REMARK 924 INTRA-LIGAND FREE ENERGY PREDICTED BY IDOCK:   -2.17 KCAL/MOL
REMARK 927      BINDING AFFINITY PREDICTED BY RF-SCORE:    0.00 PKD
ROOT
HETATM    1  C   UNL     1      -8.323  12.228  67.140  1.00  0.00    -0.183 C  
HETATM    2  C   UNL     1      -9.550  12.616  66.326  1.00  0.00    -0.244 C  
ENDROOT
BRANCH   2   3
HETATM    3  N   UNL     1     -10.264  13.931  66.766  1.00  0.00    -0.264 N  
BRANCH   3   4
HETATM    4  C   UNL     1     -11.719  13.957  66.214  1.00  0.00    -0.383 C  
HETATM    5  C   UNL     1     -11.853  14.160  64.726  1.00  0.00    -0.425 C  
ENDBRANCH   3   4
BRANCH   3   6
HETATM    6  C   UNL     1      -9.578  15.158  66.122  1.00  0.00    -0.313 C  
BRANCH   6   7
HETATM    7  C   UNL     1      -9.509  16.519  66.809  1.00  0.00    -0.266 A  
HETATM    8  C   UNL     1      -8.150  18.147  68.049  1.00  0.00    -0.264 A  
HETATM    9  C   UNL     1     -10.597  17.386  67.008  1.00  0.00    -0.238 A  
HETATM   10  C   UNL     1      -8.267  16.965  67.309  1.00  0.00    -0.184 A  
HETATM   11  C   UNL     1     -10.474  18.596  67.693  1.00  0.00    -0.468 A  
HETATM   12 CL   UNL     1      -6.829  16.037  67.054  1.00  0.00    -0.228 Cl 
HETATM   13  C   UNL     1      -9.257  18.966  68.237  1.00  0.00    -0.373 A  
ENDBRANCH   6   7
ENDBRANCH   3   6
BRANCH   3  14
HETATM   14  C   UNL     1     -10.186  13.957  68.346  1.00  0.00    -0.243 C  
BRANCH  14  15
HETATM   15  C   UNL     1     -11.539  13.808  69.125  1.00  0.00    -0.317 C  
BRANCH  15  16
HETATM   16  N   UNL     1     -11.698  12.657  70.003  1.00  0.00    -0.516 N  
HETATM   17  H   UNL     1     -11.581  12.761  71.011  1.00  0.00     0.000 HD 
HETATM   18  C   UNL     1     -12.012  11.415  69.459  1.00  0.00    -0.341 C  
HETATM   19  O   UNL     1     -12.354  11.252  68.300  1.00  0.00    -0.542 OA 
BRANCH  18  20
HETATM   20  C   UNL     1     -12.014  10.244  70.473  1.00  0.00    -0.323 C  
HETATM   21  N   UNL     1     -11.754   8.983  69.933  1.00  0.00    -0.413 N  
HETATM   22  O   UNL     1     -12.220  10.442  71.658  1.00  0.00    -0.355 OA 
HETATM   23  H   UNL     1     -11.884   8.803  68.937  1.00  0.00     0.000 HD 
BRANCH  21  24
HETATM   24  C   UNL     1     -11.292   7.928  70.828  1.00  0.00    -0.274 C  
BRANCH  24  25
HETATM   25  C   UNL     1      -9.777   7.965  71.168  1.00  0.00    -0.158 C  
BRANCH  25  26
HETATM   26  N   UNL     1      -8.853   7.367  70.080  1.00  0.00    -0.147 N  
BRANCH  26  27
HETATM   27  C   UNL     1      -7.778   8.408  69.650  1.00  0.00    -0.095 C  
HETATM   28  C   UNL     1      -8.051   9.841  70.087  1.00  0.00    -0.202 C  
ENDBRANCH  26  27
BRANCH  26  29
HETATM   29  C   UNL     1      -8.198   6.086  70.667  1.00  0.00    -0.120 C  
HETATM   30  C   UNL     1      -7.218   6.317  71.803  1.00  0.00    -0.087 C  
ENDBRANCH  26  29
BRANCH  26  31
HETATM   31  C   UNL     1      -9.688   6.999  68.798  1.00  0.00    -0.143 C  
BRANCH  31  32
HETATM   32  C   UNL     1      -9.319   7.635  67.468  1.00  0.00    -0.159 A  
HETATM   33  C   UNL     1     -10.037   8.749  66.984  1.00  0.00    -0.335 A  
HETATM   34  C   UNL     1      -9.803   9.269  65.706  1.00  0.00    -0.302 A  
HETATM   35  C   UNL     1      -8.862   8.677  64.876  1.00  0.00    -0.076 A  
HETATM   36  C   UNL     1      -8.126   7.589  65.335  1.00  0.00    -0.133 A  
HETATM   37  C   UNL     1      -8.342   7.078  66.619  1.00  0.00    -0.118 A  
HETATM   38 CL   UNL     1      -7.378   5.723  67.086  1.00  0.00    -0.076 Cl 
ENDBRANCH  31  32
ENDBRANCH  26  31
ENDBRANCH  25  26
ENDBRANCH  24  25
ENDBRANCH  21  24
ENDBRANCH  18  20
ENDBRANCH  15  16
ENDBRANCH  14  15
ENDBRANCH   3  14
ENDBRANCH   2   3
TORSDOF 15
ENDMDL
MODEL      152
REMARK 921   NORMALIZED FREE ENERGY PREDICTED BY IDOCK:   -4.69 KCAL/MOL
REMARK 922        TOTAL FREE ENERGY PREDICTED BY IDOCK:  -11.46 KCAL/MOL
REMARK 923 INTER-LIGAND FREE ENERGY PREDICTED BY IDOCK:  -10.02 KCAL/MOL
REMARK 924 INTRA-LIGAND FREE ENERGY PREDICTED BY IDOCK:   -1.44 KCAL/MOL
REMARK 927      BINDING AFFINITY PREDICTED BY RF-SCORE:    0.00 PKD
ROOT
HETATM    1  C   UNL     1     -12.085  14.880  64.505  1.00  0.00    -0.420 C  
HETATM    2  C   UNL     1     -10.848  15.425  65.204  1.00  0.00    -0.431 C  
ENDROOT
BRANCH   2   3
HETATM    3  N   UNL     1     -10.569  14.852  66.628  1.00  0.00    -0.299 N  
BRANCH   3   4
HETATM    4  C   UNL     1     -11.910  14.644  67.391  1.00  0.00    -0.348 C  
HETATM    5  C   UNL     1     -11.881  14.957  68.865  1.00  0.00    -0.334 C  
ENDBRANCH   3   4
BRANCH   3   6
HETATM    6  C   UNL     1      -9.789  15.882  67.479  1.00  0.00    -0.230 C  
BRANCH   6   7
HETATM    7  C   UNL     1      -9.813  17.379  67.186  1.00  0.00    -0.278 A  
HETATM    8  C   UNL     1      -8.558  19.374  66.489  1.00  0.00    -0.363 A  
HETATM    9  C   UNL     1     -10.909  18.232  67.397  1.00  0.00    -0.281 A  
HETATM   10  C   UNL     1      -8.648  17.988  66.674  1.00  0.00    -0.263 A  
HETATM   11  C   UNL     1     -10.845  19.605  67.157  1.00  0.00    -0.526 A  
HETATM   12 CL   UNL     1      -7.253  17.040  66.285  1.00  0.00    -0.306 Cl 
HETATM   13  C   UNL     1      -9.663  20.182  66.728  1.00  0.00    -0.577 A  
ENDBRANCH   6   7
ENDBRANCH   3   6
BRANCH   3  14
HETATM   14  C   UNL     1      -9.755  13.514  66.404  1.00  0.00    -0.289 C  
BRANCH  14  15
HETATM   15  C   UNL     1      -8.946  12.962  67.628  1.00  0.00    -0.192 C  
BRANCH  15  16
HETATM   16  N   UNL     1      -9.693  12.397  68.742  1.00  0.00    -0.416 N  
HETATM   17  H   UNL     1      -9.730  12.887  69.636  1.00  0.00     0.000 HD 
HETATM   18  C   UNL     1     -10.357  11.185  68.581  1.00  0.00    -0.203 C  
HETATM   19  O   UNL     1     -10.519  10.641  67.501  1.00  0.00    -0.201 OA 
BRANCH  18  20
HETATM   20  C   UNL     1     -10.995  10.616  69.873  1.00  0.00    -0.274 C  
HETATM   21  N   UNL     1     -10.425   9.436  70.355  1.00  0.00    -0.235 N  
HETATM   22  O   UNL     1     -11.924  11.189  70.418  1.00  0.00    -0.325 OA 
HETATM   23  H   UNL     1      -9.875   8.833  69.743  1.00  0.00     0.000 HD 
BRANCH  21  24
HETATM   24  C   UNL     1     -10.634   9.087  71.755  1.00  0.00    -0.356 C  
BRANCH  24  25
HETATM   25  C   UNL     1     -11.386   7.751  71.999  1.00  0.00    -0.284 C  
BRANCH  25  26
HETATM   26  N   UNL     1     -10.511   6.610  72.576  1.00  0.00    -0.199 N  
BRANCH  26  27
HETATM   27  C   UNL     1      -9.977   6.998  73.986  1.00  0.00    -0.316 C  
HETATM   28  C   UNL     1      -8.477   7.244  74.068  1.00  0.00    -0.214 C  
ENDBRANCH  26  27
BRANCH  26  29
HETATM   29  C   UNL     1     -11.385   5.327  72.633  1.00  0.00    -0.231 C  
HETATM   30  C   UNL     1     -11.160   4.438  73.843  1.00  0.00    -0.264 C  
ENDBRANCH  26  29
BRANCH  26  31
HETATM   31  C   UNL     1      -9.260   6.363  71.653  1.00  0.00    -0.144 C  
BRANCH  31  32
HETATM   32  C   UNL     1      -9.106   5.019  70.961  1.00  0.00    -0.178 A  
HETATM   33  C   UNL     1      -8.282   4.019  71.517  1.00  0.00    -0.079 A  
HETATM   34  C   UNL     1      -8.020   2.826  70.835  1.00  0.00    -0.055 A  
HETATM   35  C   UNL     1      -8.560   2.613  69.573  1.00  0.00    -0.115 A  
HETATM   36  C   UNL     1      -9.392   3.575  69.010  1.00  0.00    -0.240 A  
HETATM   37  C   UNL     1      -9.672   4.761  69.697  1.00  0.00    -0.202 A  
HETATM   38 CL   UNL     1     -10.713   5.889  68.904  1.00  0.00    -0.357 Cl 
ENDBRANCH  31  32
ENDBRANCH  26  31
ENDBRANCH  25  26
ENDBRANCH  24  25
ENDBRANCH  21  24
ENDBRANCH  18  20
ENDBRANCH  15  16
ENDBRANCH  14  15
ENDBRANCH   3  14
ENDBRANCH   2   3
TORSDOF 15
ENDMDL
MODEL      153
REMARK 921   NORMALIZED FREE ENERGY PREDICTED BY IDOCK:   -4.68 KCAL/MOL
REMARK 922        TOTAL FREE ENERGY PREDICTED BY IDOCK:  -11.45 KCAL/MOL
REMARK 923 INTER-LIGAND FREE ENERGY PREDICTED BY IDOCK:   -9.68 KCAL/MOL
REMARK 924 INTRA-LIGAND FREE ENERGY PREDICTED BY IDOCK:   -1.77 KCAL/MOL
REMARK 927      BINDING AFFINITY PREDICTED BY RF-SCORE:    0.00 PKD
ROOT
HETATM    1  C   UNL     1      -7.437  10.389  69.975  1.00  0.00    -0.088 C  
HETATM    2  C   UNL     1      -8.411  10.027  68.863  1.00  0.00    -0.130 C  
ENDROOT
BRANCH   2   3
HETATM    3  N   UNL     1      -9.740   9.350  69.322  1.00  0.00    -0.166 N  
BRANCH   3   4
HETATM    4  C   UNL     1     -10.801  10.437  69.661  1.00  0.00    -0.277 C  
HETATM    5  C   UNL     1     -11.520  10.265  70.975  1.00  0.00    -0.386 C  
ENDBRANCH   3   4
BRANCH   3   6
HETATM    6  C   UNL     1      -9.523   8.585  70.648  1.00  0.00    -0.174 C  
BRANCH   6   7
HETATM    7  C   UNL     1      -9.112   7.116  70.694  1.00  0.00    -0.158 A  
HETATM    8  C   UNL     1      -9.593   4.855  71.528  1.00  0.00    -0.218 A  
HETATM    9  C   UNL     1      -7.934   6.584  70.145  1.00  0.00    -0.112 A  
HETATM   10  C   UNL     1      -9.958   6.195  71.347  1.00  0.00    -0.187 A  
HETATM   11  C   UNL     1      -7.593   5.236  70.269  1.00  0.00    -0.072 A  
HETATM   12 CL   UNL     1     -11.483   6.700  71.992  1.00  0.00    -0.312 Cl 
HETATM   13  C   UNL     1      -8.408   4.375  70.983  1.00  0.00    -0.096 A  
ENDBRANCH   6   7
ENDBRANCH   3   6
BRANCH   3  14
HETATM   14  C   UNL     1     -10.169   8.394  68.136  1.00  0.00    -0.208 C  
BRANCH  14  15
HETATM   15  C   UNL     1      -9.716   8.806  66.693  1.00  0.00    -0.242 C  
BRANCH  15  16
HETATM   16  N   UNL     1     -10.084  10.130  66.213  1.00  0.00    -0.237 N  
HETATM   17  H   UNL     1     -10.399  10.845  66.869  1.00  0.00     0.000 HD 
HETATM   18  C   UNL     1     -10.002  10.415  64.853  1.00  0.00    -0.339 C  
HETATM   19  O   UNL     1      -9.458   9.686  64.041  1.00  0.00    -0.177 OA 
BRANCH  18  20
HETATM   20  C   UNL     1     -10.555  11.804  64.446  1.00  0.00    -0.317 C  
HETATM   21  N   UNL     1     -11.440  12.388  65.355  1.00  0.00    -0.344 N  
HETATM   22  O   UNL     1     -10.213  12.333  63.402  1.00  0.00    -0.421 OA 
HETATM   23  H   UNL     1     -11.932  11.819  66.044  1.00  0.00     0.000 HD 
BRANCH  21  24
HETATM   24  C   UNL     1     -11.645  13.830  65.294  1.00  0.00    -0.321 C  
BRANCH  24  25
HETATM   25  C   UNL     1     -12.001  14.506  66.646  1.00  0.00    -0.338 C  
BRANCH  25  26
HETATM   26  N   UNL     1     -10.789  15.063  67.431  1.00  0.00    -0.298 N  
BRANCH  26  27
HETATM   27  C   UNL     1     -11.272  15.985  68.590  1.00  0.00    -0.366 C  
HETATM   28  C   UNL     1     -10.856  15.545  69.987  1.00  0.00    -0.330 C  
ENDBRANCH  26  27
BRANCH  26  29
HETATM   29  C   UNL     1      -9.978  13.852  67.971  1.00  0.00    -0.241 C  
HETATM   30  C   UNL     1      -8.609  13.655  67.345  1.00  0.00    -0.212 C  
ENDBRANCH  26  29
BRANCH  26  31
HETATM   31  C   UNL     1      -9.881  15.934  66.486  1.00  0.00    -0.261 C  
BRANCH  31  32
HETATM   32  C   UNL     1      -9.736  17.421  66.766  1.00  0.00    -0.293 A  
HETATM   33  C   UNL     1     -10.505  18.363  66.050  1.00  0.00    -0.400 A  
HETATM   34  C   UNL     1     -10.295  19.738  66.195  1.00  0.00    -0.627 A  
HETATM   35  C   UNL     1      -9.301  20.205  67.044  1.00  0.00    -0.523 A  
HETATM   36  C   UNL     1      -8.541  19.299  67.777  1.00  0.00    -0.341 A  
HETATM   37  C   UNL     1      -8.759  17.923  67.649  1.00  0.00    -0.242 A  
HETATM   38 CL   UNL     1      -7.757  16.887  68.601  1.00  0.00    -0.224 Cl 
ENDBRANCH  31  32
ENDBRANCH  26  31
ENDBRANCH  25  26
ENDBRANCH  24  25
ENDBRANCH  21  24
ENDBRANCH  18  20
ENDBRANCH  15  16
ENDBRANCH  14  15
ENDBRANCH   3  14
ENDBRANCH   2   3
TORSDOF 15
ENDMDL
MODEL      154
REMARK 921   NORMALIZED FREE ENERGY PREDICTED BY IDOCK:   -4.68 KCAL/MOL
REMARK 922        TOTAL FREE ENERGY PREDICTED BY IDOCK:  -11.44 KCAL/MOL
REMARK 923 INTER-LIGAND FREE ENERGY PREDICTED BY IDOCK:  -10.17 KCAL/MOL
REMARK 924 INTRA-LIGAND FREE ENERGY PREDICTED BY IDOCK:   -1.28 KCAL/MOL
REMARK 927      BINDING AFFINITY PREDICTED BY RF-SCORE:    0.00 PKD
ROOT
HETATM    1  C   UNL     1      -9.201   8.149  72.277  1.00  0.00    -0.266 C  
HETATM    2  C   UNL     1     -10.405   7.407  72.841  1.00  0.00    -0.279 C  
ENDROOT
BRANCH   2   3
HETATM    3  N   UNL     1     -10.767   6.067  72.130  1.00  0.00    -0.217 N  
BRANCH   3   4
HETATM    4  C   UNL     1     -11.311   5.043  73.168  1.00  0.00    -0.321 C  
HETATM    5  C   UNL     1     -10.465   4.845  74.400  1.00  0.00    -0.325 C  
ENDBRANCH   3   4
BRANCH   3   6
HETATM    6  C   UNL     1      -9.494   5.403  71.553  1.00  0.00    -0.149 C  
BRANCH   6   7
HETATM    7  C   UNL     1      -9.489   4.641  70.231  1.00  0.00    -0.240 A  
HETATM    8  C   UNL     1      -9.388   2.464  69.095  1.00  0.00    -0.191 A  
HETATM    9  C   UNL     1      -9.453   5.227  68.955  1.00  0.00    -0.173 A  
HETATM   10  C   UNL     1      -9.506   3.231  70.261  1.00  0.00    -0.164 A  
HETATM   11  C   UNL     1      -9.397   4.468  67.785  1.00  0.00    -0.180 A  
HETATM   12 CL   UNL     1      -9.639   2.381  71.763  1.00  0.00    -0.198 Cl 
HETATM   13  C   UNL     1      -9.338   3.087  67.854  1.00  0.00    -0.255 A  
ENDBRANCH   6   7
ENDBRANCH   3   6
BRANCH   3  14
HETATM   14  C   UNL     1     -11.813   6.444  71.004  1.00  0.00    -0.258 C  
BRANCH  14  15
HETATM   15  C   UNL     1     -12.892   7.520  71.371  1.00  0.00    -0.342 C  
BRANCH  15  16
HETATM   16  N   UNL     1     -12.694   8.879  70.888  1.00  0.00    -0.498 N  
HETATM   17  H   UNL     1     -12.275   9.042  69.972  1.00  0.00     0.000 HD 
HETATM   18  C   UNL     1     -13.080   9.954  71.683  1.00  0.00    -0.437 C  
HETATM   19  O   UNL     1     -13.754   9.841  72.692  1.00  0.00    -0.263 OA 
BRANCH  18  20
HETATM   20  C   UNL     1     -12.688  11.346  71.126  1.00  0.00    -0.377 C  
HETATM   21  N   UNL     1     -11.658  11.348  70.184  1.00  0.00    -0.445 N  
HETATM   22  O   UNL     1     -13.266  12.354  71.497  1.00  0.00    -0.345 OA 
HETATM   23  H   UNL     1     -11.007  10.566  70.119  1.00  0.00     0.000 HD 
BRANCH  21  24
HETATM   24  C   UNL     1     -11.535  12.497  69.294  1.00  0.00    -0.293 C  
BRANCH  24  25
HETATM   25  C   UNL     1     -11.202  12.156  67.816  1.00  0.00    -0.275 C  
BRANCH  25  26
HETATM   26  N   UNL     1     -10.958  13.385  66.907  1.00  0.00    -0.281 N  
BRANCH  26  27
HETATM   27  C   UNL     1      -9.452  13.779  66.921  1.00  0.00    -0.262 C  
HETATM   28  C   UNL     1      -8.503  12.700  67.426  1.00  0.00    -0.186 C  
ENDBRANCH  26  27
BRANCH  26  29
HETATM   29  C   UNL     1     -11.435  13.017  65.475  1.00  0.00    -0.321 C  
HETATM   30  C   UNL     1     -10.503  13.432  64.350  1.00  0.00    -0.403 C  
ENDBRANCH  26  29
BRANCH  26  31
HETATM   31  C   UNL     1     -11.771  14.625  67.436  1.00  0.00    -0.390 C  
BRANCH  31  32
HETATM   32  C   UNL     1     -11.106  15.991  67.455  1.00  0.00    -0.167 A  
HETATM   33  C   UNL     1     -10.859  16.684  66.251  1.00  0.00    -0.015 A  
HETATM   34  C   UNL     1     -10.133  17.879  66.231  1.00  0.00    -0.351 A  
HETATM   35  C   UNL     1      -9.619  18.400  67.411  1.00  0.00    -0.292 A  
HETATM   36  C   UNL     1      -9.863  17.748  68.615  1.00  0.00    -0.359 A  
HETATM   37  C   UNL     1     -10.606  16.563  68.642  1.00  0.00    -0.316 A  
HETATM   38 CL   UNL     1     -10.847  15.833  70.189  1.00  0.00    -0.332 Cl 
ENDBRANCH  31  32
ENDBRANCH  26  31
ENDBRANCH  25  26
ENDBRANCH  24  25
ENDBRANCH  21  24
ENDBRANCH  18  20
ENDBRANCH  15  16
ENDBRANCH  14  15
ENDBRANCH   3  14
ENDBRANCH   2   3
TORSDOF 15
ENDMDL
MODEL      155
REMARK 921   NORMALIZED FREE ENERGY PREDICTED BY IDOCK:   -4.66 KCAL/MOL
REMARK 922        TOTAL FREE ENERGY PREDICTED BY IDOCK:  -11.41 KCAL/MOL
REMARK 923 INTER-LIGAND FREE ENERGY PREDICTED BY IDOCK:   -9.16 KCAL/MOL
REMARK 924 INTRA-LIGAND FREE ENERGY PREDICTED BY IDOCK:   -2.25 KCAL/MOL
REMARK 927      BINDING AFFINITY PREDICTED BY RF-SCORE:    0.00 PKD
ROOT
HETATM    1  C   UNL     1     -10.775   8.784  67.249  1.00  0.00    -0.217 C  
HETATM    2  C   UNL     1      -9.551   7.920  66.983  1.00  0.00    -0.192 C  
ENDROOT
BRANCH   2   3
HETATM    3  N   UNL     1      -9.185   6.903  68.107  1.00  0.00    -0.127 N  
BRANCH   3   4
HETATM    4  C   UNL     1      -8.520   5.640  67.487  1.00  0.00    -0.102 C  
HETATM    5  C   UNL     1      -8.390   5.638  65.985  1.00  0.00    -0.124 C  
ENDBRANCH   3   4
BRANCH   3   6
HETATM    6  C   UNL     1     -10.466   6.375  68.794  1.00  0.00    -0.221 C  
BRANCH   6   7
HETATM    7  C   UNL     1     -10.457   5.754  70.188  1.00  0.00    -0.348 A  
HETATM    8  C   UNL     1     -10.991   6.008  72.573  1.00  0.00    -0.300 A  
HETATM    9  C   UNL     1      -9.878   4.519  70.525  1.00  0.00    -0.297 A  
HETATM   10  C   UNL     1     -11.060   6.461  71.249  1.00  0.00    -0.282 A  
HETATM   11  C   UNL     1      -9.859   4.033  71.833  1.00  0.00    -0.247 A  
HETATM   12 CL   UNL     1     -11.887   7.953  70.959  1.00  0.00    -0.298 Cl 
HETATM   13  C   UNL     1     -10.392   4.788  72.863  1.00  0.00    -0.237 A  
ENDBRANCH   6   7
ENDBRANCH   3   6
BRANCH   3  14
HETATM   14  C   UNL     1      -8.243   7.687  69.108  1.00  0.00    -0.130 C  
BRANCH  14  15
HETATM   15  C   UNL     1      -6.959   8.352  68.501  1.00  0.00    -0.069 C  
BRANCH  15  16
HETATM   16  N   UNL     1      -6.786   9.787  68.674  1.00  0.00    -0.052 N  
HETATM   17  H   UNL     1      -6.556  10.169  69.591  1.00  0.00     0.000 HD 
HETATM   18  C   UNL     1      -6.936  10.634  67.580  1.00  0.00    -0.083 C  
HETATM   19  O   UNL     1      -7.018  10.243  66.428  1.00  0.00    -0.098 OA 
BRANCH  18  20
HETATM   20  C   UNL     1      -6.870  12.145  67.915  1.00  0.00    -0.095 C  
HETATM   21  N   UNL     1      -7.448  12.995  66.970  1.00  0.00    -0.377 N  
HETATM   22  O   UNL     1      -6.353  12.536  68.948  1.00  0.00    -0.073 OA 
HETATM   23  H   UNL     1      -7.594  12.687  66.009  1.00  0.00     0.000 HD 
BRANCH  21  24
HETATM   24  C   UNL     1      -7.838  14.336  67.391  1.00  0.00    -0.187 C  
BRANCH  24  25
HETATM   25  C   UNL     1      -9.194  14.427  68.141  1.00  0.00    -0.199 C  
BRANCH  25  26
HETATM   26  N   UNL     1     -10.281  15.260  67.419  1.00  0.00    -0.241 N  
BRANCH  26  27
HETATM   27  C   UNL     1     -10.306  16.714  67.974  1.00  0.00    -0.303 C  
HETATM   28  C   UNL     1     -10.114  17.810  66.935  1.00  0.00    -0.342 C  
ENDBRANCH  26  27
BRANCH  26  29
HETATM   29  C   UNL     1      -9.960  15.239  65.898  1.00  0.00    -0.340 C  
HETATM   30  C   UNL     1     -10.993  14.551  65.024  1.00  0.00    -0.408 C  
ENDBRANCH  26  29
BRANCH  26  31
HETATM   31  C   UNL     1     -11.704  14.636  67.672  1.00  0.00    -0.363 C  
BRANCH  31  32
HETATM   32  C   UNL     1     -11.879  13.627  68.794  1.00  0.00    -0.395 A  
HETATM   33  C   UNL     1     -11.705  12.248  68.551  1.00  0.00    -0.381 A  
HETATM   34  C   UNL     1     -11.988  11.292  69.531  1.00  0.00    -0.421 A  
HETATM   35  C   UNL     1     -12.470  11.689  70.771  1.00  0.00    -0.425 A  
HETATM   36  C   UNL     1     -12.633  13.043  71.045  1.00  0.00    -0.386 A  
HETATM   37  C   UNL     1     -12.333  14.004  70.074  1.00  0.00    -0.337 A  
HETATM   38 CL   UNL     1     -12.575  15.656  70.517  1.00  0.00    -0.459 Cl 
ENDBRANCH  31  32
ENDBRANCH  26  31
ENDBRANCH  25  26
ENDBRANCH  24  25
ENDBRANCH  21  24
ENDBRANCH  18  20
ENDBRANCH  15  16
ENDBRANCH  14  15
ENDBRANCH   3  14
ENDBRANCH   2   3
TORSDOF 15
ENDMDL
MODEL      156
REMARK 921   NORMALIZED FREE ENERGY PREDICTED BY IDOCK:   -4.66 KCAL/MOL
REMARK 922        TOTAL FREE ENERGY PREDICTED BY IDOCK:  -11.40 KCAL/MOL
REMARK 923 INTER-LIGAND FREE ENERGY PREDICTED BY IDOCK:   -9.60 KCAL/MOL
REMARK 924 INTRA-LIGAND FREE ENERGY PREDICTED BY IDOCK:   -1.81 KCAL/MOL
REMARK 927      BINDING AFFINITY PREDICTED BY RF-SCORE:    0.00 PKD
ROOT
HETATM    1  C   UNL     1     -12.722  13.343  65.513  1.00  0.00    -0.469 C  
HETATM    2  C   UNL     1     -12.036  14.612  65.997  1.00  0.00    -0.242 C  
ENDROOT
BRANCH   2   3
HETATM    3  N   UNL     1     -10.596  14.425  66.568  1.00  0.00    -0.292 N  
BRANCH   3   4
HETATM    4  C   UNL     1     -10.553  14.862  68.061  1.00  0.00    -0.248 C  
HETATM    5  C   UNL     1     -11.786  15.563  68.575  1.00  0.00    -0.351 C  
ENDBRANCH   3   4
BRANCH   3   6
HETATM    6  C   UNL     1      -9.606  15.374  65.852  1.00  0.00    -0.351 C  
BRANCH   6   7
HETATM    7  C   UNL     1      -9.549  16.872  66.139  1.00  0.00    -0.280 A  
HETATM    8  C   UNL     1      -8.288  18.751  67.099  1.00  0.00    -0.281 A  
HETATM    9  C   UNL     1     -10.588  17.787  65.901  1.00  0.00    -0.205 A  
HETATM   10  C   UNL     1      -8.373  17.410  66.704  1.00  0.00    -0.263 A  
HETATM   11  C   UNL     1     -10.488  19.138  66.236  1.00  0.00    -0.551 A  
HETATM   12 CL   UNL     1      -6.984  16.412  66.968  1.00  0.00    -0.240 Cl 
HETATM   13  C   UNL     1      -9.349  19.617  66.859  1.00  0.00    -0.445 A  
ENDBRANCH   6   7
ENDBRANCH   3   6
BRANCH   3  14
HETATM   14  C   UNL     1     -10.237  12.900  66.345  1.00  0.00    -0.267 C  
BRANCH  14  15
HETATM   15  C   UNL     1      -8.797  12.442  66.762  1.00  0.00    -0.189 C  
BRANCH  15  16
HETATM   16  N   UNL     1      -8.624  11.851  68.082  1.00  0.00    -0.159 N  
HETATM   17  H   UNL     1      -8.630  12.441  68.913  1.00  0.00     0.000 HD 
HETATM   18  C   UNL     1      -8.451  10.475  68.202  1.00  0.00    -0.123 C  
HETATM   19  O   UNL     1      -8.623   9.690  67.285  1.00  0.00    -0.130 OA 
BRANCH  18  20
HETATM   20  C   UNL     1      -8.134   9.983  69.636  1.00  0.00    -0.172 C  
HETATM   21  N   UNL     1      -9.241   9.799  70.466  1.00  0.00    -0.345 N  
HETATM   22  O   UNL     1      -6.985   9.768  69.985  1.00  0.00    -0.074 OA 
HETATM   23  H   UNL     1     -10.128  10.259  70.264  1.00  0.00     0.000 HD 
BRANCH  21  24
HETATM   24  C   UNL     1      -9.097   8.933  71.631  1.00  0.00    -0.210 C  
BRANCH  24  25
HETATM   25  C   UNL     1      -9.237   7.413  71.346  1.00  0.00    -0.141 C  
BRANCH  25  26
HETATM   26  N   UNL     1     -10.493   6.750  71.962  1.00  0.00    -0.201 N  
BRANCH  26  27
HETATM   27  C   UNL     1     -10.083   5.730  73.064  1.00  0.00    -0.179 C  
HETATM   28  C   UNL     1     -11.089   4.618  73.328  1.00  0.00    -0.403 C  
ENDBRANCH  26  27
BRANCH  26  29
HETATM   29  C   UNL     1     -11.388   7.881  72.541  1.00  0.00    -0.390 C  
HETATM   30  C   UNL     1     -12.708   8.099  71.822  1.00  0.00    -0.356 C  
ENDBRANCH  26  29
BRANCH  26  31
HETATM   31  C   UNL     1     -11.286   5.955  70.859  1.00  0.00    -0.207 C  
BRANCH  31  32
HETATM   32  C   UNL     1     -10.728   5.896  69.447  1.00  0.00    -0.406 A  
HETATM   33  C   UNL     1     -11.160   6.816  68.468  1.00  0.00    -0.217 A  
HETATM   34  C   UNL     1     -10.763   6.701  67.131  1.00  0.00    -0.440 A  
HETATM   35  C   UNL     1      -9.941   5.654  66.738  1.00  0.00    -0.207 A  
HETATM   36  C   UNL     1      -9.484   4.743  67.686  1.00  0.00    -0.176 A  
HETATM   37  C   UNL     1      -9.864   4.866  69.027  1.00  0.00    -0.180 A  
HETATM   38 CL   UNL     1      -9.245   3.680  70.119  1.00  0.00    -0.204 Cl 
ENDBRANCH  31  32
ENDBRANCH  26  31
ENDBRANCH  25  26
ENDBRANCH  24  25
ENDBRANCH  21  24
ENDBRANCH  18  20
ENDBRANCH  15  16
ENDBRANCH  14  15
ENDBRANCH   3  14
ENDBRANCH   2   3
TORSDOF 15
ENDMDL
MODEL      157
REMARK 921   NORMALIZED FREE ENERGY PREDICTED BY IDOCK:   -4.65 KCAL/MOL
REMARK 922        TOTAL FREE ENERGY PREDICTED BY IDOCK:  -11.39 KCAL/MOL
REMARK 923 INTER-LIGAND FREE ENERGY PREDICTED BY IDOCK:   -9.56 KCAL/MOL
REMARK 924 INTRA-LIGAND FREE ENERGY PREDICTED BY IDOCK:   -1.83 KCAL/MOL
REMARK 927      BINDING AFFINITY PREDICTED BY RF-SCORE:    0.00 PKD
ROOT
HETATM    1  C   UNL     1     -12.763  10.254  71.407  1.00  0.00    -0.547 C  
HETATM    2  C   UNL     1     -12.224   8.853  71.161  1.00  0.00    -0.255 C  
ENDROOT
BRANCH   2   3
HETATM    3  N   UNL     1     -10.688   8.756  70.901  1.00  0.00    -0.214 N  
BRANCH   3   4
HETATM    4  C   UNL     1     -10.343   7.381  70.257  1.00  0.00    -0.212 C  
HETATM    5  C   UNL     1     -11.504   6.439  70.060  1.00  0.00    -0.496 C  
ENDBRANCH   3   4
BRANCH   3   6
HETATM    6  C   UNL     1      -9.914   8.768  72.240  1.00  0.00    -0.232 C  
BRANCH   6   7
HETATM    7  C   UNL     1      -9.654   7.503  73.052  1.00  0.00    -0.268 A  
HETATM    8  C   UNL     1      -8.016   5.853  73.849  1.00  0.00    -0.102 A  
HETATM    9  C   UNL     1     -10.640   6.707  73.657  1.00  0.00    -0.323 A  
HETATM   10  C   UNL     1      -8.323   7.064  73.215  1.00  0.00    -0.119 A  
HETATM   11  C   UNL     1     -10.336   5.530  74.343  1.00  0.00    -0.282 A  
HETATM   12 CL   UNL     1      -7.003   7.997  72.597  1.00  0.00    -0.091 Cl 
HETATM   13  C   UNL     1      -9.027   5.088  74.418  1.00  0.00    -0.111 A  
ENDBRANCH   6   7
ENDBRANCH   3   6
BRANCH   3  14
HETATM   14  C   UNL     1     -10.327   9.993  69.983  1.00  0.00    -0.272 C  
BRANCH  14  15
HETATM   15  C   UNL     1      -8.919   9.977  69.293  1.00  0.00    -0.178 C  
BRANCH  15  16
HETATM   16  N   UNL     1      -8.388  11.238  68.795  1.00  0.00    -0.251 N  
HETATM   17  H   UNL     1      -8.896  12.108  68.955  1.00  0.00     0.000 HD 
HETATM   18  C   UNL     1      -7.183  11.249  68.098  1.00  0.00    -0.081 C  
HETATM   19  O   UNL     1      -6.431  10.292  68.034  1.00  0.00    -0.060 OA 
BRANCH  18  20
HETATM   20  C   UNL     1      -6.794  12.622  67.495  1.00  0.00    -0.151 C  
HETATM   21  N   UNL     1      -7.852  13.510  67.293  1.00  0.00    -0.317 N  
HETATM   22  O   UNL     1      -5.632  12.885  67.235  1.00  0.00    -0.322 OA 
HETATM   23  H   UNL     1      -8.813  13.174  67.231  1.00  0.00     0.000 HD 
BRANCH  21  24
HETATM   24  C   UNL     1      -7.550  14.932  67.173  1.00  0.00    -0.110 C  
BRANCH  24  25
HETATM   25  C   UNL     1      -8.633  15.780  66.453  1.00  0.00    -0.311 C  
BRANCH  25  26
HETATM   26  N   UNL     1      -9.613  16.518  67.398  1.00  0.00    -0.236 N  
BRANCH  26  27
HETATM   27  C   UNL     1      -9.292  16.178  68.884  1.00  0.00    -0.235 C  
HETATM   28  C   UNL     1     -10.478  16.244  69.836  1.00  0.00    -0.222 C  
ENDBRANCH  26  27
BRANCH  26  29
HETATM   29  C   UNL     1      -9.479  18.041  67.123  1.00  0.00    -0.264 C  
HETATM   30  C   UNL     1     -10.779  18.825  67.147  1.00  0.00    -0.469 C  
ENDBRANCH  26  29
BRANCH  26  31
HETATM   31  C   UNL     1     -11.091  16.054  67.121  1.00  0.00    -0.104 C  
BRANCH  31  32
HETATM   32  C   UNL     1     -11.332  14.847  66.229  1.00  0.00    -0.306 A  
HETATM   33  C   UNL     1     -11.438  15.001  64.831  1.00  0.00    -0.399 A  
HETATM   34  C   UNL     1     -11.790  13.929  64.003  1.00  0.00    -0.372 A  
HETATM   35  C   UNL     1     -12.062  12.684  64.555  1.00  0.00    -0.485 A  
HETATM   36  C   UNL     1     -11.946  12.500  65.929  1.00  0.00    -0.472 A  
HETATM   37  C   UNL     1     -11.576  13.564  66.758  1.00  0.00    -0.363 A  
HETATM   38 CL   UNL     1     -11.466  13.228  68.449  1.00  0.00    -0.326 Cl 
ENDBRANCH  31  32
ENDBRANCH  26  31
ENDBRANCH  25  26
ENDBRANCH  24  25
ENDBRANCH  21  24
ENDBRANCH  18  20
ENDBRANCH  15  16
ENDBRANCH  14  15
ENDBRANCH   3  14
ENDBRANCH   2   3
TORSDOF 15
ENDMDL
MODEL      158
REMARK 921   NORMALIZED FREE ENERGY PREDICTED BY IDOCK:   -4.64 KCAL/MOL
REMARK 922        TOTAL FREE ENERGY PREDICTED BY IDOCK:  -11.38 KCAL/MOL
REMARK 923 INTER-LIGAND FREE ENERGY PREDICTED BY IDOCK:   -9.69 KCAL/MOL
REMARK 924 INTRA-LIGAND FREE ENERGY PREDICTED BY IDOCK:   -1.68 KCAL/MOL
REMARK 927      BINDING AFFINITY PREDICTED BY RF-SCORE:    0.00 PKD
ROOT
HETATM    1  C   UNL     1     -10.414  17.496  67.306  1.00  0.00    -0.327 C  
HETATM    2  C   UNL     1     -11.281  16.542  68.114  1.00  0.00    -0.241 C  
ENDROOT
BRANCH   2   3
HETATM    3  N   UNL     1     -10.960  15.025  67.940  1.00  0.00    -0.281 N  
BRANCH   3   4
HETATM    4  C   UNL     1     -12.210  14.276  67.394  1.00  0.00    -0.232 C  
HETATM    5  C   UNL     1     -12.077  13.702  66.006  1.00  0.00    -0.480 C  
ENDBRANCH   3   4
BRANCH   3   6
HETATM    6  C   UNL     1     -10.681  14.373  69.314  1.00  0.00    -0.206 C  
BRANCH   6   7
HETATM    7  C   UNL     1     -11.635  14.506  70.498  1.00  0.00    -0.295 A  
HETATM    8  C   UNL     1     -13.359  13.454  71.898  1.00  0.00    -0.539 A  
HETATM    9  C   UNL     1     -11.854  15.680  71.238  1.00  0.00    -0.473 A  
HETATM   10  C   UNL     1     -12.383  13.378  70.896  1.00  0.00    -0.353 A  
HETATM   11  C   UNL     1     -12.782  15.746  72.279  1.00  0.00    -0.525 A  
HETATM   12 CL   UNL     1     -12.147  11.846  70.128  1.00  0.00    -0.395 Cl 
HETATM   13  C   UNL     1     -13.554  14.642  72.593  1.00  0.00    -0.571 A  
ENDBRANCH   6   7
ENDBRANCH   3   6
BRANCH   3  14
HETATM   14  C   UNL     1      -9.709  14.957  66.974  1.00  0.00    -0.235 C  
BRANCH  14  15
HETATM   15  C   UNL     1      -8.435  14.220  67.515  1.00  0.00    -0.187 C  
BRANCH  15  16
HETATM   16  N   UNL     1      -8.161  12.878  67.024  1.00  0.00    -0.370 N  
HETATM   17  H   UNL     1      -8.924  12.286  66.695  1.00  0.00     0.000 HD 
HETATM   18  C   UNL     1      -6.851  12.407  67.003  1.00  0.00     0.000 C  
HETATM   19  O   UNL     1      -5.876  13.113  67.195  1.00  0.00    -0.332 OA 
BRANCH  18  20
HETATM   20  C   UNL     1      -6.702  10.919  66.596  1.00  0.00    -0.127 C  
HETATM   21  N   UNL     1      -7.151   9.991  67.538  1.00  0.00    -0.087 N  
HETATM   22  O   UNL     1      -6.231  10.610  65.515  1.00  0.00    -0.127 OA 
HETATM   23  H   UNL     1      -7.252  10.249  68.520  1.00  0.00     0.000 HD 
BRANCH  21  24
HETATM   24  C   UNL     1      -7.473   8.644  67.084  1.00  0.00    -0.088 C  
BRANCH  24  25
HETATM   25  C   UNL     1      -8.829   8.080  67.590  1.00  0.00    -0.125 C  
BRANCH  25  26
HETATM   26  N   UNL     1      -8.752   6.662  68.204  1.00  0.00    -0.118 N  
BRANCH  26  27
HETATM   27  C   UNL     1     -10.079   5.888  67.947  1.00  0.00    -0.162 C  
HETATM   28  C   UNL     1     -11.102   6.620  67.090  1.00  0.00    -0.427 C  
ENDBRANCH  26  27
BRANCH  26  29
HETATM   29  C   UNL     1      -7.538   5.933  67.565  1.00  0.00    -0.093 C  
HETATM   30  C   UNL     1      -7.798   4.508  67.110  1.00  0.00    -0.097 C  
ENDBRANCH  26  29
BRANCH  26  31
HETATM   31  C   UNL     1      -8.558   6.753  69.764  1.00  0.00    -0.141 C  
BRANCH  31  32
HETATM   32  C   UNL     1      -9.725   7.201  70.628  1.00  0.00    -0.175 A  
HETATM   33  C   UNL     1     -10.028   8.572  70.767  1.00  0.00    -0.230 A  
HETATM   34  C   UNL     1     -11.010   9.017  71.658  1.00  0.00    -0.435 A  
HETATM   35  C   UNL     1     -11.699   8.104  72.446  1.00  0.00    -0.461 A  
HETATM   36  C   UNL     1     -11.433   6.745  72.316  1.00  0.00    -0.314 A  
HETATM   37  C   UNL     1     -10.465   6.294  71.412  1.00  0.00    -0.219 A  
HETATM   38 CL   UNL     1     -10.212   4.588  71.334  1.00  0.00    -0.226 Cl 
ENDBRANCH  31  32
ENDBRANCH  26  31
ENDBRANCH  25  26
ENDBRANCH  24  25
ENDBRANCH  21  24
ENDBRANCH  18  20
ENDBRANCH  15  16
ENDBRANCH  14  15
ENDBRANCH   3  14
ENDBRANCH   2   3
TORSDOF 15
ENDMDL
MODEL      159
REMARK 921   NORMALIZED FREE ENERGY PREDICTED BY IDOCK:   -4.64 KCAL/MOL
REMARK 922        TOTAL FREE ENERGY PREDICTED BY IDOCK:  -11.37 KCAL/MOL
REMARK 923 INTER-LIGAND FREE ENERGY PREDICTED BY IDOCK:   -9.52 KCAL/MOL
REMARK 924 INTRA-LIGAND FREE ENERGY PREDICTED BY IDOCK:   -1.85 KCAL/MOL
REMARK 927      BINDING AFFINITY PREDICTED BY RF-SCORE:    0.00 PKD
ROOT
HETATM    1  C   UNL     1     -11.030  14.920  64.978  1.00  0.00    -0.432 C  
HETATM    2  C   UNL     1     -11.527  14.886  66.416  1.00  0.00    -0.280 C  
ENDROOT
BRANCH   2   3
HETATM    3  N   UNL     1     -10.419  14.846  67.513  1.00  0.00    -0.251 N  
BRANCH   3   4
HETATM    4  C   UNL     1     -10.704  13.691  68.516  1.00  0.00    -0.255 C  
HETATM    5  C   UNL     1     -11.626  12.605  68.023  1.00  0.00    -0.394 C  
ENDBRANCH   3   4
BRANCH   3   6
HETATM    6  C   UNL     1     -10.465  16.132  68.371  1.00  0.00    -0.274 C  
BRANCH   6   7
HETATM    7  C   UNL     1     -10.064  17.500  67.827  1.00  0.00    -0.330 A  
HETATM    8  C   UNL     1      -8.363  19.271  67.723  1.00  0.00    -0.335 A  
HETATM    9  C   UNL     1     -10.893  18.354  67.081  1.00  0.00    -0.271 A  
HETATM   10  C   UNL     1      -8.764  17.980  68.091  1.00  0.00    -0.272 A  
HETATM   11  C   UNL     1     -10.478  19.619  66.658  1.00  0.00    -0.610 A  
HETATM   12 CL   UNL     1      -7.611  16.994  68.924  1.00  0.00    -0.243 Cl 
HETATM   13  C   UNL     1      -9.223  20.089  67.001  1.00  0.00    -0.491 A  
ENDBRANCH   6   7
ENDBRANCH   3   6
BRANCH   3  14
HETATM   14  C   UNL     1      -9.049  14.687  66.737  1.00  0.00    -0.264 C  
BRANCH  14  15
HETATM   15  C   UNL     1      -8.024  13.651  67.314  1.00  0.00    -0.114 C  
BRANCH  15  16
HETATM   16  N   UNL     1      -8.057  12.293  66.791  1.00  0.00    -0.375 N  
HETATM   17  H   UNL     1      -8.948  11.854  66.560  1.00  0.00     0.000 HD 
HETATM   18  C   UNL     1      -6.865  11.598  66.607  1.00  0.00    -0.032 C  
HETATM   19  O   UNL     1      -5.763  12.115  66.675  1.00  0.00    -0.288 OA 
BRANCH  18  20
HETATM   20  C   UNL     1      -7.035  10.117  66.183  1.00  0.00    -0.113 C  
HETATM   21  N   UNL     1      -7.007   9.188  67.224  1.00  0.00    -0.077 N  
HETATM   22  O   UNL     1      -7.194   9.815  65.012  1.00  0.00    -0.114 OA 
HETATM   23  H   UNL     1      -6.583   9.421  68.122  1.00  0.00     0.000 HD 
BRANCH  21  24
HETATM   24  C   UNL     1      -7.597   7.874  66.997  1.00  0.00    -0.100 C  
BRANCH  24  25
HETATM   25  C   UNL     1      -7.627   6.938  68.235  1.00  0.00    -0.107 C  
BRANCH  25  26
HETATM   26  N   UNL     1      -8.963   6.185  68.448  1.00  0.00    -0.116 N  
BRANCH  26  27
HETATM   27  C   UNL     1      -9.248   5.237  67.246  1.00  0.00    -0.113 C  
HETATM   28  C   UNL     1     -10.596   5.435  66.568  1.00  0.00    -0.353 C  
ENDBRANCH  26  27
BRANCH  26  29
HETATM   29  C   UNL     1      -8.853   5.395  69.781  1.00  0.00    -0.110 C  
HETATM   30  C   UNL     1      -9.289   3.942  69.715  1.00  0.00    -0.242 C  
ENDBRANCH  26  29
BRANCH  26  31
HETATM   31  C   UNL     1     -10.156   7.208  68.531  1.00  0.00    -0.168 C  
BRANCH  31  32
HETATM   32  C   UNL     1     -10.780   7.507  69.884  1.00  0.00    -0.254 A  
HETATM   33  C   UNL     1     -11.861   6.735  70.360  1.00  0.00    -0.395 A  
HETATM   34  C   UNL     1     -12.536   7.071  71.538  1.00  0.00    -0.426 A  
HETATM   35  C   UNL     1     -12.161   8.197  72.257  1.00  0.00    -0.419 A  
HETATM   36  C   UNL     1     -11.087   8.966  71.821  1.00  0.00    -0.433 A  
HETATM   37  C   UNL     1     -10.396   8.623  70.654  1.00  0.00    -0.202 A  
HETATM   38 CL   UNL     1      -9.082   9.648  70.200  1.00  0.00    -0.270 Cl 
ENDBRANCH  31  32
ENDBRANCH  26  31
ENDBRANCH  25  26
ENDBRANCH  24  25
ENDBRANCH  21  24
ENDBRANCH  18  20
ENDBRANCH  15  16
ENDBRANCH  14  15
ENDBRANCH   3  14
ENDBRANCH   2   3
TORSDOF 15
ENDMDL
MODEL      160
REMARK 921   NORMALIZED FREE ENERGY PREDICTED BY IDOCK:   -4.63 KCAL/MOL
REMARK 922        TOTAL FREE ENERGY PREDICTED BY IDOCK:  -11.36 KCAL/MOL
REMARK 923 INTER-LIGAND FREE ENERGY PREDICTED BY IDOCK:   -9.43 KCAL/MOL
REMARK 924 INTRA-LIGAND FREE ENERGY PREDICTED BY IDOCK:   -1.93 KCAL/MOL
REMARK 927      BINDING AFFINITY PREDICTED BY RF-SCORE:    0.00 PKD
ROOT
HETATM    1  C   UNL     1     -10.264  17.514  66.331  1.00  0.00    -0.354 C  
HETATM    2  C   UNL     1     -10.070  16.188  67.051  1.00  0.00    -0.270 C  
ENDROOT
BRANCH   2   3
HETATM    3  N   UNL     1     -10.655  14.934  66.329  1.00  0.00    -0.299 N  
BRANCH   3   4
HETATM    4  C   UNL     1     -11.191  15.332  64.923  1.00  0.00    -0.415 C  
HETATM    5  C   UNL     1     -12.390  14.558  64.436  1.00  0.00    -0.437 C  
ENDBRANCH   3   4
BRANCH   3   6
HETATM    6  C   UNL     1     -11.894  14.406  67.088  1.00  0.00    -0.410 C  
BRANCH   6   7
HETATM    7  C   UNL     1     -12.017  14.465  68.608  1.00  0.00    -0.332 A  
HETATM    8  C   UNL     1     -12.255  13.227  70.717  1.00  0.00    -0.390 A  
HETATM    9  C   UNL     1     -12.134  15.640  69.369  1.00  0.00    -0.287 A  
HETATM   10  C   UNL     1     -12.031  13.256  69.335  1.00  0.00    -0.301 A  
HETATM   11  C   UNL     1     -12.296  15.620  70.756  1.00  0.00    -0.466 A  
HETATM   12 CL   UNL     1     -11.807  11.740  68.531  1.00  0.00    -0.384 Cl 
HETATM   13  C   UNL     1     -12.383  14.414  71.428  1.00  0.00    -0.433 A  
ENDBRANCH   6   7
ENDBRANCH   3   6
BRANCH   3  14
HETATM   14  C   UNL     1      -9.479  13.876  66.282  1.00  0.00    -0.215 C  
BRANCH  14  15
HETATM   15  C   UNL     1      -8.616  13.716  67.581  1.00  0.00    -0.185 C  
BRANCH  15  16
HETATM   16  N   UNL     1      -8.615  12.421  68.245  1.00  0.00    -0.193 N  
HETATM   17  H   UNL     1      -9.495  11.979  68.511  1.00  0.00     0.000 HD 
HETATM   18  C   UNL     1      -7.405  11.788  68.515  1.00  0.00    -0.103 C  
HETATM   19  O   UNL     1      -6.334  12.155  68.062  1.00  0.00    -0.058 OA 
BRANCH  18  20
HETATM   20  C   UNL     1      -7.524  10.488  69.351  1.00  0.00    -0.141 C  
HETATM   21  N   UNL     1      -8.811  10.171  69.788  1.00  0.00    -0.351 N  
HETATM   22  O   UNL     1      -6.543   9.803  69.585  1.00  0.00    -0.044 OA 
HETATM   23  H   UNL     1      -9.536  10.887  69.842  1.00  0.00     0.000 HD 
BRANCH  21  24
HETATM   24  C   UNL     1      -9.094   8.792  70.165  1.00  0.00    -0.167 C  
BRANCH  24  25
HETATM   25  C   UNL     1     -10.205   8.093  69.335  1.00  0.00    -0.211 C  
BRANCH  25  26
HETATM   26  N   UNL     1      -9.693   7.037  68.325  1.00  0.00    -0.134 N  
BRANCH  26  27
HETATM   27  C   UNL     1      -9.158   5.783  69.077  1.00  0.00    -0.116 C  
HETATM   28  C   UNL     1     -10.116   5.176  70.092  1.00  0.00    -0.342 C  
ENDBRANCH  26  27
BRANCH  26  29
HETATM   29  C   UNL     1     -10.873   6.673  67.382  1.00  0.00    -0.363 C  
HETATM   30  C   UNL     1     -10.643   5.471  66.484  1.00  0.00    -0.343 C  
ENDBRANCH  26  29
BRANCH  26  31
HETATM   31  C   UNL     1      -8.500   7.624  67.483  1.00  0.00    -0.116 C  
BRANCH  31  32
HETATM   32  C   UNL     1      -8.802   8.559  66.325  1.00  0.00    -0.187 A  
HETATM   33  C   UNL     1      -9.753   9.591  66.468  1.00  0.00    -0.284 A  
HETATM   34  C   UNL     1     -10.145  10.380  65.381  1.00  0.00    -0.354 A  
HETATM   35  C   UNL     1      -9.610  10.144  64.122  1.00  0.00    -0.336 A  
HETATM   36  C   UNL     1      -8.656   9.145  63.956  1.00  0.00    -0.186 A  
HETATM   37  C   UNL     1      -8.247   8.367  65.044  1.00  0.00    -0.153 A  
HETATM   38 CL   UNL     1      -7.061   7.152  64.726  1.00  0.00    -0.065 Cl 
ENDBRANCH  31  32
ENDBRANCH  26  31
ENDBRANCH  25  26
ENDBRANCH  24  25
ENDBRANCH  21  24
ENDBRANCH  18  20
ENDBRANCH  15  16
ENDBRANCH  14  15
ENDBRANCH   3  14
ENDBRANCH   2   3
TORSDOF 15
ENDMDL
MODEL      161
REMARK 921   NORMALIZED FREE ENERGY PREDICTED BY IDOCK:   -4.63 KCAL/MOL
REMARK 922        TOTAL FREE ENERGY PREDICTED BY IDOCK:  -11.34 KCAL/MOL
REMARK 923 INTER-LIGAND FREE ENERGY PREDICTED BY IDOCK:   -9.72 KCAL/MOL
REMARK 924 INTRA-LIGAND FREE ENERGY PREDICTED BY IDOCK:   -1.62 KCAL/MOL
REMARK 927      BINDING AFFINITY PREDICTED BY RF-SCORE:    0.00 PKD
ROOT
HETATM    1  C   UNL     1     -12.264   9.238  72.022  1.00  0.00    -0.418 C  
HETATM    2  C   UNL     1     -12.350   7.882  71.336  1.00  0.00    -0.312 C  
ENDROOT
BRANCH   2   3
HETATM    3  N   UNL     1     -11.101   7.469  70.497  1.00  0.00    -0.257 N  
BRANCH   3   4
HETATM    4  C   UNL     1     -11.471   6.307  69.530  1.00  0.00    -0.317 C  
HETATM    5  C   UNL     1     -10.977   6.450  68.113  1.00  0.00    -0.393 C  
ENDBRANCH   3   4
BRANCH   3   6
HETATM    6  C   UNL     1     -10.005   6.881  71.417  1.00  0.00    -0.181 C  
BRANCH   6   7
HETATM    7  C   UNL     1     -10.162   5.544  72.134  1.00  0.00    -0.247 A  
HETATM    8  C   UNL     1      -9.625   3.146  72.187  1.00  0.00    -0.209 A  
HETATM    9  C   UNL     1     -10.986   5.309  73.248  1.00  0.00    -0.369 A  
HETATM   10  C   UNL     1      -9.445   4.428  71.653  1.00  0.00    -0.153 A  
HETATM   11  C   UNL     1     -11.124   4.044  73.824  1.00  0.00    -0.296 A  
HETATM   12 CL   UNL     1      -8.326   4.596  70.343  1.00  0.00    -0.075 Cl 
HETATM   13  C   UNL     1     -10.464   2.957  73.279  1.00  0.00    -0.248 A  
ENDBRANCH   6   7
ENDBRANCH   3   6
BRANCH   3  14
HETATM   14  C   UNL     1     -10.625   8.783  69.755  1.00  0.00    -0.224 C  
BRANCH  14  15
HETATM   15  C   UNL     1      -9.091   9.102  69.792  1.00  0.00    -0.167 C  
BRANCH  15  16
HETATM   16  N   UNL     1      -8.679  10.492  69.668  1.00  0.00    -0.392 N  
HETATM   17  H   UNL     1      -9.326  11.243  69.910  1.00  0.00     0.000 HD 
HETATM   18  C   UNL     1      -7.396  10.792  69.219  1.00  0.00    -0.129 C  
HETATM   19  O   UNL     1      -6.511   9.962  69.097  1.00  0.00    -0.047 OA 
BRANCH  18  20
HETATM   20  C   UNL     1      -7.123  12.300  68.993  1.00  0.00    -0.051 C  
HETATM   21  N   UNL     1      -8.187  13.030  68.459  1.00  0.00    -0.288 N  
HETATM   22  O   UNL     1      -6.045  12.792  69.282  1.00  0.00    -0.085 OA 
HETATM   23  H   UNL     1      -8.942  12.562  67.958  1.00  0.00     0.000 HD 
BRANCH  21  24
HETATM   24  C   UNL     1      -8.192  14.477  68.635  1.00  0.00    -0.152 C  
BRANCH  24  25
HETATM   25  C   UNL     1      -9.171  15.253  67.712  1.00  0.00    -0.187 C  
BRANCH  25  26
HETATM   26  N   UNL     1     -10.516  15.641  68.373  1.00  0.00    -0.237 N  
BRANCH  26  27
HETATM   27  C   UNL     1     -10.522  15.225  69.873  1.00  0.00    -0.262 C  
HETATM   28  C   UNL     1     -11.573  15.913  70.734  1.00  0.00    -0.441 C  
ENDBRANCH  26  27
BRANCH  26  29
HETATM   29  C   UNL     1     -10.697  17.176  68.209  1.00  0.00    -0.363 C  
HETATM   30  C   UNL     1      -9.416  17.967  68.017  1.00  0.00    -0.284 C  
ENDBRANCH  26  29
BRANCH  26  31
HETATM   31  C   UNL     1     -11.706  14.886  67.672  1.00  0.00    -0.307 C  
BRANCH  31  32
HETATM   32  C   UNL     1     -11.396  13.850  66.605  1.00  0.00    -0.342 A  
HETATM   33  C   UNL     1     -11.317  12.481  66.938  1.00  0.00    -0.383 A  
HETATM   34  C   UNL     1     -10.906  11.524  66.004  1.00  0.00    -0.330 A  
HETATM   35  C   UNL     1     -10.545  11.915  64.722  1.00  0.00    -0.346 A  
HETATM   36  C   UNL     1     -10.632  13.255  64.360  1.00  0.00    -0.438 A  
HETATM   37  C   UNL     1     -11.062  14.213  65.285  1.00  0.00    -0.331 A  
HETATM   38 CL   UNL     1     -11.128  15.848  64.734  1.00  0.00    -0.454 Cl 
ENDBRANCH  31  32
ENDBRANCH  26  31
ENDBRANCH  25  26
ENDBRANCH  24  25
ENDBRANCH  21  24
ENDBRANCH  18  20
ENDBRANCH  15  16
ENDBRANCH  14  15
ENDBRANCH   3  14
ENDBRANCH   2   3
TORSDOF 15
ENDMDL
MODEL      162
REMARK 921   NORMALIZED FREE ENERGY PREDICTED BY IDOCK:   -4.62 KCAL/MOL
REMARK 922        TOTAL FREE ENERGY PREDICTED BY IDOCK:  -11.32 KCAL/MOL
REMARK 923 INTER-LIGAND FREE ENERGY PREDICTED BY IDOCK:   -9.52 KCAL/MOL
REMARK 924 INTRA-LIGAND FREE ENERGY PREDICTED BY IDOCK:   -1.81 KCAL/MOL
REMARK 927      BINDING AFFINITY PREDICTED BY RF-SCORE:    0.00 PKD
ROOT
HETATM    1  C   UNL     1     -12.236  13.222  63.475  1.00  0.00    -0.513 C  
HETATM    2  C   UNL     1     -12.363  12.506  64.812  1.00  0.00    -0.474 C  
ENDROOT
BRANCH   2   3
HETATM    3  N   UNL     1     -11.439  13.034  65.952  1.00  0.00    -0.323 N  
BRANCH   3   4
HETATM    4  C   UNL     1     -11.874  12.424  67.316  1.00  0.00    -0.287 C  
HETATM    5  C   UNL     1     -10.784  12.274  68.346  1.00  0.00    -0.255 C  
ENDBRANCH   3   4
BRANCH   3   6
HETATM    6  C   UNL     1     -11.620  14.560  66.129  1.00  0.00    -0.365 C  
BRANCH   6   7
HETATM    7  C   UNL     1     -10.496  15.474  66.607  1.00  0.00    -0.299 A  
HETATM    8  C   UNL     1      -9.686  17.042  68.317  1.00  0.00    -0.275 A  
HETATM    9  C   UNL     1      -9.323  15.765  65.890  1.00  0.00    -0.356 A  
HETATM   10  C   UNL     1     -10.622  16.103  67.863  1.00  0.00    -0.309 A  
HETATM   11  C   UNL     1      -8.357  16.653  66.365  1.00  0.00    -0.353 A  
HETATM   12 CL   UNL     1     -11.973  15.764  68.889  1.00  0.00    -0.355 Cl 
HETATM   13  C   UNL     1      -8.549  17.312  67.566  1.00  0.00    -0.213 A  
ENDBRANCH   6   7
ENDBRANCH   3   6
BRANCH   3  14
HETATM   14  C   UNL     1      -9.965  12.647  65.527  1.00  0.00    -0.224 C  
BRANCH  14  15
HETATM   15  C   UNL     1      -9.776  11.276  64.792  1.00  0.00    -0.256 C  
BRANCH  15  16
HETATM   16  N   UNL     1      -9.744  10.065  65.600  1.00  0.00    -0.251 N  
HETATM   17  H   UNL     1     -10.260  10.022  66.478  1.00  0.00     0.000 HD 
HETATM   18  C   UNL     1      -9.006   8.968  65.166  1.00  0.00    -0.165 C  
HETATM   19  O   UNL     1      -8.526   8.875  64.049  1.00  0.00    -0.176 OA 
BRANCH  18  20
HETATM   20  C   UNL     1      -8.932   7.795  66.176  1.00  0.00    -0.163 C  
HETATM   21  N   UNL     1      -8.211   8.052  67.343  1.00  0.00    -0.121 N  
HETATM   22  O   UNL     1      -9.487   6.734  65.945  1.00  0.00    -0.003 OA 
HETATM   23  H   UNL     1      -7.525   8.807  67.379  1.00  0.00     0.000 HD 
BRANCH  21  24
HETATM   24  C   UNL     1      -8.460   7.216  68.511  1.00  0.00    -0.125 C  
BRANCH  24  25
HETATM   25  C   UNL     1      -9.349   7.860  69.609  1.00  0.00    -0.153 C  
BRANCH  25  26
HETATM   26  N   UNL     1      -8.607   8.212  70.921  1.00  0.00    -0.130 N  
BRANCH  26  27
HETATM   27  C   UNL     1      -7.684   7.034  71.354  1.00  0.00    -0.094 C  
HETATM   28  C   UNL     1      -8.086   6.335  72.645  1.00  0.00    -0.106 C  
ENDBRANCH  26  27
BRANCH  26  29
HETATM   29  C   UNL     1      -7.790   9.509  70.669  1.00  0.00    -0.117 C  
HETATM   30  C   UNL     1      -6.310   9.422  70.999  1.00  0.00    -0.082 C  
ENDBRANCH  26  29
BRANCH  26  31
HETATM   31  C   UNL     1      -9.639   8.450  72.085  1.00  0.00    -0.297 C  
BRANCH  31  32
HETATM   32  C   UNL     1     -11.106   8.648  71.742  1.00  0.00    -0.396 A  
HETATM   33  C   UNL     1     -11.602   9.933  71.436  1.00  0.00    -0.428 A  
HETATM   34  C   UNL     1     -12.970  10.162  71.246  1.00  0.00    -0.510 A  
HETATM   35  C   UNL     1     -13.875   9.118  71.377  1.00  0.00    -0.288 A  
HETATM   36  C   UNL     1     -13.411   7.837  71.660  1.00  0.00    -0.401 A  
HETATM   37  C   UNL     1     -12.043   7.599  71.831  1.00  0.00    -0.298 A  
HETATM   38 CL   UNL     1     -11.576   5.974  72.183  1.00  0.00    -0.358 Cl 
ENDBRANCH  31  32
ENDBRANCH  26  31
ENDBRANCH  25  26
ENDBRANCH  24  25
ENDBRANCH  21  24
ENDBRANCH  18  20
ENDBRANCH  15  16
ENDBRANCH  14  15
ENDBRANCH   3  14
ENDBRANCH   2   3
TORSDOF 15
ENDMDL
MODEL      163
REMARK 921   NORMALIZED FREE ENERGY PREDICTED BY IDOCK:   -4.60 KCAL/MOL
REMARK 922        TOTAL FREE ENERGY PREDICTED BY IDOCK:  -11.29 KCAL/MOL
REMARK 923 INTER-LIGAND FREE ENERGY PREDICTED BY IDOCK:   -9.21 KCAL/MOL
REMARK 924 INTRA-LIGAND FREE ENERGY PREDICTED BY IDOCK:   -2.08 KCAL/MOL
REMARK 927      BINDING AFFINITY PREDICTED BY RF-SCORE:    0.00 PKD
ROOT
HETATM    1  C   UNL     1     -11.110   6.739  67.173  1.00  0.00    -0.404 C  
HETATM    2  C   UNL     1     -11.016   6.114  68.557  1.00  0.00    -0.320 C  
ENDROOT
BRANCH   2   3
HETATM    3  N   UNL     1      -9.586   6.059  69.178  1.00  0.00    -0.130 N  
BRANCH   3   4
HETATM    4  C   UNL     1      -9.254   4.604  69.620  1.00  0.00    -0.124 C  
HETATM    5  C   UNL     1      -8.989   4.410  71.092  1.00  0.00    -0.167 C  
ENDBRANCH   3   4
BRANCH   3   6
HETATM    6  C   UNL     1      -9.534   6.888  70.483  1.00  0.00    -0.169 C  
BRANCH   6   7
HETATM    7  C   UNL     1     -10.539   7.991  70.799  1.00  0.00    -0.228 A  
HETATM    8  C   UNL     1     -12.699   8.602  71.800  1.00  0.00    -0.401 A  
HETATM    9  C   UNL     1     -10.442   9.326  70.373  1.00  0.00    -0.296 A  
HETATM   10  C   UNL     1     -11.678   7.671  71.567  1.00  0.00    -0.281 A  
HETATM   11  C   UNL     1     -11.427  10.275  70.654  1.00  0.00    -0.435 A  
HETATM   12 CL   UNL     1     -11.879   6.085  72.230  1.00  0.00    -0.355 Cl 
HETATM   13  C   UNL     1     -12.568   9.908  71.344  1.00  0.00    -0.497 A  
ENDBRANCH   6   7
ENDBRANCH   3   6
BRANCH   3  14
HETATM   14  C   UNL     1      -8.611   6.621  68.067  1.00  0.00    -0.118 C  
BRANCH  14  15
HETATM   15  C   UNL     1      -7.256   7.239  68.558  1.00  0.00    -0.094 C  
BRANCH  15  16
HETATM   16  N   UNL     1      -7.178   8.685  68.707  1.00  0.00    -0.074 N  
HETATM   17  H   UNL     1      -7.231   9.109  69.633  1.00  0.00     0.000 HD 
HETATM   18  C   UNL     1      -7.031   9.485  67.578  1.00  0.00    -0.084 C  
HETATM   19  O   UNL     1      -6.769   9.049  66.469  1.00  0.00    -0.073 OA 
BRANCH  18  20
HETATM   20  C   UNL     1      -7.105  11.009  67.847  1.00  0.00    -0.081 C  
HETATM   21  N   UNL     1      -8.357  11.593  67.649  1.00  0.00    -0.136 N  
HETATM   22  O   UNL     1      -6.122  11.628  68.218  1.00  0.00    -0.049 OA 
HETATM   23  H   UNL     1      -9.061  11.138  67.068  1.00  0.00     0.000 HD 
BRANCH  21  24
HETATM   24  C   UNL     1      -8.635  12.871  68.295  1.00  0.00    -0.170 C  
BRANCH  24  25
HETATM   25  C   UNL     1      -9.407  13.899  67.423  1.00  0.00    -0.228 C  
BRANCH  25  26
HETATM   26  N   UNL     1     -10.947  13.737  67.441  1.00  0.00    -0.280 N  
BRANCH  26  27
HETATM   27  C   UNL     1     -11.430  13.007  66.153  1.00  0.00    -0.340 C  
HETATM   28  C   UNL     1     -12.755  13.498  65.587  1.00  0.00    -0.478 C  
ENDBRANCH  26  27
BRANCH  26  29
HETATM   29  C   UNL     1     -11.324  12.939  68.720  1.00  0.00    -0.290 C  
HETATM   30  C   UNL     1     -12.021  13.740  69.806  1.00  0.00    -0.406 C  
ENDBRANCH  26  29
BRANCH  26  31
HETATM   31  C   UNL     1     -11.643  15.149  67.469  1.00  0.00    -0.257 C  
BRANCH  31  32
HETATM   32  C   UNL     1     -10.779  16.398  67.459  1.00  0.00    -0.298 A  
HETATM   33  C   UNL     1     -10.389  17.009  68.670  1.00  0.00    -0.351 A  
HETATM   34  C   UNL     1      -9.707  18.230  68.686  1.00  0.00    -0.379 A  
HETATM   35  C   UNL     1      -9.416  18.880  67.495  1.00  0.00    -0.340 A  
HETATM   36  C   UNL     1      -9.771  18.291  66.285  1.00  0.00    -0.293 A  
HETATM   37  C   UNL     1     -10.436  17.061  66.263  1.00  0.00    -0.258 A  
HETATM   38 CL   UNL     1     -10.835  16.422  64.709  1.00  0.00    -0.329 Cl 
ENDBRANCH  31  32
ENDBRANCH  26  31
ENDBRANCH  25  26
ENDBRANCH  24  25
ENDBRANCH  21  24
ENDBRANCH  18  20
ENDBRANCH  15  16
ENDBRANCH  14  15
ENDBRANCH   3  14
ENDBRANCH   2   3
TORSDOF 15
ENDMDL
MODEL      164
REMARK 921   NORMALIZED FREE ENERGY PREDICTED BY IDOCK:   -4.60 KCAL/MOL
REMARK 922        TOTAL FREE ENERGY PREDICTED BY IDOCK:  -11.29 KCAL/MOL
REMARK 923 INTER-LIGAND FREE ENERGY PREDICTED BY IDOCK:   -9.41 KCAL/MOL
REMARK 924 INTRA-LIGAND FREE ENERGY PREDICTED BY IDOCK:   -1.88 KCAL/MOL
REMARK 927      BINDING AFFINITY PREDICTED BY RF-SCORE:    0.00 PKD
ROOT
HETATM    1  C   UNL     1     -10.618  18.764  67.228  1.00  0.00    -0.504 C  
HETATM    2  C   UNL     1     -10.243  17.805  68.349  1.00  0.00    -0.384 C  
ENDROOT
BRANCH   2   3
HETATM    3  N   UNL     1      -9.188  16.716  67.982  1.00  0.00    -0.219 N  
BRANCH   3   4
HETATM    4  C   UNL     1      -8.670  16.020  69.274  1.00  0.00    -0.224 C  
HETATM    5  C   UNL     1      -7.757  14.839  69.063  1.00  0.00    -0.145 C  
ENDBRANCH   3   4
BRANCH   3   6
HETATM    6  C   UNL     1      -7.933  17.371  67.359  1.00  0.00    -0.198 C  
BRANCH   6   7
HETATM    7  C   UNL     1      -7.224  18.563  67.996  1.00  0.00    -0.257 A  
HETATM    8  C   UNL     1      -6.240  20.794  67.689  1.00  0.00    -0.342 A  
HETATM    9  C   UNL     1      -6.764  18.623  69.321  1.00  0.00    -0.266 A  
HETATM   10  C   UNL     1      -6.984  19.709  67.208  1.00  0.00    -0.207 A  
HETATM   11  C   UNL     1      -6.074  19.727  69.825  1.00  0.00    -0.362 A  
HETATM   12 CL   UNL     1      -7.575  19.804  65.585  1.00  0.00    -0.293 Cl 
HETATM   13  C   UNL     1      -5.788  20.802  69.003  1.00  0.00    -0.377 A  
ENDBRANCH   6   7
ENDBRANCH   3   6
BRANCH   3  14
HETATM   14  C   UNL     1      -9.915  15.731  66.980  1.00  0.00    -0.239 C  
BRANCH  14  15
HETATM   15  C   UNL     1     -11.274  15.110  67.456  1.00  0.00    -0.330 C  
BRANCH  15  16
HETATM   16  N   UNL     1     -11.237  13.818  68.127  1.00  0.00    -0.259 N  
HETATM   17  H   UNL     1     -10.860  13.741  69.071  1.00  0.00     0.000 HD 
HETATM   18  C   UNL     1     -11.721  12.689  67.472  1.00  0.00    -0.368 C  
HETATM   19  O   UNL     1     -12.356  12.732  66.432  1.00  0.00    -0.500 OA 
BRANCH  18  20
HETATM   20  C   UNL     1     -11.497  11.355  68.227  1.00  0.00    -0.299 C  
HETATM   21  N   UNL     1     -11.245  11.474  69.595  1.00  0.00    -0.417 N  
HETATM   22  O   UNL     1     -11.555  10.287  67.641  1.00  0.00    -0.299 OA 
HETATM   23  H   UNL     1     -10.909  12.352  69.990  1.00  0.00     0.000 HD 
BRANCH  21  24
HETATM   24  C   UNL     1     -11.474  10.312  70.445  1.00  0.00    -0.335 C  
BRANCH  24  25
HETATM   25  C   UNL     1     -10.196   9.684  71.067  1.00  0.00    -0.182 C  
BRANCH  25  26
HETATM   26  N   UNL     1      -9.954   8.201  70.693  1.00  0.00    -0.188 N  
BRANCH  26  27
HETATM   27  C   UNL     1      -9.852   7.329  71.979  1.00  0.00    -0.161 C  
HETATM   28  C   UNL     1     -10.894   7.625  73.049  1.00  0.00    -0.457 C  
ENDBRANCH  26  27
BRANCH  26  29
HETATM   29  C   UNL     1     -11.131   7.743  69.788  1.00  0.00    -0.089 C  
HETATM   30  C   UNL     1     -11.371   6.245  69.740  1.00  0.00    -0.506 C  
ENDBRANCH  26  29
BRANCH  26  31
HETATM   31  C   UNL     1      -8.594   8.051  69.916  1.00  0.00    -0.135 C  
BRANCH  31  32
HETATM   32  C   UNL     1      -8.368   8.870  68.656  1.00  0.00    -0.124 A  
HETATM   33  C   UNL     1      -8.044  10.241  68.742  1.00  0.00    -0.120 A  
HETATM   34  C   UNL     1      -7.961  11.045  67.601  1.00  0.00    -0.115 A  
HETATM   35  C   UNL     1      -8.219  10.504  66.348  1.00  0.00    -0.140 A  
HETATM   36  C   UNL     1      -8.522   9.151  66.232  1.00  0.00    -0.131 A  
HETATM   37  C   UNL     1      -8.587   8.339  67.369  1.00  0.00    -0.125 A  
HETATM   38 CL   UNL     1      -8.975   6.675  67.113  1.00  0.00    -0.117 Cl 
ENDBRANCH  31  32
ENDBRANCH  26  31
ENDBRANCH  25  26
ENDBRANCH  24  25
ENDBRANCH  21  24
ENDBRANCH  18  20
ENDBRANCH  15  16
ENDBRANCH  14  15
ENDBRANCH   3  14
ENDBRANCH   2   3
TORSDOF 15
ENDMDL
MODEL      165
REMARK 921   NORMALIZED FREE ENERGY PREDICTED BY IDOCK:   -4.58 KCAL/MOL
REMARK 922        TOTAL FREE ENERGY PREDICTED BY IDOCK:  -11.25 KCAL/MOL
REMARK 923 INTER-LIGAND FREE ENERGY PREDICTED BY IDOCK:  -10.17 KCAL/MOL
REMARK 924 INTRA-LIGAND FREE ENERGY PREDICTED BY IDOCK:   -1.09 KCAL/MOL
REMARK 927      BINDING AFFINITY PREDICTED BY RF-SCORE:    0.00 PKD
ROOT
HETATM    1  C   UNL     1     -10.999  15.861  65.677  1.00  0.00    -0.207 C  
HETATM    2  C   UNL     1     -10.191  17.086  66.079  1.00  0.00    -0.325 C  
ENDROOT
BRANCH   2   3
HETATM    3  N   UNL     1     -10.012  17.304  67.613  1.00  0.00    -0.286 N  
BRANCH   3   4
HETATM    4  C   UNL     1     -10.470  18.739  68.004  1.00  0.00    -0.352 C  
HETATM    5  C   UNL     1     -10.503  19.746  66.882  1.00  0.00    -0.596 C  
ENDBRANCH   3   4
BRANCH   3   6
HETATM    6  C   UNL     1      -8.514  17.252  67.994  1.00  0.00    -0.229 C  
BRANCH   6   7
HETATM    7  C   UNL     1      -7.464  18.135  67.326  1.00  0.00    -0.223 A  
HETATM    8  C   UNL     1      -6.060  20.147  67.461  1.00  0.00    -0.228 A  
HETATM    9  C   UNL     1      -6.968  17.966  66.022  1.00  0.00    -0.346 A  
HETATM   10  C   UNL     1      -6.939  19.228  68.047  1.00  0.00    -0.252 A  
HETATM   11  C   UNL     1      -6.044  18.845  65.453  1.00  0.00    -0.289 A  
HETATM   12 CL   UNL     1      -7.397  19.501  69.694  1.00  0.00    -0.187 Cl 
HETATM   13  C   UNL     1      -5.609  19.950  66.162  1.00  0.00    -0.173 A  
ENDBRANCH   6   7
ENDBRANCH   3   6
BRANCH   3  14
HETATM   14  C   UNL     1     -10.852  16.160  68.313  1.00  0.00    -0.326 C  
BRANCH  14  15
HETATM   15  C   UNL     1     -10.776  16.079  69.877  1.00  0.00    -0.334 C  
BRANCH  15  16
HETATM   16  N   UNL     1     -11.229  14.854  70.520  1.00  0.00    -0.423 N  
HETATM   17  H   UNL     1     -10.662  14.008  70.471  1.00  0.00     0.000 HD 
HETATM   18  C   UNL     1     -12.441  14.845  71.205  1.00  0.00    -0.329 C  
HETATM   19  O   UNL     1     -13.075  15.852  71.471  1.00  0.00    -0.464 OA 
BRANCH  18  20
HETATM   20  C   UNL     1     -12.883  13.453  71.723  1.00  0.00    -0.289 C  
HETATM   21  N   UNL     1     -12.627  12.383  70.864  1.00  0.00    -0.310 N  
HETATM   22  O   UNL     1     -13.407  13.330  72.817  1.00  0.00    -0.487 OA 
HETATM   23  H   UNL     1     -12.476  12.538  69.867  1.00  0.00     0.000 HD 
BRANCH  21  24
HETATM   24  C   UNL     1     -12.581  11.039  71.426  1.00  0.00    -0.393 C  
BRANCH  24  25
HETATM   25  C   UNL     1     -12.627   9.885  70.387  1.00  0.00    -0.000 C  
BRANCH  25  26
HETATM   26  N   UNL     1     -11.445   8.888  70.472  1.00  0.00    -0.238 N  
BRANCH  26  27
HETATM   27  C   UNL     1     -10.344   9.434  71.429  1.00  0.00    -0.256 C  
HETATM   28  C   UNL     1      -9.103   8.561  71.556  1.00  0.00    -0.281 C  
ENDBRANCH  26  27
BRANCH  26  29
HETATM   29  C   UNL     1     -12.008   7.529  70.972  1.00  0.00    -0.290 C  
HETATM   30  C   UNL     1     -13.333   7.604  71.710  1.00  0.00    -0.364 C  
ENDBRANCH  26  29
BRANCH  26  31
HETATM   31  C   UNL     1     -10.785   8.703  69.056  1.00  0.00    -0.101 C  
BRANCH  31  32
HETATM   32  C   UNL     1     -10.405   9.935  68.251  1.00  0.00    -0.232 A  
HETATM   33  C   UNL     1     -11.343  10.967  68.036  1.00  0.00    -0.382 A  
HETATM   34  C   UNL     1     -11.061  12.046  67.191  1.00  0.00    -0.344 A  
HETATM   35  C   UNL     1      -9.843  12.110  66.527  1.00  0.00    -0.232 A  
HETATM   36  C   UNL     1      -8.892  11.116  66.736  1.00  0.00    -0.162 A  
HETATM   37  C   UNL     1      -9.163  10.045  67.595  1.00  0.00    -0.137 A  
HETATM   38 CL   UNL     1      -7.915   8.865  67.779  1.00  0.00    -0.102 Cl 
ENDBRANCH  31  32
ENDBRANCH  26  31
ENDBRANCH  25  26
ENDBRANCH  24  25
ENDBRANCH  21  24
ENDBRANCH  18  20
ENDBRANCH  15  16
ENDBRANCH  14  15
ENDBRANCH   3  14
ENDBRANCH   2   3
TORSDOF 15
ENDMDL
MODEL      166
REMARK 921   NORMALIZED FREE ENERGY PREDICTED BY IDOCK:   -4.57 KCAL/MOL
REMARK 922        TOTAL FREE ENERGY PREDICTED BY IDOCK:  -11.24 KCAL/MOL
REMARK 923 INTER-LIGAND FREE ENERGY PREDICTED BY IDOCK:   -9.80 KCAL/MOL
REMARK 924 INTRA-LIGAND FREE ENERGY PREDICTED BY IDOCK:   -1.43 KCAL/MOL
REMARK 927      BINDING AFFINITY PREDICTED BY RF-SCORE:    0.00 PKD
ROOT
HETATM    1  C   UNL     1     -12.247  15.798  70.667  1.00  0.00    -0.422 C  
HETATM    2  C   UNL     1     -10.946  15.038  70.457  1.00  0.00    -0.175 C  
ENDROOT
BRANCH   2   3
HETATM    3  N   UNL     1     -10.396  15.032  68.997  1.00  0.00    -0.236 N  
BRANCH   3   4
HETATM    4  C   UNL     1      -8.926  15.544  68.979  1.00  0.00    -0.237 C  
HETATM    5  C   UNL     1      -8.023  14.913  67.951  1.00  0.00    -0.145 C  
ENDBRANCH   3   4
BRANCH   3   6
HETATM    6  C   UNL     1     -11.175  16.042  68.123  1.00  0.00    -0.325 C  
BRANCH   6   7
HETATM    7  C   UNL     1     -10.653  17.444  67.821  1.00  0.00    -0.371 A  
HETATM    8  C   UNL     1      -9.825  19.026  66.132  1.00  0.00    -0.370 A  
HETATM    9  C   UNL     1     -10.369  18.431  68.779  1.00  0.00    -0.230 A  
HETATM   10  C   UNL     1     -10.411  17.802  66.478  1.00  0.00    -0.345 A  
HETATM   11  C   UNL     1      -9.842  19.677  68.436  1.00  0.00    -0.531 A  
HETATM   12 CL   UNL     1     -10.799  16.712  65.190  1.00  0.00    -0.294 Cl 
HETATM   13  C   UNL     1      -9.545  19.967  67.116  1.00  0.00    -0.508 A  
ENDBRANCH   6   7
ENDBRANCH   3   6
BRANCH   3  14
HETATM   14  C   UNL     1     -10.553  13.543  68.483  1.00  0.00    -0.247 C  
BRANCH  14  15
HETATM   15  C   UNL     1     -11.868  12.790  68.884  1.00  0.00    -0.308 C  
BRANCH  15  16
HETATM   16  N   UNL     1     -11.746  11.581  69.685  1.00  0.00    -0.322 N  
HETATM   17  H   UNL     1     -11.137  10.822  69.379  1.00  0.00     0.000 HD 
HETATM   18  C   UNL     1     -12.467  11.465  70.870  1.00  0.00    -0.379 C  
HETATM   19  O   UNL     1     -13.059  12.394  71.394  1.00  0.00    -0.334 OA 
BRANCH  18  20
HETATM   20  C   UNL     1     -12.368  10.081  71.558  1.00  0.00    -0.419 C  
HETATM   21  N   UNL     1     -11.169   9.395  71.358  1.00  0.00    -0.358 N  
HETATM   22  O   UNL     1     -13.287   9.650  72.234  1.00  0.00    -0.438 OA 
HETATM   23  H   UNL     1     -10.560   9.624  70.571  1.00  0.00     0.000 HD 
BRANCH  21  24
HETATM   24  C   UNL     1     -10.806   8.342  72.299  1.00  0.00    -0.352 C  
BRANCH  24  25
HETATM   25  C   UNL     1     -11.123   6.896  71.829  1.00  0.00    -0.244 C  
BRANCH  25  26
HETATM   26  N   UNL     1      -9.880   6.041  71.479  1.00  0.00    -0.167 N  
BRANCH  26  27
HETATM   27  C   UNL     1      -9.211   5.502  72.778  1.00  0.00    -0.133 C  
HETATM   28  C   UNL     1     -10.171   5.140  73.902  1.00  0.00    -0.256 C  
ENDBRANCH  26  27
BRANCH  26  29
HETATM   29  C   UNL     1     -10.348   4.881  70.558  1.00  0.00    -0.172 C  
HETATM   30  C   UNL     1      -9.525   3.608  70.645  1.00  0.00    -0.242 C  
ENDBRANCH  26  29
BRANCH  26  31
HETATM   31  C   UNL     1      -8.809   6.918  70.730  1.00  0.00    -0.150 C  
BRANCH  31  32
HETATM   32  C   UNL     1      -8.883   7.041  69.217  1.00  0.00    -0.139 A  
HETATM   33  C   UNL     1      -9.926   7.770  68.608  1.00  0.00    -0.191 A  
HETATM   34  C   UNL     1     -10.090   7.788  67.218  1.00  0.00    -0.307 A  
HETATM   35  C   UNL     1      -9.229   7.062  66.407  1.00  0.00    -0.186 A  
HETATM   36  C   UNL     1      -8.180   6.350  66.979  1.00  0.00    -0.113 A  
HETATM   37  C   UNL     1      -8.000   6.345  68.367  1.00  0.00    -0.106 A  
HETATM   38 CL   UNL     1      -6.670   5.425  68.973  1.00  0.00    -0.051 Cl 
ENDBRANCH  31  32
ENDBRANCH  26  31
ENDBRANCH  25  26
ENDBRANCH  24  25
ENDBRANCH  21  24
ENDBRANCH  18  20
ENDBRANCH  15  16
ENDBRANCH  14  15
ENDBRANCH   3  14
ENDBRANCH   2   3
TORSDOF 15
ENDMDL
MODEL      167
REMARK 921   NORMALIZED FREE ENERGY PREDICTED BY IDOCK:   -4.57 KCAL/MOL
REMARK 922        TOTAL FREE ENERGY PREDICTED BY IDOCK:  -11.23 KCAL/MOL
REMARK 923 INTER-LIGAND FREE ENERGY PREDICTED BY IDOCK:   -9.09 KCAL/MOL
REMARK 924 INTRA-LIGAND FREE ENERGY PREDICTED BY IDOCK:   -2.13 KCAL/MOL
REMARK 927      BINDING AFFINITY PREDICTED BY RF-SCORE:    0.00 PKD
ROOT
HETATM    1  C   UNL     1     -10.550   7.389  73.387  1.00  0.00    -0.427 C  
HETATM    2  C   UNL     1      -9.514   6.922  72.375  1.00  0.00    -0.139 C  
ENDROOT
BRANCH   2   3
HETATM    3  N   UNL     1      -9.569   7.619  70.980  1.00  0.00    -0.163 N  
BRANCH   3   4
HETATM    4  C   UNL     1     -10.564   6.868  70.049  1.00  0.00    -0.226 C  
HETATM    5  C   UNL     1     -10.641   5.374  70.238  1.00  0.00    -0.329 C  
ENDBRANCH   3   4
BRANCH   3   6
HETATM    6  C   UNL     1      -8.201   7.504  70.268  1.00  0.00    -0.128 C  
BRANCH   6   7
HETATM    7  C   UNL     1      -7.607   8.638  69.437  1.00  0.00    -0.092 A  
HETATM    8  C   UNL     1      -7.201   9.576  67.202  1.00  0.00    -0.087 A  
HETATM    9  C   UNL     1      -6.847   9.705  69.942  1.00  0.00    -0.075 A  
HETATM   10  C   UNL     1      -7.810   8.633  68.041  1.00  0.00    -0.103 A  
HETATM   11  C   UNL     1      -6.288  10.683  69.117  1.00  0.00    -0.053 A  
HETATM   12 CL   UNL     1      -8.801   7.426  67.297  1.00  0.00    -0.123 Cl 
HETATM   13  C   UNL     1      -6.442  10.605  67.745  1.00  0.00    -0.060 A  
ENDBRANCH   6   7
ENDBRANCH   3   6
BRANCH   3  14
HETATM   14  C   UNL     1      -9.977   9.121  71.264  1.00  0.00    -0.303 C  
BRANCH  14  15
HETATM   15  C   UNL     1     -11.236   9.668  70.507  1.00  0.00    -0.297 C  
BRANCH  15  16
HETATM   16  N   UNL     1     -11.235  11.066  70.102  1.00  0.00    -0.458 N  
HETATM   17  H   UNL     1     -10.877  11.783  70.733  1.00  0.00     0.000 HD 
HETATM   18  C   UNL     1     -11.725  11.420  68.848  1.00  0.00    -0.343 C  
HETATM   19  O   UNL     1     -11.987  10.612  67.972  1.00  0.00    -0.457 OA 
BRANCH  18  20
HETATM   20  C   UNL     1     -11.806  12.945  68.588  1.00  0.00    -0.312 C  
HETATM   21  N   UNL     1     -11.625  13.756  69.710  1.00  0.00    -0.374 N  
HETATM   22  O   UNL     1     -12.004  13.379  67.465  1.00  0.00    -0.361 OA 
HETATM   23  H   UNL     1     -11.762  13.385  70.650  1.00  0.00     0.000 HD 
BRANCH  21  24
HETATM   24  C   UNL     1     -11.235  15.145  69.505  1.00  0.00    -0.273 C  
BRANCH  24  25
HETATM   25  C   UNL     1      -9.779  15.492  69.917  1.00  0.00    -0.160 C  
BRANCH  25  26
HETATM   26  N   UNL     1      -8.756  15.483  68.756  1.00  0.00    -0.178 N  
BRANCH  26  27
HETATM   27  C   UNL     1      -7.541  16.397  69.096  1.00  0.00    -0.225 C  
HETATM   28  C   UNL     1      -6.225  15.668  69.327  1.00  0.00    -0.127 C  
ENDBRANCH  26  27
BRANCH  26  29
HETATM   29  C   UNL     1      -8.312  14.012  68.528  1.00  0.00    -0.143 C  
HETATM   30  C   UNL     1      -8.440  13.506  67.102  1.00  0.00    -0.177 C  
ENDBRANCH  26  29
BRANCH  26  31
HETATM   31  C   UNL     1      -9.416  16.050  67.444  1.00  0.00    -0.219 C  
BRANCH  31  32
HETATM   32  C   UNL     1      -9.505  17.555  67.253  1.00  0.00    -0.253 A  
HETATM   33  C   UNL     1     -10.615  18.274  67.743  1.00  0.00    -0.415 A  
HETATM   34  C   UNL     1     -10.784  19.635  67.466  1.00  0.00    -0.537 A  
HETATM   35  C   UNL     1      -9.859  20.304  66.676  1.00  0.00    -0.562 A  
HETATM   36  C   UNL     1      -8.745  19.624  66.195  1.00  0.00    -0.361 A  
HETATM   37  C   UNL     1      -8.561  18.268  66.486  1.00  0.00    -0.266 A  
HETATM   38 CL   UNL     1      -7.147  17.520  65.836  1.00  0.00    -0.289 Cl 
ENDBRANCH  31  32
ENDBRANCH  26  31
ENDBRANCH  25  26
ENDBRANCH  24  25
ENDBRANCH  21  24
ENDBRANCH  18  20
ENDBRANCH  15  16
ENDBRANCH  14  15
ENDBRANCH   3  14
ENDBRANCH   2   3
TORSDOF 15
ENDMDL
MODEL      168
REMARK 921   NORMALIZED FREE ENERGY PREDICTED BY IDOCK:   -4.56 KCAL/MOL
REMARK 922        TOTAL FREE ENERGY PREDICTED BY IDOCK:  -11.22 KCAL/MOL
REMARK 923 INTER-LIGAND FREE ENERGY PREDICTED BY IDOCK:   -8.96 KCAL/MOL
REMARK 924 INTRA-LIGAND FREE ENERGY PREDICTED BY IDOCK:   -2.27 KCAL/MOL
REMARK 927      BINDING AFFINITY PREDICTED BY RF-SCORE:    0.00 PKD
ROOT
HETATM    1  C   UNL     1     -11.786  15.257  64.728  1.00  0.00    -0.276 C  
HETATM    2  C   UNL     1     -10.537  14.388  64.726  1.00  0.00    -0.393 C  
ENDROOT
BRANCH   2   3
HETATM    3  N   UNL     1     -10.772  12.867  64.983  1.00  0.00    -0.294 N  
BRANCH   3   4
HETATM    4  C   UNL     1     -12.283  12.529  64.831  1.00  0.00    -0.470 C  
HETATM    5  C   UNL     1     -12.709  12.023  63.477  1.00  0.00    -0.567 C  
ENDBRANCH   3   4
BRANCH   3   6
HETATM    6  C   UNL     1     -10.435  12.512  66.451  1.00  0.00    -0.247 C  
BRANCH   6   7
HETATM    7  C   UNL     1      -9.581  13.410  67.340  1.00  0.00    -0.223 A  
HETATM    8  C   UNL     1      -9.514  15.107  69.117  1.00  0.00    -0.221 A  
HETATM    9  C   UNL     1      -8.187  13.560  67.247  1.00  0.00    -0.164 A  
HETATM   10  C   UNL     1     -10.216  14.177  68.340  1.00  0.00    -0.247 A  
HETATM   11  C   UNL     1      -7.472  14.441  68.060  1.00  0.00    -0.144 A  
HETATM   12 CL   UNL     1     -11.917  14.023  68.623  1.00  0.00    -0.397 Cl 
HETATM   13  C   UNL     1      -8.138  15.234  68.978  1.00  0.00    -0.202 A  
ENDBRANCH   6   7
ENDBRANCH   3   6
BRANCH   3  14
HETATM   14  C   UNL     1      -9.846  12.107  63.950  1.00  0.00    -0.214 C  
BRANCH  14  15
HETATM   15  C   UNL     1      -9.653  10.566  64.171  1.00  0.00    -0.313 C  
BRANCH  15  16
HETATM   16  N   UNL     1      -8.920  10.132  65.352  1.00  0.00    -0.166 N  
HETATM   17  H   UNL     1      -9.421   9.749  66.154  1.00  0.00     0.000 HD 
HETATM   18  C   UNL     1      -7.533  10.240  65.379  1.00  0.00    -0.145 C  
HETATM   19  O   UNL     1      -6.856  10.502  64.399  1.00  0.00    -0.043 OA 
BRANCH  18  20
HETATM   20  C   UNL     1      -6.880   9.882  66.737  1.00  0.00    -0.084 C  
HETATM   21  N   UNL     1      -7.758   9.779  67.817  1.00  0.00    -0.091 N  
HETATM   22  O   UNL     1      -5.678   9.696  66.825  1.00  0.00    -0.049 OA 
HETATM   23  H   UNL     1      -8.677  10.221  67.788  1.00  0.00     0.000 HD 
BRANCH  21  24
HETATM   24  C   UNL     1      -7.331   9.024  68.989  1.00  0.00    -0.073 C  
BRANCH  24  25
HETATM   25  C   UNL     1      -7.758   7.531  69.007  1.00  0.00    -0.117 C  
BRANCH  25  26
HETATM   26  N   UNL     1      -8.979   7.217  69.906  1.00  0.00    -0.142 N  
BRANCH  26  27
HETATM   27  C   UNL     1     -10.285   7.197  69.058  1.00  0.00    -0.190 C  
HETATM   28  C   UNL     1     -10.975   5.843  68.958  1.00  0.00    -0.359 C  
ENDBRANCH  26  27
BRANCH  26  29
HETATM   29  C   UNL     1      -8.724   5.844  70.587  1.00  0.00    -0.137 C  
HETATM   30  C   UNL     1      -7.724   5.859  71.729  1.00  0.00    -0.101 C  
ENDBRANCH  26  29
BRANCH  26  31
HETATM   31  C   UNL     1      -9.150   8.332  71.003  1.00  0.00    -0.158 C  
BRANCH  31  32
HETATM   32  C   UNL     1     -10.478   9.061  71.114  1.00  0.00    -0.363 A  
HETATM   33  C   UNL     1     -10.678  10.291  70.452  1.00  0.00    -0.270 A  
HETATM   34  C   UNL     1     -11.841  11.045  70.644  1.00  0.00    -0.434 A  
HETATM   35  C   UNL     1     -12.823  10.597  71.518  1.00  0.00    -0.567 A  
HETATM   36  C   UNL     1     -12.661   9.379  72.169  1.00  0.00    -0.423 A  
HETATM   37  C   UNL     1     -11.508   8.612  71.965  1.00  0.00    -0.367 A  
HETATM   38 CL   UNL     1     -11.406   7.119  72.827  1.00  0.00    -0.304 Cl 
ENDBRANCH  31  32
ENDBRANCH  26  31
ENDBRANCH  25  26
ENDBRANCH  24  25
ENDBRANCH  21  24
ENDBRANCH  18  20
ENDBRANCH  15  16
ENDBRANCH  14  15
ENDBRANCH   3  14
ENDBRANCH   2   3
TORSDOF 15
ENDMDL
MODEL      169
REMARK 921   NORMALIZED FREE ENERGY PREDICTED BY IDOCK:   -4.55 KCAL/MOL
REMARK 922        TOTAL FREE ENERGY PREDICTED BY IDOCK:  -11.20 KCAL/MOL
REMARK 923 INTER-LIGAND FREE ENERGY PREDICTED BY IDOCK:   -8.11 KCAL/MOL
REMARK 924 INTRA-LIGAND FREE ENERGY PREDICTED BY IDOCK:   -3.09 KCAL/MOL
REMARK 927      BINDING AFFINITY PREDICTED BY RF-SCORE:    0.00 PKD
ROOT
HETATM    1  C   UNL     1      -9.854   4.234  72.640  1.00  0.00    -0.201 C  
HETATM    2  C   UNL     1     -10.327   5.217  71.579  1.00  0.00    -0.208 C  
ENDROOT
BRANCH   2   3
HETATM    3  N   UNL     1      -9.201   5.940  70.777  1.00  0.00    -0.152 N  
BRANCH   3   4
HETATM    4  C   UNL     1      -9.805   6.638  69.524  1.00  0.00    -0.152 C  
HETATM    5  C   UNL     1     -11.242   6.304  69.214  1.00  0.00    -0.458 C  
ENDBRANCH   3   4
BRANCH   3   6
HETATM    6  C   UNL     1      -8.199   4.909  70.208  1.00  0.00    -0.081 C  
BRANCH   6   7
HETATM    7  C   UNL     1      -7.513   5.087  68.856  1.00  0.00    -0.069 A  
HETATM    8  C   UNL     1      -7.351   4.385  66.507  1.00  0.00    -0.081 A  
HETATM    9  C   UNL     1      -6.407   5.916  68.608  1.00  0.00    -0.037 A  
HETATM   10  C   UNL     1      -7.999   4.360  67.749  1.00  0.00    -0.088 A  
HETATM   11  C   UNL     1      -5.794   5.992  67.356  1.00  0.00    -0.017 A  
HETATM   12 CL   UNL     1      -9.410   3.369  67.893  1.00  0.00    -0.238 Cl 
HETATM   13  C   UNL     1      -6.248   5.207  66.311  1.00  0.00    -0.035 A  
ENDBRANCH   6   7
ENDBRANCH   3   6
BRANCH   3  14
HETATM   14  C   UNL     1      -8.523   6.943  71.795  1.00  0.00    -0.115 C  
BRANCH  14  15
HETATM   15  C   UNL     1      -9.479   7.878  72.614  1.00  0.00    -0.222 C  
BRANCH  15  16
HETATM   16  N   UNL     1     -10.040   9.040  71.940  1.00  0.00    -0.324 N  
HETATM   17  H   UNL     1      -9.426   9.769  71.578  1.00  0.00     0.000 HD 
HETATM   18  C   UNL     1     -11.420   9.150  71.793  1.00  0.00    -0.381 C  
HETATM   19  O   UNL     1     -12.199   8.241  72.024  1.00  0.00    -0.309 OA 
BRANCH  18  20
HETATM   20  C   UNL     1     -11.904  10.493  71.191  1.00  0.00    -0.295 C  
HETATM   21  N   UNL     1     -11.108  11.015  70.170  1.00  0.00    -0.473 N  
HETATM   22  O   UNL     1     -12.922  11.029  71.595  1.00  0.00    -0.441 OA 
HETATM   23  H   UNL     1     -10.137  10.723  70.063  1.00  0.00     0.000 HD 
BRANCH  21  24
HETATM   24  C   UNL     1     -11.699  11.989  69.260  1.00  0.00    -0.330 C  
BRANCH  24  25
HETATM   25  C   UNL     1     -11.666  11.596  67.758  1.00  0.00    -0.245 C  
BRANCH  25  26
HETATM   26  N   UNL     1     -11.231  12.732  66.800  1.00  0.00    -0.281 N  
BRANCH  26  27
HETATM   27  C   UNL     1     -12.161  12.774  65.552  1.00  0.00    -0.463 C  
HETATM   28  C   UNL     1     -11.773  13.790  64.486  1.00  0.00    -0.432 C  
ENDBRANCH  26  27
BRANCH  26  29
HETATM   29  C   UNL     1     -11.285  14.067  67.593  1.00  0.00    -0.297 C  
HETATM   30  C   UNL     1      -9.980  14.842  67.654  1.00  0.00    -0.226 C  
ENDBRANCH  26  29
BRANCH  26  31
HETATM   31  C   UNL     1      -9.766  12.477  66.283  1.00  0.00    -0.254 C  
BRANCH  31  32
HETATM   32  C   UNL     1      -9.194  11.071  66.345  1.00  0.00    -0.192 A  
HETATM   33  C   UNL     1      -9.554  10.109  65.378  1.00  0.00    -0.325 A  
HETATM   34  C   UNL     1      -9.147   8.775  65.487  1.00  0.00    -0.221 A  
HETATM   35  C   UNL     1      -8.388   8.366  66.576  1.00  0.00    -0.111 A  
HETATM   36  C   UNL     1      -8.003   9.298  67.535  1.00  0.00    -0.099 A  
HETATM   37  C   UNL     1      -8.392  10.637  67.419  1.00  0.00    -0.119 A  
HETATM   38 CL   UNL     1      -7.863  11.708  68.667  1.00  0.00    -0.142 Cl 
ENDBRANCH  31  32
ENDBRANCH  26  31
ENDBRANCH  25  26
ENDBRANCH  24  25
ENDBRANCH  21  24
ENDBRANCH  18  20
ENDBRANCH  15  16
ENDBRANCH  14  15
ENDBRANCH   3  14
ENDBRANCH   2   3
TORSDOF 15
ENDMDL
MODEL      170
REMARK 921   NORMALIZED FREE ENERGY PREDICTED BY IDOCK:   -4.55 KCAL/MOL
REMARK 922        TOTAL FREE ENERGY PREDICTED BY IDOCK:  -11.20 KCAL/MOL
REMARK 923 INTER-LIGAND FREE ENERGY PREDICTED BY IDOCK:   -9.67 KCAL/MOL
REMARK 924 INTRA-LIGAND FREE ENERGY PREDICTED BY IDOCK:   -1.53 KCAL/MOL
REMARK 927      BINDING AFFINITY PREDICTED BY RF-SCORE:    0.00 PKD
ROOT
HETATM    1  C   UNL     1     -10.662  16.033  65.267  1.00  0.00    -0.417 C  
HETATM    2  C   UNL     1     -10.336  14.586  64.925  1.00  0.00    -0.371 C  
ENDROOT
BRANCH   2   3
HETATM    3  N   UNL     1     -10.988  13.510  65.847  1.00  0.00    -0.278 N  
BRANCH   3   4
HETATM    4  C   UNL     1     -12.319  13.004  65.216  1.00  0.00    -0.486 C  
HETATM    5  C   UNL     1     -12.344  12.926  63.711  1.00  0.00    -0.500 C  
ENDBRANCH   3   4
BRANCH   3   6
HETATM    6  C   UNL     1     -11.407  14.140  67.196  1.00  0.00    -0.332 C  
BRANCH   6   7
HETATM    7  C   UNL     1     -11.795  13.301  68.411  1.00  0.00    -0.395 A  
HETATM    8  C   UNL     1     -12.351  13.256  70.804  1.00  0.00    -0.425 A  
HETATM    9  C   UNL     1     -11.864  11.899  68.443  1.00  0.00    -0.352 A  
HETATM   10  C   UNL     1     -12.099  13.961  69.620  1.00  0.00    -0.349 A  
HETATM   11  C   UNL     1     -12.175  11.191  69.605  1.00  0.00    -0.360 A  
HETATM   12 CL   UNL     1     -12.138  15.689  69.698  1.00  0.00    -0.371 Cl 
HETATM   13  C   UNL     1     -12.393  11.867  70.793  1.00  0.00    -0.416 A  
ENDBRANCH   6   7
ENDBRANCH   3   6
BRANCH   3  14
HETATM   14  C   UNL     1      -9.900  12.375  66.022  1.00  0.00    -0.257 C  
BRANCH  14  15
HETATM   15  C   UNL     1      -9.953  11.179  65.011  1.00  0.00    -0.273 C  
BRANCH  15  16
HETATM   16  N   UNL     1     -10.142   9.838  65.547  1.00  0.00    -0.296 N  
HETATM   17  H   UNL     1     -11.082   9.486  65.727  1.00  0.00     0.000 HD 
HETATM   18  C   UNL     1      -9.032   9.041  65.811  1.00  0.00    -0.197 C  
HETATM   19  O   UNL     1      -7.901   9.314  65.447  1.00  0.00    -0.097 OA 
BRANCH  18  20
HETATM   20  C   UNL     1      -9.351   7.696  66.512  1.00  0.00    -0.189 C  
HETATM   21  N   UNL     1      -8.249   7.012  67.027  1.00  0.00    -0.116 N  
HETATM   22  O   UNL     1     -10.499   7.293  66.601  1.00  0.00    -0.244 OA 
HETATM   23  H   UNL     1      -7.307   7.205  66.686  1.00  0.00     0.000 HD 
BRANCH  21  24
HETATM   24  C   UNL     1      -8.477   6.014  68.066  1.00  0.00    -0.115 C  
BRANCH  24  25
HETATM   25  C   UNL     1      -8.315   6.526  69.523  1.00  0.00    -0.130 C  
BRANCH  25  26
HETATM   26  N   UNL     1      -7.872   5.449  70.543  1.00  0.00    -0.090 N  
BRANCH  26  27
HETATM   27  C   UNL     1      -7.928   4.034  69.895  1.00  0.00    -0.055 C  
HETATM   28  C   UNL     1      -8.926   3.071  70.523  1.00  0.00    -0.169 C  
ENDBRANCH  26  27
BRANCH  26  29
HETATM   29  C   UNL     1      -6.434   5.802  71.011  1.00  0.00    -0.040 C  
HETATM   30  C   UNL     1      -5.935   7.177  70.602  1.00  0.00    -0.027 C  
ENDBRANCH  26  29
BRANCH  26  31
HETATM   31  C   UNL     1      -8.847   5.437  71.779  1.00  0.00    -0.135 C  
BRANCH  31  32
HETATM   32  C   UNL     1     -10.049   6.366  71.782  1.00  0.00    -0.206 A  
HETATM   33  C   UNL     1     -11.254   5.979  71.159  1.00  0.00    -0.328 A  
HETATM   34  C   UNL     1     -12.329   6.865  71.032  1.00  0.00    -0.401 A  
HETATM   35  C   UNL     1     -12.218   8.165  71.508  1.00  0.00    -0.332 A  
HETATM   36  C   UNL     1     -11.048   8.568  72.144  1.00  0.00    -0.436 A  
HETATM   37  C   UNL     1      -9.978   7.679  72.290  1.00  0.00    -0.190 A  
HETATM   38 CL   UNL     1      -8.571   8.283  73.090  1.00  0.00    -0.292 Cl 
ENDBRANCH  31  32
ENDBRANCH  26  31
ENDBRANCH  25  26
ENDBRANCH  24  25
ENDBRANCH  21  24
ENDBRANCH  18  20
ENDBRANCH  15  16
ENDBRANCH  14  15
ENDBRANCH   3  14
ENDBRANCH   2   3
TORSDOF 15
ENDMDL
MODEL      171
REMARK 921   NORMALIZED FREE ENERGY PREDICTED BY IDOCK:   -4.53 KCAL/MOL
REMARK 922        TOTAL FREE ENERGY PREDICTED BY IDOCK:  -11.16 KCAL/MOL
REMARK 923 INTER-LIGAND FREE ENERGY PREDICTED BY IDOCK:   -9.68 KCAL/MOL
REMARK 924 INTRA-LIGAND FREE ENERGY PREDICTED BY IDOCK:   -1.49 KCAL/MOL
REMARK 927      BINDING AFFINITY PREDICTED BY RF-SCORE:    0.00 PKD
ROOT
HETATM    1  C   UNL     1     -10.861  16.252  64.866  1.00  0.00    -0.315 C  
HETATM    2  C   UNL     1     -10.305  17.279  65.842  1.00  0.00    -0.278 C  
ENDROOT
BRANCH   2   3
HETATM    3  N   UNL     1      -9.092  16.807  66.701  1.00  0.00    -0.234 N  
BRANCH   3   4
HETATM    4  C   UNL     1      -9.441  16.903  68.215  1.00  0.00    -0.250 C  
HETATM    5  C   UNL     1     -10.901  17.093  68.541  1.00  0.00    -0.281 C  
ENDBRANCH   3   4
BRANCH   3   6
HETATM    6  C   UNL     1      -7.893  17.766  66.513  1.00  0.00    -0.266 C  
BRANCH   6   7
HETATM    7  C   UNL     1      -7.100  18.334  67.686  1.00  0.00    -0.202 A  
HETATM    8  C   UNL     1      -6.502  20.309  69.020  1.00  0.00    -0.317 A  
HETATM    9  C   UNL     1      -6.177  17.619  68.467  1.00  0.00    -0.182 A  
HETATM   10  C   UNL     1      -7.277  19.691  68.031  1.00  0.00    -0.286 A  
HETATM   11  C   UNL     1      -5.445  18.215  69.495  1.00  0.00    -0.210 A  
HETATM   12 CL   UNL     1      -8.448  20.665  67.209  1.00  0.00    -0.371 Cl 
HETATM   13  C   UNL     1      -5.587  19.566  69.756  1.00  0.00    -0.259 A  
ENDBRANCH   6   7
ENDBRANCH   3   6
BRANCH   3  14
HETATM   14  C   UNL     1      -8.768  15.335  66.219  1.00  0.00    -0.153 C  
BRANCH  14  15
HETATM   15  C   UNL     1      -8.935  14.189  67.276  1.00  0.00    -0.214 C  
BRANCH  15  16
HETATM   16  N   UNL     1      -8.977  12.816  66.795  1.00  0.00    -0.299 N  
HETATM   17  H   UNL     1      -8.202  12.181  66.988  1.00  0.00     0.000 HD 
HETATM   18  C   UNL     1     -10.080  12.374  66.071  1.00  0.00    -0.251 C  
HETATM   19  O   UNL     1     -11.117  13.006  65.966  1.00  0.00    -0.274 OA 
BRANCH  18  20
HETATM   20  C   UNL     1      -9.946  10.944  65.491  1.00  0.00    -0.260 C  
HETATM   21  N   UNL     1      -9.179  10.057  66.250  1.00  0.00    -0.156 N  
HETATM   22  O   UNL     1     -10.494  10.638  64.445  1.00  0.00    -0.350 OA 
HETATM   23  H   UNL     1      -8.504  10.402  66.932  1.00  0.00     0.000 HD 
BRANCH  21  24
HETATM   24  C   UNL     1      -9.367   8.626  66.044  1.00  0.00    -0.218 C  
BRANCH  24  25
HETATM   25  C   UNL     1     -10.441   7.962  66.947  1.00  0.00    -0.318 C  
BRANCH  25  26
HETATM   26  N   UNL     1      -9.892   7.329  68.249  1.00  0.00    -0.151 N  
BRANCH  26  27
HETATM   27  C   UNL     1     -10.957   6.386  68.883  1.00  0.00    -0.346 C  
HETATM   28  C   UNL     1     -10.401   5.289  69.781  1.00  0.00    -0.369 C  
ENDBRANCH  26  27
BRANCH  26  29
HETATM   29  C   UNL     1      -8.594   6.555  67.887  1.00  0.00    -0.117 C  
HETATM   30  C   UNL     1      -7.342   7.006  68.619  1.00  0.00    -0.097 C  
ENDBRANCH  26  29
BRANCH  26  31
HETATM   31  C   UNL     1      -9.568   8.449  69.306  1.00  0.00    -0.164 C  
BRANCH  31  32
HETATM   32  C   UNL     1     -10.698   9.322  69.826  1.00  0.00    -0.245 A  
HETATM   33  C   UNL     1     -11.161  10.419  69.069  1.00  0.00    -0.297 A  
HETATM   34  C   UNL     1     -12.106  11.314  69.582  1.00  0.00    -0.391 A  
HETATM   35  C   UNL     1     -12.595  11.146  70.870  1.00  0.00    -0.483 A  
HETATM   36  C   UNL     1     -12.170  10.062  71.632  1.00  0.00    -0.456 A  
HETATM   37  C   UNL     1     -11.240   9.154  71.116  1.00  0.00    -0.325 A  
HETATM   38 CL   UNL     1     -10.777   7.848  72.146  1.00  0.00    -0.294 Cl 
ENDBRANCH  31  32
ENDBRANCH  26  31
ENDBRANCH  25  26
ENDBRANCH  24  25
ENDBRANCH  21  24
ENDBRANCH  18  20
ENDBRANCH  15  16
ENDBRANCH  14  15
ENDBRANCH   3  14
ENDBRANCH   2   3
TORSDOF 15
ENDMDL
MODEL      172
REMARK 921   NORMALIZED FREE ENERGY PREDICTED BY IDOCK:   -4.52 KCAL/MOL
REMARK 922        TOTAL FREE ENERGY PREDICTED BY IDOCK:  -11.15 KCAL/MOL
REMARK 923 INTER-LIGAND FREE ENERGY PREDICTED BY IDOCK:   -8.55 KCAL/MOL
REMARK 924 INTRA-LIGAND FREE ENERGY PREDICTED BY IDOCK:   -2.60 KCAL/MOL
REMARK 927      BINDING AFFINITY PREDICTED BY RF-SCORE:    0.00 PKD
ROOT
HETATM    1  C   UNL     1      -9.339   3.770  70.379  1.00  0.00    -0.235 C  
HETATM    2  C   UNL     1     -10.396   4.863  70.306  1.00  0.00    -0.181 C  
ENDROOT
BRANCH   2   3
HETATM    3  N   UNL     1      -9.861   6.302  70.030  1.00  0.00    -0.167 N  
BRANCH   3   4
HETATM    4  C   UNL     1     -10.540   6.888  68.758  1.00  0.00    -0.220 C  
HETATM    5  C   UNL     1     -10.679   5.940  67.593  1.00  0.00    -0.352 C  
ENDBRANCH   3   4
BRANCH   3   6
HETATM    6  C   UNL     1      -8.354   6.260  69.688  1.00  0.00    -0.125 C  
BRANCH   6   7
HETATM    7  C   UNL     1      -7.483   7.512  69.651  1.00  0.00    -0.092 A  
HETATM    8  C   UNL     1      -6.010   8.973  68.333  1.00  0.00    -0.045 A  
HETATM    9  C   UNL     1      -7.178   8.325  70.755  1.00  0.00    -0.055 A  
HETATM   10  C   UNL     1      -6.910   7.904  68.422  1.00  0.00    -0.071 A  
HETATM   11  C   UNL     1      -6.329   9.429  70.661  1.00  0.00    -0.075 A  
HETATM   12 CL   UNL     1      -7.273   7.044  66.965  1.00  0.00    -0.079 Cl 
HETATM   13  C   UNL     1      -5.723   9.739  69.457  1.00  0.00    -0.033 A  
ENDBRANCH   6   7
ENDBRANCH   3   6
BRANCH   3  14
HETATM   14  C   UNL     1     -10.159   7.132  71.344  1.00  0.00    -0.188 C  
BRANCH  14  15
HETATM   15  C   UNL     1     -11.561   7.827  71.442  1.00  0.00    -0.276 C  
BRANCH  15  16
HETATM   16  N   UNL     1     -11.652   9.235  71.085  1.00  0.00    -0.301 N  
HETATM   17  H   UNL     1     -10.937   9.662  70.495  1.00  0.00     0.000 HD 
HETATM   18  C   UNL     1     -12.720   9.995  71.552  1.00  0.00    -0.429 C  
HETATM   19  O   UNL     1     -13.703   9.519  72.093  1.00  0.00    -0.417 OA 
BRANCH  18  20
HETATM   20  C   UNL     1     -12.632  11.508  71.226  1.00  0.00    -0.347 C  
HETATM   21  N   UNL     1     -11.745  11.851  70.205  1.00  0.00    -0.497 N  
HETATM   22  O   UNL     1     -13.313  12.319  71.831  1.00  0.00    -0.463 OA 
HETATM   23  H   UNL     1     -10.990  11.221  69.934  1.00  0.00     0.000 HD 
BRANCH  21  24
HETATM   24  C   UNL     1     -11.923  13.134  69.534  1.00  0.00    -0.294 C  
BRANCH  24  25
HETATM   25  C   UNL     1     -11.536  13.154  68.031  1.00  0.00    -0.311 C  
BRANCH  25  26
HETATM   26  N   UNL     1     -10.554  14.283  67.630  1.00  0.00    -0.252 N  
BRANCH  26  27
HETATM   27  C   UNL     1     -11.302  15.393  66.834  1.00  0.00    -0.147 C  
HETATM   28  C   UNL     1     -10.754  15.674  65.441  1.00  0.00    -0.424 C  
ENDBRANCH  26  27
BRANCH  26  29
HETATM   29  C   UNL     1      -9.923  14.846  68.933  1.00  0.00    -0.233 C  
HETATM   30  C   UNL     1      -9.458  16.290  68.860  1.00  0.00    -0.252 C  
ENDBRANCH  26  29
BRANCH  26  31
HETATM   31  C   UNL     1      -9.425  13.714  66.693  1.00  0.00    -0.277 C  
BRANCH  31  32
HETATM   32  C   UNL     1      -9.468  12.251  66.287  1.00  0.00    -0.234 A  
HETATM   33  C   UNL     1      -9.987  11.872  65.030  1.00  0.00    -0.276 A  
HETATM   34  C   UNL     1     -10.159  10.527  64.687  1.00  0.00    -0.408 A  
HETATM   35  C   UNL     1      -9.836   9.529  65.597  1.00  0.00    -0.343 A  
HETATM   36  C   UNL     1      -9.305   9.874  66.836  1.00  0.00    -0.184 A  
HETATM   37  C   UNL     1      -9.113  11.217  67.176  1.00  0.00    -0.157 A  
HETATM   38 CL   UNL     1      -8.452  11.534  68.740  1.00  0.00    -0.105 Cl 
ENDBRANCH  31  32
ENDBRANCH  26  31
ENDBRANCH  25  26
ENDBRANCH  24  25
ENDBRANCH  21  24
ENDBRANCH  18  20
ENDBRANCH  15  16
ENDBRANCH  14  15
ENDBRANCH   3  14
ENDBRANCH   2   3
TORSDOF 15
ENDMDL
MODEL      173
REMARK 921   NORMALIZED FREE ENERGY PREDICTED BY IDOCK:   -4.52 KCAL/MOL
REMARK 922        TOTAL FREE ENERGY PREDICTED BY IDOCK:  -11.14 KCAL/MOL
REMARK 923 INTER-LIGAND FREE ENERGY PREDICTED BY IDOCK:   -9.99 KCAL/MOL
REMARK 924 INTRA-LIGAND FREE ENERGY PREDICTED BY IDOCK:   -1.16 KCAL/MOL
REMARK 927      BINDING AFFINITY PREDICTED BY RF-SCORE:    0.00 PKD
ROOT
HETATM    1  C   UNL     1     -10.099  15.111  66.195  1.00  0.00    -0.314 C  
HETATM    2  C   UNL     1      -9.814  16.598  66.344  1.00  0.00    -0.292 C  
ENDROOT
BRANCH   2   3
HETATM    3  N   UNL     1     -10.137  17.211  67.742  1.00  0.00    -0.294 N  
BRANCH   3   4
HETATM    4  C   UNL     1     -10.702  18.651  67.575  1.00  0.00    -0.394 C  
HETATM    5  C   UNL     1     -10.709  19.194  66.168  1.00  0.00    -0.442 C  
ENDBRANCH   3   4
BRANCH   3   6
HETATM    6  C   UNL     1      -8.838  17.391  68.563  1.00  0.00    -0.277 C  
BRANCH   6   7
HETATM    7  C   UNL     1      -7.696  18.295  68.110  1.00  0.00    -0.288 A  
HETATM    8  C   UNL     1      -5.416  18.459  67.207  1.00  0.00    -0.144 A  
HETATM    9  C   UNL     1      -7.673  19.695  68.223  1.00  0.00    -0.356 A  
HETATM   10  C   UNL     1      -6.549  17.705  67.540  1.00  0.00    -0.162 A  
HETATM   11  C   UNL     1      -6.571  20.459  67.835  1.00  0.00    -0.328 A  
HETATM   12 CL   UNL     1      -6.480  15.998  67.262  1.00  0.00    -0.215 Cl 
HETATM   13  C   UNL     1      -5.432  19.841  67.351  1.00  0.00    -0.172 A  
ENDBRANCH   6   7
ENDBRANCH   3   6
BRANCH   3  14
HETATM   14  C   UNL     1     -11.151  16.209  68.429  1.00  0.00    -0.359 C  
BRANCH  14  15
HETATM   15  C   UNL     1     -10.945  15.928  69.958  1.00  0.00    -0.358 C  
BRANCH  15  16
HETATM   16  N   UNL     1     -11.280  14.604  70.461  1.00  0.00    -0.479 N  
HETATM   17  H   UNL     1     -10.585  13.858  70.446  1.00  0.00     0.000 HD 
HETATM   18  C   UNL     1     -12.556  14.362  70.963  1.00  0.00    -0.349 C  
HETATM   19  O   UNL     1     -13.371  15.240  71.190  1.00  0.00    -0.448 OA 
BRANCH  18  20
HETATM   20  C   UNL     1     -12.838  12.884  71.333  1.00  0.00    -0.283 C  
HETATM   21  N   UNL     1     -12.093  11.936  70.630  1.00  0.00    -0.449 N  
HETATM   22  O   UNL     1     -13.654  12.600  72.194  1.00  0.00    -0.517 OA 
HETATM   23  H   UNL     1     -11.659  12.169  69.737  1.00  0.00     0.000 HD 
BRANCH  21  24
HETATM   24  C   UNL     1     -11.951  10.603  71.204  1.00  0.00    -0.300 C  
BRANCH  24  25
HETATM   25  C   UNL     1     -10.815   9.737  70.593  1.00  0.00    -0.329 C  
BRANCH  25  26
HETATM   26  N   UNL     1     -10.702   8.309  71.179  1.00  0.00    -0.221 N  
BRANCH  26  27
HETATM   27  C   UNL     1     -11.048   8.318  72.697  1.00  0.00    -0.330 C  
HETATM   28  C   UNL     1     -10.370   7.234  73.524  1.00  0.00    -0.412 C  
ENDBRANCH  26  27
BRANCH  26  29
HETATM   29  C   UNL     1     -11.670   7.392  70.381  1.00  0.00    -0.134 C  
HETATM   30  C   UNL     1     -12.904   6.932  71.138  1.00  0.00    -0.289 C  
ENDBRANCH  26  29
BRANCH  26  31
HETATM   31  C   UNL     1      -9.227   7.778  71.038  1.00  0.00    -0.151 C  
BRANCH  31  32
HETATM   32  C   UNL     1      -8.793   7.140  69.729  1.00  0.00    -0.142 A  
HETATM   33  C   UNL     1      -8.372   7.942  68.647  1.00  0.00    -0.128 A  
HETATM   34  C   UNL     1      -8.094   7.389  67.392  1.00  0.00    -0.113 A  
HETATM   35  C   UNL     1      -8.250   6.025  67.183  1.00  0.00    -0.105 A  
HETATM   36  C   UNL     1      -8.646   5.208  68.237  1.00  0.00    -0.098 A  
HETATM   37  C   UNL     1      -8.906   5.754  69.499  1.00  0.00    -0.117 A  
HETATM   38 CL   UNL     1      -9.396   4.652  70.735  1.00  0.00    -0.200 Cl 
ENDBRANCH  31  32
ENDBRANCH  26  31
ENDBRANCH  25  26
ENDBRANCH  24  25
ENDBRANCH  21  24
ENDBRANCH  18  20
ENDBRANCH  15  16
ENDBRANCH  14  15
ENDBRANCH   3  14
ENDBRANCH   2   3
TORSDOF 15
ENDMDL
MODEL      174
REMARK 921   NORMALIZED FREE ENERGY PREDICTED BY IDOCK:   -4.52 KCAL/MOL
REMARK 922        TOTAL FREE ENERGY PREDICTED BY IDOCK:  -11.14 KCAL/MOL
REMARK 923 INTER-LIGAND FREE ENERGY PREDICTED BY IDOCK:   -9.18 KCAL/MOL
REMARK 924 INTRA-LIGAND FREE ENERGY PREDICTED BY IDOCK:   -1.95 KCAL/MOL
REMARK 927      BINDING AFFINITY PREDICTED BY RF-SCORE:    0.00 PKD
ROOT
HETATM    1  C   UNL     1     -12.041  11.134  69.713  1.00  0.00    -0.414 C  
HETATM    2  C   UNL     1     -11.687  12.578  69.389  1.00  0.00    -0.322 C  
ENDROOT
BRANCH   2   3
HETATM    3  N   UNL     1     -11.172  12.838  67.940  1.00  0.00    -0.257 N  
BRANCH   3   4
HETATM    4  C   UNL     1     -12.022  13.954  67.265  1.00  0.00    -0.411 C  
HETATM    5  C   UNL     1     -11.368  15.308  67.164  1.00  0.00    -0.247 C  
ENDBRANCH   3   4
BRANCH   3   6
HETATM    6  C   UNL     1     -11.393  11.588  67.057  1.00  0.00    -0.269 C  
BRANCH   6   7
HETATM    7  C   UNL     1     -10.858  11.481  65.632  1.00  0.00    -0.310 A  
HETATM    8  C   UNL     1      -9.486  10.229  64.023  1.00  0.00    -0.356 A  
HETATM    9  C   UNL     1     -11.037  12.439  64.621  1.00  0.00    -0.348 A  
HETATM   10  C   UNL     1     -10.104  10.343  65.274  1.00  0.00    -0.300 A  
HETATM   11  C   UNL     1     -10.474  12.303  63.351  1.00  0.00    -0.408 A  
HETATM   12 CL   UNL     1      -9.880   9.044  66.396  1.00  0.00    -0.336 Cl 
HETATM   13  C   UNL     1      -9.677  11.211  63.058  1.00  0.00    -0.384 A  
ENDBRANCH   6   7
ENDBRANCH   3   6
BRANCH   3  14
HETATM   14  C   UNL     1      -9.641  13.211  68.086  1.00  0.00    -0.227 C  
BRANCH  14  15
HETATM   15  C   UNL     1      -8.618  12.023  68.074  1.00  0.00    -0.170 C  
BRANCH  15  16
HETATM   16  N   UNL     1      -8.497  11.214  69.278  1.00  0.00    -0.382 N  
HETATM   17  H   UNL     1      -9.099  11.395  70.081  1.00  0.00     0.000 HD 
HETATM   18  C   UNL     1      -7.555  10.190  69.327  1.00  0.00    -0.117 C  
HETATM   19  O   UNL     1      -6.939   9.791  68.352  1.00  0.00    -0.067 OA 
BRANCH  18  20
HETATM   20  C   UNL     1      -7.421   9.496  70.705  1.00  0.00    -0.118 C  
HETATM   21  N   UNL     1      -8.524   8.741  71.107  1.00  0.00    -0.172 N  
HETATM   22  O   UNL     1      -6.403   9.609  71.367  1.00  0.00    -0.245 OA 
HETATM   23  H   UNL     1      -9.445   8.902  70.698  1.00  0.00     0.000 HD 
BRANCH  21  24
HETATM   24  C   UNL     1      -8.329   7.715  72.124  1.00  0.00    -0.110 C  
BRANCH  24  25
HETATM   25  C   UNL     1      -8.015   6.295  71.582  1.00  0.00    -0.102 C  
BRANCH  25  26
HETATM   26  N   UNL     1      -8.592   5.134  72.429  1.00  0.00    -0.124 N  
BRANCH  26  27
HETATM   27  C   UNL     1      -7.524   4.016  72.614  1.00  0.00    -0.072 C  
HETATM   28  C   UNL     1      -7.995   2.789  73.382  1.00  0.00    -0.060 C  
ENDBRANCH  26  27
BRANCH  26  29
HETATM   29  C   UNL     1      -9.039   5.723  73.795  1.00  0.00    -0.127 C  
HETATM   30  C   UNL     1     -10.519   5.590  74.109  1.00  0.00    -0.297 C  
ENDBRANCH  26  29
BRANCH  26  31
HETATM   31  C   UNL     1      -9.826   4.487  71.698  1.00  0.00    -0.190 C  
BRANCH  31  32
HETATM   32  C   UNL     1     -10.097   4.847  70.247  1.00  0.00    -0.322 A  
HETATM   33  C   UNL     1      -9.414   4.184  69.205  1.00  0.00    -0.258 A  
HETATM   34  C   UNL     1      -9.548   4.585  67.872  1.00  0.00    -0.208 A  
HETATM   35  C   UNL     1     -10.352   5.671  67.550  1.00  0.00    -0.277 A  
HETATM   36  C   UNL     1     -11.052   6.331  68.555  1.00  0.00    -0.397 A  
HETATM   37  C   UNL     1     -10.936   5.920  69.887  1.00  0.00    -0.374 A  
HETATM   38 CL   UNL     1     -11.844   6.812  71.055  1.00  0.00    -0.407 Cl 
ENDBRANCH  31  32
ENDBRANCH  26  31
ENDBRANCH  25  26
ENDBRANCH  24  25
ENDBRANCH  21  24
ENDBRANCH  18  20
ENDBRANCH  15  16
ENDBRANCH  14  15
ENDBRANCH   3  14
ENDBRANCH   2   3
TORSDOF 15
ENDMDL
MODEL      175
REMARK 921   NORMALIZED FREE ENERGY PREDICTED BY IDOCK:   -4.52 KCAL/MOL
REMARK 922        TOTAL FREE ENERGY PREDICTED BY IDOCK:  -11.13 KCAL/MOL
REMARK 923 INTER-LIGAND FREE ENERGY PREDICTED BY IDOCK:   -9.43 KCAL/MOL
REMARK 924 INTRA-LIGAND FREE ENERGY PREDICTED BY IDOCK:   -1.70 KCAL/MOL
REMARK 927      BINDING AFFINITY PREDICTED BY RF-SCORE:    0.00 PKD
ROOT
HETATM    1  C   UNL     1      -8.773   8.918  71.048  1.00  0.00    -0.276 C  
HETATM    2  C   UNL     1     -10.182   9.106  71.592  1.00  0.00    -0.301 C  
ENDROOT
BRANCH   2   3
HETATM    3  N   UNL     1     -11.092   7.839  71.563  1.00  0.00    -0.234 N  
BRANCH   3   4
HETATM    4  C   UNL     1     -12.532   8.228  71.117  1.00  0.00    -0.174 C  
HETATM    5  C   UNL     1     -13.180   9.345  71.895  1.00  0.00    -0.507 C  
ENDBRANCH   3   4
BRANCH   3   6
HETATM    6  C   UNL     1     -11.264   7.267  72.990  1.00  0.00    -0.264 C  
BRANCH   6   7
HETATM    7  C   UNL     1     -10.771   5.878  73.385  1.00  0.00    -0.293 A  
HETATM    8  C   UNL     1      -8.903   4.489  74.172  1.00  0.00    -0.106 A  
HETATM    9  C   UNL     1     -11.511   4.689  73.272  1.00  0.00    -0.346 A  
HETATM   10  C   UNL     1      -9.463   5.743  73.896  1.00  0.00    -0.138 A  
HETATM   11  C   UNL     1     -10.979   3.442  73.603  1.00  0.00    -0.329 A  
HETATM   12 CL   UNL     1      -8.474   7.136  74.170  1.00  0.00    -0.178 Cl 
HETATM   13  C   UNL     1      -9.667   3.337  74.029  1.00  0.00    -0.140 A  
ENDBRANCH   6   7
ENDBRANCH   3   6
BRANCH   3  14
HETATM   14  C   UNL     1     -10.381   6.818  70.585  1.00  0.00    -0.201 C  
BRANCH  14  15
HETATM   15  C   UNL     1     -10.933   6.738  69.120  1.00  0.00    -0.244 C  
BRANCH  15  16
HETATM   16  N   UNL     1     -10.536   7.778  68.182  1.00  0.00    -0.368 N  
HETATM   17  H   UNL     1     -10.985   8.693  68.211  1.00  0.00     0.000 HD 
HETATM   18  C   UNL     1      -9.540   7.516  67.245  1.00  0.00    -0.156 C  
HETATM   19  O   UNL     1      -8.831   6.524  67.273  1.00  0.00    -0.113 OA 
BRANCH  18  20
HETATM   20  C   UNL     1      -9.306   8.646  66.212  1.00  0.00    -0.220 C  
HETATM   21  N   UNL     1     -10.331   9.589  66.112  1.00  0.00    -0.187 N  
HETATM   22  O   UNL     1      -8.281   8.690  65.554  1.00  0.00    -0.119 OA 
HETATM   23  H   UNL     1     -11.274   9.373  66.434  1.00  0.00     0.000 HD 
BRANCH  21  24
HETATM   24  C   UNL     1     -10.020  10.891  65.534  1.00  0.00    -0.260 C  
BRANCH  24  25
HETATM   25  C   UNL     1      -9.481  11.948  66.536  1.00  0.00    -0.217 C  
BRANCH  25  26
HETATM   26  N   UNL     1     -10.523  12.997  66.996  1.00  0.00    -0.246 N  
BRANCH  26  27
HETATM   27  C   UNL     1     -11.125  13.737  65.765  1.00  0.00    -0.289 C  
HETATM   28  C   UNL     1     -12.645  13.723  65.677  1.00  0.00    -0.551 C  
ENDBRANCH  26  27
BRANCH  26  29
HETATM   29  C   UNL     1     -11.622  12.251  67.802  1.00  0.00    -0.351 C  
HETATM   30  C   UNL     1     -11.304  12.010  69.267  1.00  0.00    -0.330 C  
ENDBRANCH  26  29
BRANCH  26  31
HETATM   31  C   UNL     1      -9.838  14.083  67.906  1.00  0.00    -0.233 C  
BRANCH  31  32
HETATM   32  C   UNL     1      -9.878  15.540  67.476  1.00  0.00    -0.220 A  
HETATM   33  C   UNL     1      -9.068  15.995  66.415  1.00  0.00    -0.354 A  
HETATM   34  C   UNL     1      -8.988  17.353  66.087  1.00  0.00    -0.174 A  
HETATM   35  C   UNL     1      -9.700  18.289  66.824  1.00  0.00    -0.322 A  
HETATM   36  C   UNL     1     -10.522  17.866  67.863  1.00  0.00    -0.404 A  
HETATM   37  C   UNL     1     -10.620  16.508  68.183  1.00  0.00    -0.329 A  
HETATM   38 CL   UNL     1     -11.665  16.092  69.493  1.00  0.00    -0.259 Cl 
ENDBRANCH  31  32
ENDBRANCH  26  31
ENDBRANCH  25  26
ENDBRANCH  24  25
ENDBRANCH  21  24
ENDBRANCH  18  20
ENDBRANCH  15  16
ENDBRANCH  14  15
ENDBRANCH   3  14
ENDBRANCH   2   3
TORSDOF 15
ENDMDL
MODEL      176
REMARK 921   NORMALIZED FREE ENERGY PREDICTED BY IDOCK:   -4.50 KCAL/MOL
REMARK 922        TOTAL FREE ENERGY PREDICTED BY IDOCK:  -11.10 KCAL/MOL
REMARK 923 INTER-LIGAND FREE ENERGY PREDICTED BY IDOCK:   -9.86 KCAL/MOL
REMARK 924 INTRA-LIGAND FREE ENERGY PREDICTED BY IDOCK:   -1.24 KCAL/MOL
REMARK 927      BINDING AFFINITY PREDICTED BY RF-SCORE:    0.00 PKD
ROOT
HETATM    1  C   UNL     1      -9.966  15.007  69.591  1.00  0.00    -0.117 C  
HETATM    2  C   UNL     1      -9.000  14.621  68.479  1.00  0.00    -0.184 C  
ENDROOT
BRANCH   2   3
HETATM    3  N   UNL     1      -8.032  15.749  68.004  1.00  0.00    -0.134 N  
BRANCH   3   4
HETATM    4  C   UNL     1      -6.559  15.349  68.310  1.00  0.00    -0.121 C  
HETATM    5  C   UNL     1      -6.072  15.656  69.704  1.00  0.00    -0.157 C  
ENDBRANCH   3   4
BRANCH   3   6
HETATM    6  C   UNL     1      -8.267  17.040  68.823  1.00  0.00    -0.245 C  
BRANCH   6   7
HETATM    7  C   UNL     1      -8.930  18.280  68.232  1.00  0.00    -0.318 A  
HETATM    8  C   UNL     1      -8.684  20.616  67.508  1.00  0.00    -0.271 A  
HETATM    9  C   UNL     1     -10.301  18.416  67.955  1.00  0.00    -0.410 A  
HETATM   10  C   UNL     1      -8.130  19.405  67.944  1.00  0.00    -0.298 A  
HETATM   11  C   UNL     1     -10.851  19.601  67.463  1.00  0.00    -0.463 A  
HETATM   12 CL   UNL     1      -6.413  19.344  68.154  1.00  0.00    -0.253 Cl 
HETATM   13  C   UNL     1     -10.049  20.710  67.264  1.00  0.00    -0.350 A  
ENDBRANCH   6   7
ENDBRANCH   3   6
BRANCH   3  14
HETATM   14  C   UNL     1      -8.326  15.950  66.463  1.00  0.00    -0.295 C  
BRANCH  14  15
HETATM   15  C   UNL     1      -9.533  15.149  65.861  1.00  0.00    -0.299 C  
BRANCH  15  16
HETATM   16  N   UNL     1      -9.400  13.705  65.735  1.00  0.00    -0.488 N  
HETATM   17  H   UNL     1      -8.502  13.255  65.911  1.00  0.00     0.000 HD 
HETATM   18  C   UNL     1     -10.507  12.942  65.374  1.00  0.00    -0.292 C  
HETATM   19  O   UNL     1     -11.645  13.378  65.336  1.00  0.00    -0.304 OA 
BRANCH  18  20
HETATM   20  C   UNL     1     -10.210  11.441  65.132  1.00  0.00    -0.277 C  
HETATM   21  N   UNL     1      -9.564  10.780  66.179  1.00  0.00    -0.187 N  
HETATM   22  O   UNL     1     -10.540  10.897  64.091  1.00  0.00    -0.375 OA 
HETATM   23  H   UNL     1      -9.043  11.302  66.884  1.00  0.00     0.000 HD 
BRANCH  21  24
HETATM   24  C   UNL     1      -9.652   9.326  66.240  1.00  0.00    -0.248 C  
BRANCH  24  25
HETATM   25  C   UNL     1     -10.343   8.758  67.509  1.00  0.00    -0.268 C  
BRANCH  25  26
HETATM   26  N   UNL     1      -9.415   7.943  68.443  1.00  0.00    -0.147 N  
BRANCH  26  27
HETATM   27  C   UNL     1      -9.469   6.431  68.076  1.00  0.00    -0.116 C  
HETATM   28  C   UNL     1     -10.856   5.804  68.108  1.00  0.00    -0.249 C  
ENDBRANCH  26  27
BRANCH  26  29
HETATM   29  C   UNL     1      -7.977   8.512  68.294  1.00  0.00    -0.114 C  
HETATM   30  C   UNL     1      -7.174   8.600  69.579  1.00  0.00    -0.060 C  
ENDBRANCH  26  29
BRANCH  26  31
HETATM   31  C   UNL     1      -9.889   8.080  69.937  1.00  0.00    -0.186 C  
BRANCH  31  32
HETATM   32  C   UNL     1     -10.997   9.064  70.274  1.00  0.00    -0.274 A  
HETATM   33  C   UNL     1     -10.850  10.435  69.979  1.00  0.00    -0.348 A  
HETATM   34  C   UNL     1     -11.796  11.378  70.397  1.00  0.00    -0.428 A  
HETATM   35  C   UNL     1     -12.901  10.975  71.135  1.00  0.00    -0.491 A  
HETATM   36  C   UNL     1     -13.081   9.626  71.423  1.00  0.00    -0.471 A  
HETATM   37  C   UNL     1     -12.147   8.677  70.991  1.00  0.00    -0.215 A  
HETATM   38 CL   UNL     1     -12.465   7.032  71.407  1.00  0.00    -0.410 Cl 
ENDBRANCH  31  32
ENDBRANCH  26  31
ENDBRANCH  25  26
ENDBRANCH  24  25
ENDBRANCH  21  24
ENDBRANCH  18  20
ENDBRANCH  15  16
ENDBRANCH  14  15
ENDBRANCH   3  14
ENDBRANCH   2   3
TORSDOF 15
ENDMDL
MODEL      177
REMARK 921   NORMALIZED FREE ENERGY PREDICTED BY IDOCK:   -4.50 KCAL/MOL
REMARK 922        TOTAL FREE ENERGY PREDICTED BY IDOCK:  -11.10 KCAL/MOL
REMARK 923 INTER-LIGAND FREE ENERGY PREDICTED BY IDOCK:   -8.47 KCAL/MOL
REMARK 924 INTRA-LIGAND FREE ENERGY PREDICTED BY IDOCK:   -2.62 KCAL/MOL
REMARK 927      BINDING AFFINITY PREDICTED BY RF-SCORE:    0.00 PKD
ROOT
HETATM    1  C   UNL     1      -8.812   9.713  63.734  1.00  0.00    -0.257 C  
HETATM    2  C   UNL     1      -8.837   9.015  65.086  1.00  0.00    -0.182 C  
ENDROOT
BRANCH   2   3
HETATM    3  N   UNL     1      -9.669   9.725  66.198  1.00  0.00    -0.226 N  
BRANCH   3   4
HETATM    4  C   UNL     1     -10.423   8.668  67.056  1.00  0.00    -0.284 C  
HETATM    5  C   UNL     1      -9.933   7.248  66.929  1.00  0.00    -0.302 C  
ENDBRANCH   3   4
BRANCH   3   6
HETATM    6  C   UNL     1     -10.786  10.588  65.567  1.00  0.00     0.023 C  
BRANCH   6   7
HETATM    7  C   UNL     1     -10.856  12.102  65.744  1.00  0.00    -0.319 A  
HETATM    8  C   UNL     1     -11.598  13.995  67.125  1.00  0.00    -0.397 A  
HETATM    9  C   UNL     1     -10.436  13.053  64.798  1.00  0.00    -0.382 A  
HETATM   10  C   UNL     1     -11.396  12.621  66.940  1.00  0.00    -0.320 A  
HETATM   11  C   UNL     1     -10.578  14.426  65.003  1.00  0.00    -0.452 A  
HETATM   12 CL   UNL     1     -11.872  11.564  68.225  1.00  0.00    -0.362 Cl 
HETATM   13  C   UNL     1     -11.182  14.898  66.155  1.00  0.00    -0.325 A  
ENDBRANCH   6   7
ENDBRANCH   3   6
BRANCH   3  14
HETATM   14  C   UNL     1      -8.633  10.589  67.026  1.00  0.00    -0.127 C  
BRANCH  14  15
HETATM   15  C   UNL     1      -7.245   9.929  67.335  1.00  0.00    -0.086 C  
BRANCH  15  16
HETATM   16  N   UNL     1      -7.168   8.986  68.442  1.00  0.00    -0.077 N  
HETATM   17  H   UNL     1      -7.586   9.218  69.343  1.00  0.00     0.000 HD 
HETATM   18  C   UNL     1      -6.522   7.767  68.263  1.00  0.00    -0.057 C  
HETATM   19  O   UNL     1      -6.171   7.341  67.175  1.00  0.00    -0.042 OA 
BRANCH  18  20
HETATM   20  C   UNL     1      -6.379   6.913  69.547  1.00  0.00    -0.039 C  
HETATM   21  N   UNL     1      -7.123   7.349  70.645  1.00  0.00    -0.059 N  
HETATM   22  O   UNL     1      -5.664   5.924  69.566  1.00  0.00    -0.014 OA 
HETATM   23  H   UNL     1      -7.459   8.311  70.700  1.00  0.00     0.000 HD 
BRANCH  21  24
HETATM   24  C   UNL     1      -7.411   6.396  71.710  1.00  0.00    -0.088 C  
BRANCH  24  25
HETATM   25  C   UNL     1      -8.578   5.413  71.422  1.00  0.00    -0.130 C  
BRANCH  25  26
HETATM   26  N   UNL     1      -9.952   5.856  71.979  1.00  0.00    -0.174 N  
BRANCH  26  27
HETATM   27  C   UNL     1     -10.750   4.624  72.498  1.00  0.00    -0.149 C  
HETATM   28  C   UNL     1     -10.006   3.297  72.440  1.00  0.00    -0.233 C  
ENDBRANCH  26  27
BRANCH  26  29
HETATM   29  C   UNL     1      -9.694   6.884  73.115  1.00  0.00    -0.174 C  
HETATM   30  C   UNL     1      -9.935   6.373  74.524  1.00  0.00    -0.370 C  
ENDBRANCH  26  29
BRANCH  26  31
HETATM   31  C   UNL     1     -10.811   6.524  70.841  1.00  0.00    -0.253 C  
BRANCH  31  32
HETATM   32  C   UNL     1     -11.827   7.592  71.212  1.00  0.00    -0.319 A  
HETATM   33  C   UNL     1     -13.115   7.229  71.658  1.00  0.00    -0.417 A  
HETATM   34  C   UNL     1     -14.109   8.189  71.879  1.00  0.00    -0.493 A  
HETATM   35  C   UNL     1     -13.845   9.531  71.641  1.00  0.00    -0.287 A  
HETATM   36  C   UNL     1     -12.577   9.918  71.219  1.00  0.00    -0.480 A  
HETATM   37  C   UNL     1     -11.575   8.964  71.015  1.00  0.00    -0.293 A  
HETATM   38 CL   UNL     1     -10.040   9.553  70.486  1.00  0.00    -0.328 Cl 
ENDBRANCH  31  32
ENDBRANCH  26  31
ENDBRANCH  25  26
ENDBRANCH  24  25
ENDBRANCH  21  24
ENDBRANCH  18  20
ENDBRANCH  15  16
ENDBRANCH  14  15
ENDBRANCH   3  14
ENDBRANCH   2   3
TORSDOF 15
ENDMDL
MODEL      178
REMARK 921   NORMALIZED FREE ENERGY PREDICTED BY IDOCK:   -4.49 KCAL/MOL
REMARK 922        TOTAL FREE ENERGY PREDICTED BY IDOCK:  -11.08 KCAL/MOL
REMARK 923 INTER-LIGAND FREE ENERGY PREDICTED BY IDOCK:   -7.89 KCAL/MOL
REMARK 924 INTRA-LIGAND FREE ENERGY PREDICTED BY IDOCK:   -3.19 KCAL/MOL
REMARK 927      BINDING AFFINITY PREDICTED BY RF-SCORE:    0.00 PKD
ROOT
HETATM    1  C   UNL     1      -8.785  13.743  67.596  1.00  0.00    -0.185 C  
HETATM    2  C   UNL     1      -9.669  12.914  68.516  1.00  0.00    -0.127 C  
ENDROOT
BRANCH   2   3
HETATM    3  N   UNL     1     -11.134  12.692  68.028  1.00  0.00    -0.237 N  
BRANCH   3   4
HETATM    4  C   UNL     1     -12.104  13.622  68.814  1.00  0.00    -0.297 C  
HETATM    5  C   UNL     1     -11.712  13.927  70.237  1.00  0.00    -0.294 C  
ENDBRANCH   3   4
BRANCH   3   6
HETATM    6  C   UNL     1     -11.603  11.258  68.369  1.00  0.00    -0.308 C  
BRANCH   6   7
HETATM    7  C   UNL     1     -10.873  10.369  69.371  1.00  0.00    -0.287 A  
HETATM    8  C   UNL     1     -10.826   9.396  71.627  1.00  0.00    -0.348 A  
HETATM    9  C   UNL     1      -9.611   9.784  69.173  1.00  0.00    -0.192 A  
HETATM   10  C   UNL     1     -11.484  10.107  70.615  1.00  0.00    -0.349 A  
HETATM   11  C   UNL     1      -8.976   9.023  70.156  1.00  0.00    -0.200 A  
HETATM   12 CL   UNL     1     -13.076  10.692  70.958  1.00  0.00    -0.427 Cl 
HETATM   13  C   UNL     1      -9.570   8.850  71.393  1.00  0.00    -0.359 A  
ENDBRANCH   6   7
ENDBRANCH   3   6
BRANCH   3  14
HETATM   14  C   UNL     1     -11.116  12.967  66.470  1.00  0.00    -0.288 C  
BRANCH  14  15
HETATM   15  C   UNL     1     -11.158  11.715  65.528  1.00  0.00    -0.237 C  
BRANCH  15  16
HETATM   16  N   UNL     1     -10.068  10.754  65.619  1.00  0.00    -0.255 N  
HETATM   17  H   UNL     1      -9.748  10.426  66.531  1.00  0.00     0.000 HD 
HETATM   18  C   UNL     1      -9.464  10.286  64.456  1.00  0.00    -0.298 C  
HETATM   19  O   UNL     1      -9.910  10.480  63.338  1.00  0.00    -0.315 OA 
BRANCH  18  20
HETATM   20  C   UNL     1      -8.226   9.383  64.684  1.00  0.00    -0.148 C  
HETATM   21  N   UNL     1      -7.894   9.146  66.019  1.00  0.00    -0.101 N  
HETATM   22  O   UNL     1      -7.610   8.916  63.741  1.00  0.00    -0.112 OA 
HETATM   23  H   UNL     1      -8.221   9.768  66.758  1.00  0.00     0.000 HD 
BRANCH  21  24
HETATM   24  C   UNL     1      -7.068   7.986  66.332  1.00  0.00    -0.074 C  
BRANCH  24  25
HETATM   25  C   UNL     1      -7.641   7.040  67.423  1.00  0.00    -0.109 C  
BRANCH  25  26
HETATM   26  N   UNL     1      -7.488   5.530  67.118  1.00  0.00    -0.083 N  
BRANCH  26  27
HETATM   27  C   UNL     1      -7.235   5.308  65.598  1.00  0.00    -0.068 C  
HETATM   28  C   UNL     1      -5.985   4.509  65.257  1.00  0.00    -0.023 C  
ENDBRANCH  26  27
BRANCH  26  29
HETATM   29  C   UNL     1      -6.309   4.991  67.974  1.00  0.00    -0.036 C  
HETATM   30  C   UNL     1      -5.960   5.820  69.198  1.00  0.00    -0.020 C  
ENDBRANCH  26  29
BRANCH  26  31
HETATM   31  C   UNL     1      -8.811   4.763  67.490  1.00  0.00    -0.104 C  
BRANCH  31  32
HETATM   32  C   UNL     1      -9.631   5.236  68.679  1.00  0.00    -0.183 A  
HETATM   33  C   UNL     1      -9.376   4.729  69.971  1.00  0.00    -0.213 A  
HETATM   34  C   UNL     1     -10.199   5.047  71.056  1.00  0.00    -0.283 A  
HETATM   35  C   UNL     1     -11.306   5.864  70.873  1.00  0.00    -0.218 A  
HETATM   36  C   UNL     1     -11.570   6.394  69.614  1.00  0.00    -0.351 A  
HETATM   37  C   UNL     1     -10.739   6.094  68.530  1.00  0.00    -0.300 A  
HETATM   38 CL   UNL     1     -11.160   6.800  67.011  1.00  0.00    -0.460 Cl 
ENDBRANCH  31  32
ENDBRANCH  26  31
ENDBRANCH  25  26
ENDBRANCH  24  25
ENDBRANCH  21  24
ENDBRANCH  18  20
ENDBRANCH  15  16
ENDBRANCH  14  15
ENDBRANCH   3  14
ENDBRANCH   2   3
TORSDOF 15
ENDMDL
MODEL      179
REMARK 921   NORMALIZED FREE ENERGY PREDICTED BY IDOCK:   -4.47 KCAL/MOL
REMARK 922        TOTAL FREE ENERGY PREDICTED BY IDOCK:  -11.05 KCAL/MOL
REMARK 923 INTER-LIGAND FREE ENERGY PREDICTED BY IDOCK:   -9.23 KCAL/MOL
REMARK 924 INTRA-LIGAND FREE ENERGY PREDICTED BY IDOCK:   -1.82 KCAL/MOL
REMARK 927      BINDING AFFINITY PREDICTED BY RF-SCORE:    0.00 PKD
ROOT
HETATM    1  C   UNL     1      -7.848   5.047  67.591  1.00  0.00    -0.095 C  
HETATM    2  C   UNL     1      -7.413   6.248  68.418  1.00  0.00    -0.088 C  
ENDROOT
BRANCH   2   3
HETATM    3  N   UNL     1      -8.510   6.868  69.339  1.00  0.00    -0.132 N  
BRANCH   3   4
HETATM    4  C   UNL     1      -7.994   6.944  70.805  1.00  0.00    -0.106 C  
HETATM    5  C   UNL     1      -7.509   8.297  71.261  1.00  0.00    -0.082 C  
ENDBRANCH   3   4
BRANCH   3   6
HETATM    6  C   UNL     1      -9.745   5.940  69.404  1.00  0.00    -0.152 C  
BRANCH   6   7
HETATM    7  C   UNL     1     -10.185   5.245  70.689  1.00  0.00    -0.327 A  
HETATM    8  C   UNL     1     -11.488   5.368  72.769  1.00  0.00    -0.333 A  
HETATM    9  C   UNL     1      -9.722   3.997  71.139  1.00  0.00    -0.257 A  
HETATM   10  C   UNL     1     -11.123   5.890  71.522  1.00  0.00    -0.250 A  
HETATM   11  C   UNL     1     -10.129   3.442  72.354  1.00  0.00    -0.229 A  
HETATM   12 CL   UNL     1     -11.842   7.391  71.045  1.00  0.00    -0.329 Cl 
HETATM   13  C   UNL     1     -10.991   4.138  73.182  1.00  0.00    -0.278 A  
ENDBRANCH   6   7
ENDBRANCH   3   6
BRANCH   3  14
HETATM   14  C   UNL     1      -8.849   8.281  68.713  1.00  0.00    -0.137 C  
BRANCH  14  15
HETATM   15  C   UNL     1      -7.949   8.767  67.526  1.00  0.00    -0.102 C  
BRANCH  15  16
HETATM   16  N   UNL     1      -8.526   9.697  66.566  1.00  0.00    -0.123 N  
HETATM   17  H   UNL     1      -8.677  10.672  66.823  1.00  0.00     0.000 HD 
HETATM   18  C   UNL     1      -8.870   9.248  65.294  1.00  0.00    -0.198 C  
HETATM   19  O   UNL     1      -8.546   8.158  64.852  1.00  0.00    -0.124 OA 
BRANCH  18  20
HETATM   20  C   UNL     1      -9.605  10.289  64.414  1.00  0.00    -0.316 C  
HETATM   21  N   UNL     1     -10.720  10.890  65.000  1.00  0.00    -0.206 N  
HETATM   22  O   UNL     1      -9.206  10.554  63.292  1.00  0.00    -0.220 OA 
HETATM   23  H   UNL     1     -11.199  10.450  65.786  1.00  0.00     0.000 HD 
BRANCH  21  24
HETATM   24  C   UNL     1     -11.185  12.162  64.461  1.00  0.00    -0.331 C  
BRANCH  24  25
HETATM   25  C   UNL     1     -10.237  13.369  64.701  1.00  0.00    -0.315 C  
BRANCH  25  26
HETATM   26  N   UNL     1     -10.642  14.288  65.879  1.00  0.00    -0.292 N  
BRANCH  26  27
HETATM   27  C   UNL     1      -9.536  14.281  66.976  1.00  0.00    -0.257 C  
HETATM   28  C   UNL     1      -8.487  13.187  66.833  1.00  0.00    -0.081 C  
ENDBRANCH  26  27
BRANCH  26  29
HETATM   29  C   UNL     1     -10.867  15.716  65.310  1.00  0.00    -0.406 C  
HETATM   30  C   UNL     1     -10.195  16.838  66.080  1.00  0.00    -0.363 C  
ENDBRANCH  26  29
BRANCH  26  31
HETATM   31  C   UNL     1     -11.967  13.765  66.547  1.00  0.00    -0.434 C  
BRANCH  31  32
HETATM   32  C   UNL     1     -11.904  13.161  67.940  1.00  0.00    -0.390 A  
HETATM   33  C   UNL     1     -11.900  11.761  68.114  1.00  0.00    -0.324 A  
HETATM   34  C   UNL     1     -11.976  11.182  69.385  1.00  0.00    -0.420 A  
HETATM   35  C   UNL     1     -12.077  11.988  70.511  1.00  0.00    -0.402 A  
HETATM   36  C   UNL     1     -12.064  13.372  70.371  1.00  0.00    -0.405 A  
HETATM   37  C   UNL     1     -11.969  13.955  69.103  1.00  0.00    -0.363 A  
HETATM   38 CL   UNL     1     -11.966  15.681  69.041  1.00  0.00    -0.371 Cl 
ENDBRANCH  31  32
ENDBRANCH  26  31
ENDBRANCH  25  26
ENDBRANCH  24  25
ENDBRANCH  21  24
ENDBRANCH  18  20
ENDBRANCH  15  16
ENDBRANCH  14  15
ENDBRANCH   3  14
ENDBRANCH   2   3
TORSDOF 15
ENDMDL
MODEL      180
REMARK 921   NORMALIZED FREE ENERGY PREDICTED BY IDOCK:   -4.47 KCAL/MOL
REMARK 922        TOTAL FREE ENERGY PREDICTED BY IDOCK:  -11.04 KCAL/MOL
REMARK 923 INTER-LIGAND FREE ENERGY PREDICTED BY IDOCK:   -8.86 KCAL/MOL
REMARK 924 INTRA-LIGAND FREE ENERGY PREDICTED BY IDOCK:   -2.18 KCAL/MOL
REMARK 927      BINDING AFFINITY PREDICTED BY RF-SCORE:    0.00 PKD
ROOT
HETATM    1  C   UNL     1      -6.540  19.864  69.450  1.00  0.00    -0.375 C  
HETATM    2  C   UNL     1      -7.351  19.613  68.186  1.00  0.00    -0.302 C  
ENDROOT
BRANCH   2   3
HETATM    3  N   UNL     1      -7.400  18.132  67.698  1.00  0.00    -0.211 N  
BRANCH   3   4
HETATM    4  C   UNL     1      -7.108  18.066  66.170  1.00  0.00    -0.295 C  
HETATM    5  C   UNL     1      -6.908  19.392  65.482  1.00  0.00    -0.303 C  
ENDBRANCH   3   4
BRANCH   3   6
HETATM    6  C   UNL     1      -8.829  17.562  67.850  1.00  0.00    -0.247 C  
BRANCH   6   7
HETATM    7  C   UNL     1      -9.491  16.701  66.778  1.00  0.00    -0.260 A  
HETATM    8  C   UNL     1     -11.121  16.566  64.944  1.00  0.00    -0.199 A  
HETATM    9  C   UNL     1      -9.296  15.321  66.608  1.00  0.00    -0.285 A  
HETATM   10  C   UNL     1     -10.390  17.311  65.878  1.00  0.00    -0.278 A  
HETATM   11  C   UNL     1      -9.976  14.582  65.638  1.00  0.00    -0.376 A  
HETATM   12 CL   UNL     1     -10.657  19.021  65.919  1.00  0.00    -0.529 Cl 
HETATM   13  C   UNL     1     -10.908  15.198  64.822  1.00  0.00    -0.378 A  
ENDBRANCH   6   7
ENDBRANCH   3   6
BRANCH   3  14
HETATM   14  C   UNL     1      -6.342  17.352  68.578  1.00  0.00    -0.176 C  
BRANCH  14  15
HETATM   15  C   UNL     1      -6.879  16.154  69.435  1.00  0.00    -0.214 C  
BRANCH  15  16
HETATM   16  N   UNL     1      -6.881  14.829  68.832  1.00  0.00    -0.099 N  
HETATM   17  H   UNL     1      -7.209  14.702  67.875  1.00  0.00     0.000 HD 
HETATM   18  C   UNL     1      -6.433  13.737  69.569  1.00  0.00    -0.105 C  
HETATM   19  O   UNL     1      -5.852  13.834  70.637  1.00  0.00    -0.169 OA 
BRANCH  18  20
HETATM   20  C   UNL     1      -6.617  12.364  68.874  1.00  0.00    -0.095 C  
HETATM   21  N   UNL     1      -7.344  11.417  69.599  1.00  0.00    -0.359 N  
HETATM   22  O   UNL     1      -6.158  12.157  67.764  1.00  0.00    -0.067 OA 
HETATM   23  H   UNL     1      -7.450  11.502  70.610  1.00  0.00     0.000 HD 
BRANCH  21  24
HETATM   24  C   UNL     1      -7.947  10.304  68.875  1.00  0.00    -0.113 C  
BRANCH  24  25
HETATM   25  C   UNL     1      -9.496  10.228  68.949  1.00  0.00    -0.188 C  
BRANCH  25  26
HETATM   26  N   UNL     1     -10.219  10.386  67.589  1.00  0.00    -0.190 N  
BRANCH  26  27
HETATM   27  C   UNL     1     -10.526   8.989  66.974  1.00  0.00    -0.246 C  
HETATM   28  C   UNL     1     -10.408   7.815  67.936  1.00  0.00    -0.276 C  
ENDBRANCH  26  27
BRANCH  26  29
HETATM   29  C   UNL     1     -11.521  11.196  67.836  1.00  0.00    -0.284 C  
HETATM   30  C   UNL     1     -11.941  11.327  69.290  1.00  0.00    -0.411 C  
ENDBRANCH  26  29
BRANCH  26  31
HETATM   31  C   UNL     1      -9.299  11.155  66.569  1.00  0.00    -0.180 C  
BRANCH  31  32
HETATM   32  C   UNL     1      -8.988  10.515  65.227  1.00  0.00    -0.211 A  
HETATM   33  C   UNL     1      -7.786   9.801  65.035  1.00  0.00    -0.126 A  
HETATM   34  C   UNL     1      -7.416   9.317  63.776  1.00  0.00    -0.106 A  
HETATM   35  C   UNL     1      -8.230   9.550  62.675  1.00  0.00    -0.150 A  
HETATM   36  C   UNL     1      -9.430  10.234  62.839  1.00  0.00    -0.333 A  
HETATM   37  C   UNL     1      -9.812  10.704  64.100  1.00  0.00    -0.335 A  
HETATM   38 CL   UNL     1     -11.319  11.544  64.190  1.00  0.00    -0.391 Cl 
ENDBRANCH  31  32
ENDBRANCH  26  31
ENDBRANCH  25  26
ENDBRANCH  24  25
ENDBRANCH  21  24
ENDBRANCH  18  20
ENDBRANCH  15  16
ENDBRANCH  14  15
ENDBRANCH   3  14
ENDBRANCH   2   3
TORSDOF 15
ENDMDL
MODEL      181
REMARK 921   NORMALIZED FREE ENERGY PREDICTED BY IDOCK:   -4.46 KCAL/MOL
REMARK 922        TOTAL FREE ENERGY PREDICTED BY IDOCK:  -11.03 KCAL/MOL
REMARK 923 INTER-LIGAND FREE ENERGY PREDICTED BY IDOCK:   -9.45 KCAL/MOL
REMARK 924 INTRA-LIGAND FREE ENERGY PREDICTED BY IDOCK:   -1.59 KCAL/MOL
REMARK 927      BINDING AFFINITY PREDICTED BY RF-SCORE:    0.00 PKD
ROOT
HETATM    1  C   UNL     1      -8.321   8.055  74.155  1.00  0.00    -0.311 C  
HETATM    2  C   UNL     1      -9.231   8.139  72.939  1.00  0.00    -0.273 C  
ENDROOT
BRANCH   2   3
HETATM    3  N   UNL     1     -10.121   6.886  72.673  1.00  0.00    -0.171 N  
BRANCH   3   4
HETATM    4  C   UNL     1     -11.597   7.321  72.436  1.00  0.00    -0.268 C  
HETATM    5  C   UNL     1     -11.811   8.786  72.150  1.00  0.00    -0.436 C  
ENDBRANCH   3   4
BRANCH   3   6
HETATM    6  C   UNL     1     -10.174   5.987  73.930  1.00  0.00    -0.266 C  
BRANCH   6   7
HETATM    7  C   UNL     1     -10.229   4.464  73.853  1.00  0.00    -0.235 A  
HETATM    8  C   UNL     1      -8.990   2.342  73.892  1.00  0.00    -0.074 A  
HETATM    9  C   UNL     1     -11.377   3.704  73.573  1.00  0.00    -0.233 A  
HETATM   10  C   UNL     1      -9.041   3.731  74.060  1.00  0.00    -0.089 A  
HETATM   11  C   UNL     1     -11.345   2.313  73.464  1.00  0.00    -0.314 A  
HETATM   12 CL   UNL     1      -7.573   4.536  74.499  1.00  0.00    -0.080 Cl 
HETATM   13  C   UNL     1     -10.148   1.632  73.597  1.00  0.00    -0.135 A  
ENDBRANCH   6   7
ENDBRANCH   3   6
BRANCH   3  14
HETATM   14  C   UNL     1      -9.471   6.150  71.432  1.00  0.00    -0.156 C  
BRANCH  14  15
HETATM   15  C   UNL     1      -8.634   7.032  70.443  1.00  0.00    -0.142 C  
BRANCH  15  16
HETATM   16  N   UNL     1      -9.346   7.997  69.617  1.00  0.00    -0.156 N  
HETATM   17  H   UNL     1     -10.185   7.717  69.110  1.00  0.00     0.000 HD 
HETATM   18  C   UNL     1      -8.876   9.304  69.526  1.00  0.00    -0.151 C  
HETATM   19  O   UNL     1      -8.003   9.760  70.245  1.00  0.00    -0.170 OA 
BRANCH  18  20
HETATM   20  C   UNL     1      -9.630  10.196  68.509  1.00  0.00    -0.154 C  
HETATM   21  N   UNL     1      -9.880  11.504  68.927  1.00  0.00    -0.384 N  
HETATM   22  O   UNL     1      -9.961   9.760  67.419  1.00  0.00    -0.172 OA 
HETATM   23  H   UNL     1      -9.870  11.748  69.917  1.00  0.00     0.000 HD 
BRANCH  21  24
HETATM   24  C   UNL     1     -10.156  12.515  67.913  1.00  0.00    -0.214 C  
BRANCH  24  25
HETATM   25  C   UNL     1      -9.807  13.973  68.319  1.00  0.00    -0.233 C  
BRANCH  25  26
HETATM   26  N   UNL     1     -10.716  15.056  67.690  1.00  0.00    -0.268 N  
BRANCH  26  27
HETATM   27  C   UNL     1     -11.788  14.398  66.772  1.00  0.00    -0.410 C  
HETATM   28  C   UNL     1     -11.575  14.599  65.278  1.00  0.00    -0.354 C  
ENDBRANCH  26  27
BRANCH  26  29
HETATM   29  C   UNL     1     -11.375  15.852  68.851  1.00  0.00    -0.377 C  
HETATM   30  C   UNL     1     -10.793  15.596  70.229  1.00  0.00    -0.366 C  
ENDBRANCH  26  29
BRANCH  26  31
HETATM   31  C   UNL     1      -9.864  16.029  66.793  1.00  0.00    -0.250 C  
BRANCH  31  32
HETATM   32  C   UNL     1      -9.676  17.470  67.238  1.00  0.00    -0.276 A  
HETATM   33  C   UNL     1     -10.456  18.501  66.673  1.00  0.00    -0.436 A  
HETATM   34  C   UNL     1     -10.213  19.847  66.968  1.00  0.00    -0.588 A  
HETATM   35  C   UNL     1      -9.173  20.195  67.819  1.00  0.00    -0.429 A  
HETATM   36  C   UNL     1      -8.400  19.198  68.405  1.00  0.00    -0.384 A  
HETATM   37  C   UNL     1      -8.652  17.850  68.128  1.00  0.00    -0.264 A  
HETATM   38 CL   UNL     1      -7.631  16.694  68.905  1.00  0.00    -0.231 Cl 
ENDBRANCH  31  32
ENDBRANCH  26  31
ENDBRANCH  25  26
ENDBRANCH  24  25
ENDBRANCH  21  24
ENDBRANCH  18  20
ENDBRANCH  15  16
ENDBRANCH  14  15
ENDBRANCH   3  14
ENDBRANCH   2   3
TORSDOF 15
ENDMDL
MODEL      182
REMARK 921   NORMALIZED FREE ENERGY PREDICTED BY IDOCK:   -4.45 KCAL/MOL
REMARK 922        TOTAL FREE ENERGY PREDICTED BY IDOCK:  -11.01 KCAL/MOL
REMARK 923 INTER-LIGAND FREE ENERGY PREDICTED BY IDOCK:   -9.95 KCAL/MOL
REMARK 924 INTRA-LIGAND FREE ENERGY PREDICTED BY IDOCK:   -1.07 KCAL/MOL
REMARK 927      BINDING AFFINITY PREDICTED BY RF-SCORE:    0.00 PKD
ROOT
HETATM    1  C   UNL     1     -11.026  16.182  65.074  1.00  0.00    -0.357 C  
HETATM    2  C   UNL     1     -11.150  15.341  66.336  1.00  0.00    -0.273 C  
ENDROOT
BRANCH   2   3
HETATM    3  N   UNL     1     -10.425  15.904  67.597  1.00  0.00    -0.282 N  
BRANCH   3   4
HETATM    4  C   UNL     1     -11.062  15.310  68.887  1.00  0.00    -0.266 C  
HETATM    5  C   UNL     1     -11.846  14.035  68.705  1.00  0.00    -0.396 C  
ENDBRANCH   3   4
BRANCH   3   6
HETATM    6  C   UNL     1     -10.652  17.429  67.713  1.00  0.00    -0.371 C  
BRANCH   6   7
HETATM    7  C   UNL     1      -9.503  18.431  67.769  1.00  0.00    -0.291 A  
HETATM    8  C   UNL     1      -8.392  20.369  66.744  1.00  0.00    -0.273 A  
HETATM    9  C   UNL     1      -8.437  18.397  68.683  1.00  0.00    -0.318 A  
HETATM   10  C   UNL     1      -9.472  19.481  66.827  1.00  0.00    -0.354 A  
HETATM   11  C   UNL     1      -7.388  19.317  68.645  1.00  0.00    -0.373 A  
HETATM   12 CL   UNL     1     -10.767  19.693  65.699  1.00  0.00    -0.540 Cl 
HETATM   13  C   UNL     1      -7.350  20.288  67.659  1.00  0.00    -0.340 A  
ENDBRANCH   6   7
ENDBRANCH   3   6
BRANCH   3  14
HETATM   14  C   UNL     1      -8.897  15.533  67.418  1.00  0.00    -0.190 C  
BRANCH  14  15
HETATM   15  C   UNL     1      -8.576  14.154  66.744  1.00  0.00    -0.069 C  
BRANCH  15  16
HETATM   16  N   UNL     1      -8.554  12.969  67.589  1.00  0.00    -0.177 N  
HETATM   17  H   UNL     1      -7.990  12.955  68.439  1.00  0.00     0.000 HD 
HETATM   18  C   UNL     1      -9.307  11.855  67.231  1.00  0.00    -0.177 C  
HETATM   19  O   UNL     1     -10.146  11.862  66.346  1.00  0.00    -0.207 OA 
BRANCH  18  20
HETATM   20  C   UNL     1      -9.091  10.609  68.126  1.00  0.00    -0.148 C  
HETATM   21  N   UNL     1     -10.236  10.116  68.755  1.00  0.00    -0.177 N  
HETATM   22  O   UNL     1      -7.986  10.108  68.246  1.00  0.00    -0.098 OA 
HETATM   23  H   UNL     1     -11.058  10.707  68.884  1.00  0.00     0.000 HD 
BRANCH  21  24
HETATM   24  C   UNL     1     -10.228   8.736  69.225  1.00  0.00    -0.210 C  
BRANCH  24  25
HETATM   25  C   UNL     1      -9.930   8.553  70.738  1.00  0.00    -0.191 C  
BRANCH  25  26
HETATM   26  N   UNL     1     -11.129   8.049  71.579  1.00  0.00    -0.242 N  
BRANCH  26  27
HETATM   27  C   UNL     1     -10.693   7.808  73.054  1.00  0.00    -0.384 C  
HETATM   28  C   UNL     1      -9.196   7.915  73.315  1.00  0.00    -0.346 C  
ENDBRANCH  26  27
BRANCH  26  29
HETATM   29  C   UNL     1     -12.253   9.117  71.487  1.00  0.00    -0.349 C  
HETATM   30  C   UNL     1     -13.449   8.884  72.393  1.00  0.00    -0.499 C  
ENDBRANCH  26  29
BRANCH  26  31
HETATM   31  C   UNL     1     -11.651   6.676  71.014  1.00  0.00    -0.346 C  
BRANCH  31  32
HETATM   32  C   UNL     1     -10.678   5.518  70.868  1.00  0.00    -0.283 A  
HETATM   33  C   UNL     1      -9.988   5.312  69.655  1.00  0.00    -0.302 A  
HETATM   34  C   UNL     1      -9.189   4.182  69.452  1.00  0.00    -0.210 A  
HETATM   35  C   UNL     1      -9.076   3.222  70.448  1.00  0.00    -0.191 A  
HETATM   36  C   UNL     1      -9.730   3.409  71.661  1.00  0.00    -0.234 A  
HETATM   37  C   UNL     1     -10.515   4.547  71.876  1.00  0.00    -0.071 A  
HETATM   38 CL   UNL     1     -11.287   4.678  73.416  1.00  0.00    -0.414 Cl 
ENDBRANCH  31  32
ENDBRANCH  26  31
ENDBRANCH  25  26
ENDBRANCH  24  25
ENDBRANCH  21  24
ENDBRANCH  18  20
ENDBRANCH  15  16
ENDBRANCH  14  15
ENDBRANCH   3  14
ENDBRANCH   2   3
TORSDOF 15
ENDMDL
MODEL      183
REMARK 921   NORMALIZED FREE ENERGY PREDICTED BY IDOCK:   -4.44 KCAL/MOL
REMARK 922        TOTAL FREE ENERGY PREDICTED BY IDOCK:  -11.00 KCAL/MOL
REMARK 923 INTER-LIGAND FREE ENERGY PREDICTED BY IDOCK:   -8.48 KCAL/MOL
REMARK 924 INTRA-LIGAND FREE ENERGY PREDICTED BY IDOCK:   -2.52 KCAL/MOL
REMARK 927      BINDING AFFINITY PREDICTED BY RF-SCORE:    0.00 PKD
ROOT
HETATM    1  C   UNL     1     -10.544   5.385  71.161  1.00  0.00    -0.276 C  
HETATM    2  C   UNL     1      -9.229   6.149  71.128  1.00  0.00    -0.153 C  
ENDROOT
BRANCH   2   3
HETATM    3  N   UNL     1      -9.317   7.626  70.634  1.00  0.00    -0.163 N  
BRANCH   3   4
HETATM    4  C   UNL     1     -10.791   8.122  70.701  1.00  0.00    -0.233 C  
HETATM    5  C   UNL     1     -10.976   9.586  71.014  1.00  0.00    -0.424 C  
ENDBRANCH   3   4
BRANCH   3   6
HETATM    6  C   UNL     1      -8.940   7.715  69.136  1.00  0.00    -0.135 C  
BRANCH   6   7
HETATM    7  C   UNL     1      -8.485   6.504  68.328  1.00  0.00    -0.116 A  
HETATM    8  C   UNL     1      -9.126   4.564  66.962  1.00  0.00    -0.133 A  
HETATM    9  C   UNL     1      -7.160   6.048  68.222  1.00  0.00    -0.082 A  
HETATM   10  C   UNL     1      -9.453   5.751  67.630  1.00  0.00    -0.112 A  
HETATM   11  C   UNL     1      -6.819   4.898  67.507  1.00  0.00    -0.060 A  
HETATM   12 CL   UNL     1     -11.109   6.252  67.603  1.00  0.00    -0.426 Cl 
HETATM   13  C   UNL     1      -7.804   4.141  66.898  1.00  0.00    -0.097 A  
ENDBRANCH   6   7
ENDBRANCH   3   6
BRANCH   3  14
HETATM   14  C   UNL     1      -8.329   8.449  71.555  1.00  0.00    -0.154 C  
BRANCH  14  15
HETATM   15  C   UNL     1      -7.125   9.160  70.846  1.00  0.00    -0.105 C  
BRANCH  15  16
HETATM   16  N   UNL     1      -7.372  10.438  70.196  1.00  0.00    -0.283 N  
HETATM   17  H   UNL     1      -8.321  10.807  70.134  1.00  0.00     0.000 HD 
HETATM   18  C   UNL     1      -6.306  11.156  69.661  1.00  0.00    -0.119 C  
HETATM   19  O   UNL     1      -5.136  10.879  69.863  1.00  0.00    -0.041 OA 
BRANCH  18  20
HETATM   20  C   UNL     1      -6.710  12.426  68.871  1.00  0.00    -0.098 C  
HETATM   21  N   UNL     1      -8.065  12.529  68.551  1.00  0.00    -0.272 N  
HETATM   22  O   UNL     1      -5.879  13.268  68.573  1.00  0.00    -0.074 OA 
HETATM   23  H   UNL     1      -8.664  11.703  68.539  1.00  0.00     0.000 HD 
BRANCH  21  24
HETATM   24  C   UNL     1      -8.603  13.846  68.233  1.00  0.00    -0.177 C  
BRANCH  24  25
HETATM   25  C   UNL     1      -9.332  13.951  66.865  1.00  0.00    -0.258 C  
BRANCH  25  26
HETATM   26  N   UNL     1     -10.813  14.394  66.952  1.00  0.00    -0.296 N  
BRANCH  26  27
HETATM   27  C   UNL     1     -11.159  14.846  68.401  1.00  0.00    -0.273 C  
HETATM   28  C   UNL     1     -12.156  13.961  69.137  1.00  0.00    -0.377 C  
ENDBRANCH  26  27
BRANCH  26  29
HETATM   29  C   UNL     1     -11.022  15.547  65.932  1.00  0.00    -0.264 C  
HETATM   30  C   UNL     1     -10.059  16.714  66.061  1.00  0.00    -0.359 C  
ENDBRANCH  26  29
BRANCH  26  31
HETATM   31  C   UNL     1     -11.763  13.190  66.597  1.00  0.00    -0.375 C  
BRANCH  31  32
HETATM   32  C   UNL     1     -11.150  11.854  66.211  1.00  0.00    -0.364 A  
HETATM   33  C   UNL     1     -10.897  10.872  67.191  1.00  0.00    -0.337 A  
HETATM   34  C   UNL     1     -10.215   9.690  66.883  1.00  0.00    -0.304 A  
HETATM   35  C   UNL     1      -9.753   9.470  65.593  1.00  0.00    -0.361 A  
HETATM   36  C   UNL     1     -10.004  10.413  64.602  1.00  0.00    -0.408 A  
HETATM   37  C   UNL     1     -10.703  11.588  64.901  1.00  0.00    -0.297 A  
HETATM   38 CL   UNL     1     -10.957  12.693  63.598  1.00  0.00    -0.478 Cl 
ENDBRANCH  31  32
ENDBRANCH  26  31
ENDBRANCH  25  26
ENDBRANCH  24  25
ENDBRANCH  21  24
ENDBRANCH  18  20
ENDBRANCH  15  16
ENDBRANCH  14  15
ENDBRANCH   3  14
ENDBRANCH   2   3
TORSDOF 15
ENDMDL
MODEL      184
REMARK 921   NORMALIZED FREE ENERGY PREDICTED BY IDOCK:   -4.43 KCAL/MOL
REMARK 922        TOTAL FREE ENERGY PREDICTED BY IDOCK:  -10.98 KCAL/MOL
REMARK 923 INTER-LIGAND FREE ENERGY PREDICTED BY IDOCK:   -9.05 KCAL/MOL
REMARK 924 INTRA-LIGAND FREE ENERGY PREDICTED BY IDOCK:   -1.93 KCAL/MOL
REMARK 927      BINDING AFFINITY PREDICTED BY RF-SCORE:    0.00 PKD
ROOT
HETATM    1  C   UNL     1      -8.895   6.619  72.922  1.00  0.00    -0.134 C  
HETATM    2  C   UNL     1      -9.044   7.160  71.508  1.00  0.00    -0.142 C  
ENDROOT
BRANCH   2   3
HETATM    3  N   UNL     1      -9.983   6.343  70.567  1.00  0.00    -0.183 N  
BRANCH   3   4
HETATM    4  C   UNL     1     -10.367   4.993  71.239  1.00  0.00    -0.185 C  
HETATM    5  C   UNL     1      -9.804   3.754  70.590  1.00  0.00    -0.159 C  
ENDBRANCH   3   4
BRANCH   3   6
HETATM    6  C   UNL     1      -9.233   5.940  69.276  1.00  0.00    -0.122 C  
BRANCH   6   7
HETATM    7  C   UNL     1      -8.733   6.963  68.260  1.00  0.00    -0.123 A  
HETATM    8  C   UNL     1      -8.988   7.964  66.030  1.00  0.00    -0.195 A  
HETATM    9  C   UNL     1      -7.590   7.766  68.409  1.00  0.00    -0.109 A  
HETATM   10  C   UNL     1      -9.449   7.129  67.056  1.00  0.00    -0.155 A  
HETATM   11  C   UNL     1      -7.158   8.646  67.415  1.00  0.00    -0.080 A  
HETATM   12 CL   UNL     1     -10.924   6.268  66.780  1.00  0.00    -0.397 Cl 
HETATM   13  C   UNL     1      -7.841   8.728  66.215  1.00  0.00    -0.102 A  
ENDBRANCH   6   7
ENDBRANCH   3   6
BRANCH   3  14
HETATM   14  C   UNL     1     -11.224   7.281  70.276  1.00  0.00    -0.262 C  
BRANCH  14  15
HETATM   15  C   UNL     1     -11.635   8.285  71.408  1.00  0.00    -0.280 C  
BRANCH  15  16
HETATM   16  N   UNL     1     -11.814   9.684  71.048  1.00  0.00    -0.322 N  
HETATM   17  H   UNL     1     -11.213  10.114  70.345  1.00  0.00     0.000 HD 
HETATM   18  C   UNL     1     -12.811  10.431  71.668  1.00  0.00    -0.474 C  
HETATM   19  O   UNL     1     -13.684   9.945  72.367  1.00  0.00    -0.338 OA 
BRANCH  18  20
HETATM   20  C   UNL     1     -12.811  11.939  71.310  1.00  0.00    -0.290 C  
HETATM   21  N   UNL     1     -11.966  12.307  70.261  1.00  0.00    -0.472 N  
HETATM   22  O   UNL     1     -13.521  12.726  71.912  1.00  0.00    -0.450 OA 
HETATM   23  H   UNL     1     -11.184  11.711  69.987  1.00  0.00     0.000 HD 
BRANCH  21  24
HETATM   24  C   UNL     1     -12.227  13.562  69.569  1.00  0.00    -0.236 C  
BRANCH  24  25
HETATM   25  C   UNL     1     -11.094  14.045  68.622  1.00  0.00    -0.264 C  
BRANCH  25  26
HETATM   26  N   UNL     1     -11.174  13.489  67.179  1.00  0.00    -0.296 N  
BRANCH  26  27
HETATM   27  C   UNL     1     -11.755  12.044  67.187  1.00  0.00    -0.273 C  
HETATM   28  C   UNL     1     -10.793  10.955  66.731  1.00  0.00    -0.283 C  
ENDBRANCH  26  27
BRANCH  26  29
HETATM   29  C   UNL     1     -12.065  14.454  66.349  1.00  0.00    -0.369 C  
HETATM   30  C   UNL     1     -12.101  14.186  64.855  1.00  0.00    -0.438 C  
ENDBRANCH  26  29
BRANCH  26  31
HETATM   31  C   UNL     1      -9.736  13.413  66.544  1.00  0.00    -0.282 C  
BRANCH  31  32
HETATM   32  C   UNL     1      -8.721  14.492  66.882  1.00  0.00    -0.237 A  
HETATM   33  C   UNL     1      -8.853  15.791  66.349  1.00  0.00    -0.371 A  
HETATM   34  C   UNL     1      -7.864  16.762  66.538  1.00  0.00    -0.338 A  
HETATM   35  C   UNL     1      -6.711  16.452  67.247  1.00  0.00    -0.221 A  
HETATM   36  C   UNL     1      -6.564  15.184  67.800  1.00  0.00    -0.186 A  
HETATM   37  C   UNL     1      -7.559  14.216  67.630  1.00  0.00    -0.180 A  
HETATM   38 CL   UNL     1      -7.273  12.674  68.354  1.00  0.00    -0.104 Cl 
ENDBRANCH  31  32
ENDBRANCH  26  31
ENDBRANCH  25  26
ENDBRANCH  24  25
ENDBRANCH  21  24
ENDBRANCH  18  20
ENDBRANCH  15  16
ENDBRANCH  14  15
ENDBRANCH   3  14
ENDBRANCH   2   3
TORSDOF 15
ENDMDL
MODEL      185
REMARK 921   NORMALIZED FREE ENERGY PREDICTED BY IDOCK:   -4.42 KCAL/MOL
REMARK 922        TOTAL FREE ENERGY PREDICTED BY IDOCK:  -10.96 KCAL/MOL
REMARK 923 INTER-LIGAND FREE ENERGY PREDICTED BY IDOCK:   -9.52 KCAL/MOL
REMARK 924 INTRA-LIGAND FREE ENERGY PREDICTED BY IDOCK:   -1.45 KCAL/MOL
REMARK 927      BINDING AFFINITY PREDICTED BY RF-SCORE:    0.00 PKD
ROOT
HETATM    1  C   UNL     1     -10.689   5.596  66.961  1.00  0.00    -0.332 C  
HETATM    2  C   UNL     1     -10.879   5.781  68.459  1.00  0.00    -0.184 C  
ENDROOT
BRANCH   2   3
HETATM    3  N   UNL     1      -9.598   5.601  69.330  1.00  0.00    -0.137 N  
BRANCH   3   4
HETATM    4  C   UNL     1      -9.614   4.206  70.020  1.00  0.00    -0.203 C  
HETATM    5  C   UNL     1      -9.444   4.213  71.518  1.00  0.00    -0.221 C  
ENDBRANCH   3   4
BRANCH   3   6
HETATM    6  C   UNL     1      -9.593   6.616  70.497  1.00  0.00    -0.169 C  
BRANCH   6   7
HETATM    7  C   UNL     1     -10.841   7.382  70.927  1.00  0.00    -0.255 A  
HETATM    8  C   UNL     1     -11.857   9.555  71.460  1.00  0.00    -0.478 A  
HETATM    9  C   UNL     1     -12.061   6.800  71.310  1.00  0.00    -0.421 A  
HETATM   10  C   UNL     1     -10.791   8.791  70.968  1.00  0.00    -0.260 A  
HETATM   11  C   UNL     1     -13.149   7.560  71.744  1.00  0.00    -0.362 A  
HETATM   12 CL   UNL     1      -9.380   9.641  70.438  1.00  0.00    -0.301 Cl 
HETATM   13  C   UNL     1     -13.040   8.935  71.845  1.00  0.00    -0.436 A  
ENDBRANCH   6   7
ENDBRANCH   3   6
BRANCH   3  14
HETATM   14  C   UNL     1      -8.375   5.806  68.347  1.00  0.00    -0.107 C  
BRANCH  14  15
HETATM   15  C   UNL     1      -7.717   7.229  68.321  1.00  0.00    -0.120 C  
BRANCH  15  16
HETATM   16  N   UNL     1      -8.310   8.241  67.458  1.00  0.00    -0.128 N  
HETATM   17  H   UNL     1      -8.920   8.957  67.852  1.00  0.00     0.000 HD 
HETATM   18  C   UNL     1      -8.040   8.225  66.093  1.00  0.00    -0.111 C  
HETATM   19  O   UNL     1      -7.179   7.528  65.583  1.00  0.00    -0.063 OA 
BRANCH  18  20
HETATM   20  C   UNL     1      -8.839   9.258  65.261  1.00  0.00    -0.198 C  
HETATM   21  N   UNL     1     -10.139   9.509  65.703  1.00  0.00    -0.341 N  
HETATM   22  O   UNL     1      -8.335   9.809  64.296  1.00  0.00    -0.143 OA 
HETATM   23  H   UNL     1     -10.626   8.841  66.300  1.00  0.00     0.000 HD 
BRANCH  21  24
HETATM   24  C   UNL     1     -10.784  10.750  65.290  1.00  0.00    -0.083 C  
BRANCH  24  25
HETATM   25  C   UNL     1     -11.161  11.717  66.446  1.00  0.00    -0.291 C  
BRANCH  25  26
HETATM   26  N   UNL     1     -10.684  13.177  66.252  1.00  0.00    -0.282 N  
BRANCH  26  27
HETATM   27  C   UNL     1      -9.244  13.356  66.818  1.00  0.00    -0.236 C  
HETATM   28  C   UNL     1      -8.873  12.418  67.959  1.00  0.00    -0.187 C  
ENDBRANCH  26  27
BRANCH  26  29
HETATM   29  C   UNL     1     -10.739  13.495  64.732  1.00  0.00    -0.401 C  
HETATM   30  C   UNL     1     -12.124  13.778  64.176  1.00  0.00    -0.478 C  
ENDBRANCH  26  29
BRANCH  26  31
HETATM   31  C   UNL     1     -11.622  14.165  67.038  1.00  0.00    -0.382 C  
BRANCH  31  32
HETATM   32  C   UNL     1     -11.092  15.535  67.429  1.00  0.00    -0.285 A  
HETATM   33  C   UNL     1     -10.405  16.331  66.488  1.00  0.00    -0.310 A  
HETATM   34  C   UNL     1      -9.794  17.534  66.857  1.00  0.00    -0.302 A  
HETATM   35  C   UNL     1      -9.838  17.960  68.177  1.00  0.00    -0.334 A  
HETATM   36  C   UNL     1     -10.524  17.204  69.122  1.00  0.00    -0.296 A  
HETATM   37  C   UNL     1     -11.153  16.010  68.754  1.00  0.00    -0.338 A  
HETATM   38 CL   UNL     1     -11.974  15.148  70.005  1.00  0.00    -0.345 Cl 
ENDBRANCH  31  32
ENDBRANCH  26  31
ENDBRANCH  25  26
ENDBRANCH  24  25
ENDBRANCH  21  24
ENDBRANCH  18  20
ENDBRANCH  15  16
ENDBRANCH  14  15
ENDBRANCH   3  14
ENDBRANCH   2   3
TORSDOF 15
ENDMDL
MODEL      186
REMARK 921   NORMALIZED FREE ENERGY PREDICTED BY IDOCK:   -4.41 KCAL/MOL
REMARK 922        TOTAL FREE ENERGY PREDICTED BY IDOCK:  -10.94 KCAL/MOL
REMARK 923 INTER-LIGAND FREE ENERGY PREDICTED BY IDOCK:   -8.36 KCAL/MOL
REMARK 924 INTRA-LIGAND FREE ENERGY PREDICTED BY IDOCK:   -2.58 KCAL/MOL
REMARK 927      BINDING AFFINITY PREDICTED BY RF-SCORE:    0.00 PKD
ROOT
HETATM    1  C   UNL     1      -8.397   4.931  68.140  1.00  0.00    -0.099 C  
HETATM    2  C   UNL     1      -8.320   5.331  66.674  1.00  0.00    -0.108 C  
ENDROOT
BRANCH   2   3
HETATM    3  N   UNL     1      -7.715   6.740  66.389  1.00  0.00    -0.096 N  
BRANCH   3   4
HETATM    4  C   UNL     1      -6.468   6.608  65.467  1.00  0.00    -0.049 C  
HETATM    5  C   UNL     1      -6.451   5.410  64.553  1.00  0.00    -0.038 C  
ENDBRANCH   3   4
BRANCH   3   6
HETATM    6  C   UNL     1      -7.174   7.368  67.695  1.00  0.00    -0.094 C  
BRANCH   6   7
HETATM    7  C   UNL     1      -7.204   8.870  67.961  1.00  0.00    -0.083 A  
HETATM    8  C   UNL     1      -8.454  10.794  68.842  1.00  0.00    -0.149 A  
HETATM    9  C   UNL     1      -6.223   9.789  67.550  1.00  0.00    -0.059 A  
HETATM   10  C   UNL     1      -8.301   9.413  68.661  1.00  0.00    -0.117 A  
HETATM   11  C   UNL     1      -6.339  11.161  67.782  1.00  0.00    -0.055 A  
HETATM   12 CL   UNL     1      -9.537   8.384  69.301  1.00  0.00    -0.162 Cl 
HETATM   13  C   UNL     1      -7.466  11.668  68.404  1.00  0.00    -0.107 A  
ENDBRANCH   6   7
ENDBRANCH   3   6
BRANCH   3  14
HETATM   14  C   UNL     1      -8.887   7.591  65.751  1.00  0.00    -0.090 C  
BRANCH  14  15
HETATM   15  C   UNL     1      -8.475   8.724  64.748  1.00  0.00    -0.160 C  
BRANCH  15  16
HETATM   16  N   UNL     1      -9.019  10.057  64.962  1.00  0.00    -0.182 N  
HETATM   17  H   UNL     1      -8.953  10.496  65.881  1.00  0.00     0.000 HD 
HETATM   18  C   UNL     1      -9.628  10.730  63.907  1.00  0.00    -0.293 C  
HETATM   19  O   UNL     1      -9.574  10.357  62.747  1.00  0.00    -0.315 OA 
BRANCH  18  20
HETATM   20  C   UNL     1     -10.293  12.075  64.292  1.00  0.00    -0.322 C  
HETATM   21  N   UNL     1      -9.875  12.627  65.504  1.00  0.00    -0.396 N  
HETATM   22  O   UNL     1     -11.115  12.599  63.559  1.00  0.00    -0.448 OA 
HETATM   23  H   UNL     1      -9.435  12.047  66.219  1.00  0.00     0.000 HD 
BRANCH  21  24
HETATM   24  C   UNL     1     -10.082  14.053  65.724  1.00  0.00    -0.327 C  
BRANCH  24  25
HETATM   25  C   UNL     1      -9.185  14.691  66.820  1.00  0.00    -0.264 C  
BRANCH  25  26
HETATM   26  N   UNL     1      -9.956  15.438  67.935  1.00  0.00    -0.221 N  
BRANCH  26  27
HETATM   27  C   UNL     1      -9.258  15.226  69.311  1.00  0.00    -0.233 C  
HETATM   28  C   UNL     1      -7.741  15.107  69.259  1.00  0.00    -0.204 C  
ENDBRANCH  26  27
BRANCH  26  29
HETATM   29  C   UNL     1     -10.006  16.943  67.551  1.00  0.00    -0.268 C  
HETATM   30  C   UNL     1      -9.152  17.340  66.360  1.00  0.00    -0.281 C  
ENDBRANCH  26  29
BRANCH  26  31
HETATM   31  C   UNL     1     -11.419  14.871  68.060  1.00  0.00    -0.337 C  
BRANCH  31  32
HETATM   32  C   UNL     1     -11.699  13.764  69.062  1.00  0.00    -0.372 A  
HETATM   33  C   UNL     1     -11.550  12.410  68.694  1.00  0.00    -0.365 A  
HETATM   34  C   UNL     1     -11.927  11.373  69.553  1.00  0.00    -0.409 A  
HETATM   35  C   UNL     1     -12.480  11.663  70.793  1.00  0.00    -0.425 A  
HETATM   36  C   UNL     1     -12.620  12.989  71.190  1.00  0.00    -0.388 A  
HETATM   37  C   UNL     1     -12.227  14.029  70.342  1.00  0.00    -0.363 A  
HETATM   38 CL   UNL     1     -12.450  15.637  70.931  1.00  0.00    -0.478 Cl 
ENDBRANCH  31  32
ENDBRANCH  26  31
ENDBRANCH  25  26
ENDBRANCH  24  25
ENDBRANCH  21  24
ENDBRANCH  18  20
ENDBRANCH  15  16
ENDBRANCH  14  15
ENDBRANCH   3  14
ENDBRANCH   2   3
TORSDOF 15
ENDMDL
MODEL      187
REMARK 921   NORMALIZED FREE ENERGY PREDICTED BY IDOCK:   -4.39 KCAL/MOL
REMARK 922        TOTAL FREE ENERGY PREDICTED BY IDOCK:  -10.91 KCAL/MOL
REMARK 923 INTER-LIGAND FREE ENERGY PREDICTED BY IDOCK:   -9.32 KCAL/MOL
REMARK 924 INTRA-LIGAND FREE ENERGY PREDICTED BY IDOCK:   -1.59 KCAL/MOL
REMARK 927      BINDING AFFINITY PREDICTED BY RF-SCORE:    0.00 PKD
ROOT
HETATM    1  C   UNL     1     -12.345  13.960  65.480  1.00  0.00    -0.506 C  
HETATM    2  C   UNL     1     -11.980  14.236  66.931  1.00  0.00    -0.438 C  
ENDROOT
BRANCH   2   3
HETATM    3  N   UNL     1     -10.462  14.450  67.217  1.00  0.00    -0.268 N  
BRANCH   3   4
HETATM    4  C   UNL     1     -10.277  15.305  68.505  1.00  0.00    -0.224 C  
HETATM    5  C   UNL     1     -11.547  15.787  69.160  1.00  0.00    -0.399 C  
ENDBRANCH   3   4
BRANCH   3   6
HETATM    6  C   UNL     1      -9.815  15.290  66.091  1.00  0.00    -0.307 C  
BRANCH   6   7
HETATM    7  C   UNL     1      -9.643  16.803  66.188  1.00  0.00    -0.302 A  
HETATM    8  C   UNL     1      -8.196  18.688  66.812  1.00  0.00    -0.276 A  
HETATM    9  C   UNL     1     -10.642  17.754  65.919  1.00  0.00    -0.205 A  
HETATM   10  C   UNL     1      -8.394  17.319  66.591  1.00  0.00    -0.257 A  
HETATM   11  C   UNL     1     -10.433  19.125  66.079  1.00  0.00    -0.546 A  
HETATM   12 CL   UNL     1      -7.050  16.265  66.868  1.00  0.00    -0.257 Cl 
HETATM   13  C   UNL     1      -9.219  19.592  66.550  1.00  0.00    -0.449 A  
ENDBRANCH   6   7
ENDBRANCH   3   6
BRANCH   3  14
HETATM   14  C   UNL     1      -9.835  13.001  67.325  1.00  0.00    -0.227 C  
BRANCH  14  15
HETATM   15  C   UNL     1     -10.368  12.081  68.478  1.00  0.00    -0.217 C  
BRANCH  15  16
HETATM   16  N   UNL     1      -9.447  11.120  69.067  1.00  0.00    -0.379 N  
HETATM   17  H   UNL     1      -8.457  11.144  68.825  1.00  0.00     0.000 HD 
HETATM   18  C   UNL     1      -9.926  10.168  69.962  1.00  0.00    -0.161 C  
HETATM   19  O   UNL     1     -11.046  10.197  70.444  1.00  0.00    -0.284 OA 
BRANCH  18  20
HETATM   20  C   UNL     1      -8.883   9.113  70.409  1.00  0.00    -0.220 C  
HETATM   21  N   UNL     1      -8.616   8.104  69.483  1.00  0.00    -0.133 N  
HETATM   22  O   UNL     1      -8.340   9.192  71.498  1.00  0.00    -0.336 OA 
HETATM   23  H   UNL     1      -9.277   7.890  68.736  1.00  0.00     0.000 HD 
BRANCH  21  24
HETATM   24  C   UNL     1      -7.367   7.362  69.608  1.00  0.00    -0.091 C  
BRANCH  24  25
HETATM   25  C   UNL     1      -7.506   5.921  70.172  1.00  0.00    -0.082 C  
BRANCH  25  26
HETATM   26  N   UNL     1      -7.899   4.851  69.125  1.00  0.00    -0.071 N  
BRANCH  26  27
HETATM   27  C   UNL     1      -7.966   5.482  67.703  1.00  0.00    -0.101 C  
HETATM   28  C   UNL     1      -9.095   4.971  66.818  1.00  0.00    -0.118 C  
ENDBRANCH  26  27
BRANCH  26  29
HETATM   29  C   UNL     1      -6.841   3.714  69.191  1.00  0.00    -0.045 C  
HETATM   30  C   UNL     1      -7.397   2.319  69.416  1.00  0.00    -0.043 C  
ENDBRANCH  26  29
BRANCH  26  31
HETATM   31  C   UNL     1      -9.326   4.270  69.447  1.00  0.00    -0.166 C  
BRANCH  31  32
HETATM   32  C   UNL     1     -10.232   5.026  70.405  1.00  0.00    -0.324 A  
HETATM   33  C   UNL     1     -11.127   6.004  69.921  1.00  0.00    -0.469 A  
HETATM   34  C   UNL     1     -11.875   6.804  70.792  1.00  0.00    -0.446 A  
HETATM   35  C   UNL     1     -11.731   6.660  72.165  1.00  0.00    -0.342 A  
HETATM   36  C   UNL     1     -10.869   5.691  72.669  1.00  0.00    -0.301 A  
HETATM   37  C   UNL     1     -10.134   4.875  71.803  1.00  0.00    -0.202 A  
HETATM   38 CL   UNL     1      -9.091   3.709  72.533  1.00  0.00    -0.127 Cl 
ENDBRANCH  31  32
ENDBRANCH  26  31
ENDBRANCH  25  26
ENDBRANCH  24  25
ENDBRANCH  21  24
ENDBRANCH  18  20
ENDBRANCH  15  16
ENDBRANCH  14  15
ENDBRANCH   3  14
ENDBRANCH   2   3
TORSDOF 15
ENDMDL
MODEL      188
REMARK 921   NORMALIZED FREE ENERGY PREDICTED BY IDOCK:   -4.39 KCAL/MOL
REMARK 922        TOTAL FREE ENERGY PREDICTED BY IDOCK:  -10.91 KCAL/MOL
REMARK 923 INTER-LIGAND FREE ENERGY PREDICTED BY IDOCK:   -8.65 KCAL/MOL
REMARK 924 INTRA-LIGAND FREE ENERGY PREDICTED BY IDOCK:   -2.26 KCAL/MOL
REMARK 927      BINDING AFFINITY PREDICTED BY RF-SCORE:    0.00 PKD
ROOT
HETATM    1  C   UNL     1     -12.235  15.004  64.449  1.00  0.00    -0.353 C  
HETATM    2  C   UNL     1     -12.565  13.927  65.472  1.00  0.00    -0.526 C  
ENDROOT
BRANCH   2   3
HETATM    3  N   UNL     1     -11.558  13.786  66.655  1.00  0.00    -0.351 N  
BRANCH   3   4
HETATM    4  C   UNL     1     -11.418  15.146  67.399  1.00  0.00    -0.277 C  
HETATM    5  C   UNL     1     -10.011  15.658  67.573  1.00  0.00    -0.231 C  
ENDBRANCH   3   4
BRANCH   3   6
HETATM    6  C   UNL     1     -10.138  13.484  66.119  1.00  0.00    -0.304 C  
BRANCH   6   7
HETATM    7  C   UNL     1      -9.664  12.070  65.796  1.00  0.00    -0.254 A  
HETATM    8  C   UNL     1      -8.095  10.246  66.296  1.00  0.00    -0.129 A  
HETATM    9  C   UNL     1     -10.135  11.277  64.737  1.00  0.00    -0.338 A  
HETATM   10  C   UNL     1      -8.660  11.491  66.600  1.00  0.00    -0.176 A  
HETATM   11  C   UNL     1      -9.619  10.008  64.464  1.00  0.00    -0.346 A  
HETATM   12 CL   UNL     1      -8.053  12.324  67.990  1.00  0.00    -0.146 Cl 
HETATM   13  C   UNL     1      -8.581   9.503  65.227  1.00  0.00    -0.175 A  
ENDBRANCH   6   7
ENDBRANCH   3   6
BRANCH   3  14
HETATM   14  C   UNL     1     -12.120  12.621  67.565  1.00  0.00    -0.104 C  
BRANCH  14  15
HETATM   15  C   UNL     1     -11.536  12.509  69.015  1.00  0.00    -0.314 C  
BRANCH  15  16
HETATM   16  N   UNL     1     -11.675  11.238  69.712  1.00  0.00    -0.317 N  
HETATM   17  H   UNL     1     -11.193  10.408  69.366  1.00  0.00     0.000 HD 
HETATM   18  C   UNL     1     -12.469  11.162  70.853  1.00  0.00    -0.409 C  
HETATM   19  O   UNL     1     -12.915  12.138  71.432  1.00  0.00    -0.368 OA 
BRANCH  18  20
HETATM   20  C   UNL     1     -12.655   9.733  71.421  1.00  0.00    -0.386 C  
HETATM   21  N   UNL     1     -11.976   8.722  70.738  1.00  0.00    -0.455 N  
HETATM   22  O   UNL     1     -13.345   9.536  72.407  1.00  0.00    -0.446 OA 
HETATM   23  H   UNL     1     -11.667   8.858  69.775  1.00  0.00     0.000 HD 
BRANCH  21  24
HETATM   24  C   UNL     1     -11.719   7.467  71.434  1.00  0.00    -0.283 C  
BRANCH  24  25
HETATM   25  C   UNL     1     -10.465   7.463  72.351  1.00  0.00    -0.233 C  
BRANCH  25  26
HETATM   26  N   UNL     1      -9.637   6.155  72.312  1.00  0.00    -0.153 N  
BRANCH  26  27
HETATM   27  C   UNL     1      -8.830   5.986  73.632  1.00  0.00    -0.124 C  
HETATM   28  C   UNL     1      -7.867   4.807  73.659  1.00  0.00    -0.095 C  
ENDBRANCH  26  27
BRANCH  26  29
HETATM   29  C   UNL     1     -10.625   4.976  72.095  1.00  0.00    -0.193 C  
HETATM   30  C   UNL     1     -11.344   4.491  73.341  1.00  0.00    -0.376 C  
ENDBRANCH  26  29
BRANCH  26  31
HETATM   31  C   UNL     1      -8.598   6.204  71.131  1.00  0.00    -0.125 C  
BRANCH  31  32
HETATM   32  C   UNL     1      -7.726   7.437  70.963  1.00  0.00    -0.091 A  
HETATM   33  C   UNL     1      -6.622   7.654  71.815  1.00  0.00    -0.042 A  
HETATM   34  C   UNL     1      -5.885   8.842  71.768  1.00  0.00    -0.062 A  
HETATM   35  C   UNL     1      -6.246   9.849  70.882  1.00  0.00    -0.070 A  
HETATM   36  C   UNL     1      -7.318   9.654  70.018  1.00  0.00    -0.130 A  
HETATM   37  C   UNL     1      -8.046   8.460  70.048  1.00  0.00    -0.115 A  
HETATM   38 CL   UNL     1      -9.360   8.324  68.936  1.00  0.00    -0.147 Cl 
ENDBRANCH  31  32
ENDBRANCH  26  31
ENDBRANCH  25  26
ENDBRANCH  24  25
ENDBRANCH  21  24
ENDBRANCH  18  20
ENDBRANCH  15  16
ENDBRANCH  14  15
ENDBRANCH   3  14
ENDBRANCH   2   3
TORSDOF 15
ENDMDL
MODEL      189
REMARK 921   NORMALIZED FREE ENERGY PREDICTED BY IDOCK:   -4.39 KCAL/MOL
REMARK 922        TOTAL FREE ENERGY PREDICTED BY IDOCK:  -10.91 KCAL/MOL
REMARK 923 INTER-LIGAND FREE ENERGY PREDICTED BY IDOCK:   -9.98 KCAL/MOL
REMARK 924 INTRA-LIGAND FREE ENERGY PREDICTED BY IDOCK:   -0.92 KCAL/MOL
REMARK 927      BINDING AFFINITY PREDICTED BY RF-SCORE:    0.00 PKD
ROOT
HETATM    1  C   UNL     1      -9.814   9.183  71.322  1.00  0.00    -0.363 C  
HETATM    2  C   UNL     1     -10.976   8.646  70.498  1.00  0.00    -0.238 C  
ENDROOT
BRANCH   2   3
HETATM    3  N   UNL     1     -11.254   7.118  70.639  1.00  0.00    -0.270 N  
BRANCH   3   4
HETATM    4  C   UNL     1     -12.548   6.887  71.472  1.00  0.00    -0.367 C  
HETATM    5  C   UNL     1     -13.432   8.093  71.659  1.00  0.00    -0.363 C  
ENDBRANCH   3   4
BRANCH   3   6
HETATM    6  C   UNL     1     -10.132   6.440  71.460  1.00  0.00    -0.192 C  
BRANCH   6   7
HETATM    7  C   UNL     1     -10.281   5.046  72.064  1.00  0.00    -0.262 A  
HETATM    8  C   UNL     1      -9.933   2.628  71.803  1.00  0.00    -0.188 A  
HETATM    9  C   UNL     1     -10.937   4.747  73.269  1.00  0.00    -0.390 A  
HETATM   10  C   UNL     1      -9.737   3.945  71.369  1.00  0.00    -0.176 A  
HETATM   11  C   UNL     1     -11.082   3.441  73.738  1.00  0.00    -0.286 A  
HETATM   12 CL   UNL     1      -8.827   4.180  69.916  1.00  0.00    -0.122 Cl 
HETATM   13  C   UNL     1     -10.604   2.378  72.993  1.00  0.00    -0.247 A  
ENDBRANCH   6   7
ENDBRANCH   3   6
BRANCH   3  14
HETATM   14  C   UNL     1     -11.343   6.557  69.162  1.00  0.00    -0.261 C  
BRANCH  14  15
HETATM   15  C   UNL     1     -10.417   7.230  68.091  1.00  0.00    -0.198 C  
BRANCH  15  16
HETATM   16  N   UNL     1     -10.893   8.444  67.442  1.00  0.00    -0.485 N  
HETATM   17  H   UNL     1     -11.858   8.507  67.117  1.00  0.00     0.000 HD 
HETATM   18  C   UNL     1     -10.023   9.516  67.267  1.00  0.00    -0.189 C  
HETATM   19  O   UNL     1      -8.925   9.589  67.793  1.00  0.00    -0.123 OA 
BRANCH  18  20
HETATM   20  C   UNL     1     -10.600  10.692  66.438  1.00  0.00    -0.175 C  
HETATM   21  N   UNL     1     -11.247  11.685  67.175  1.00  0.00    -0.297 N  
HETATM   22  O   UNL     1     -10.471  10.725  65.226  1.00  0.00    -0.270 OA 
HETATM   23  H   UNL     1     -11.599  11.494  68.114  1.00  0.00     0.000 HD 
BRANCH  21  24
HETATM   24  C   UNL     1     -11.408  13.002  66.571  1.00  0.00    -0.320 C  
BRANCH  24  25
HETATM   25  C   UNL     1     -11.256  14.201  67.546  1.00  0.00    -0.306 C  
BRANCH  25  26
HETATM   26  N   UNL     1      -9.896  14.936  67.463  1.00  0.00    -0.217 N  
BRANCH  26  27
HETATM   27  C   UNL     1      -9.614  15.704  68.789  1.00  0.00    -0.215 C  
HETATM   28  C   UNL     1     -10.718  15.622  69.835  1.00  0.00    -0.328 C  
ENDBRANCH  26  27
BRANCH  26  29
HETATM   29  C   UNL     1      -8.800  13.873  67.179  1.00  0.00    -0.226 C  
HETATM   30  C   UNL     1      -7.969  13.456  68.380  1.00  0.00    -0.139 C  
ENDBRANCH  26  29
BRANCH  26  31
HETATM   31  C   UNL     1      -9.922  15.999  66.303  1.00  0.00    -0.310 C  
BRANCH  31  32
HETATM   32  C   UNL     1      -9.666  17.460  66.633  1.00  0.00    -0.296 A  
HETATM   33  C   UNL     1     -10.737  18.376  66.706  1.00  0.00    -0.274 A  
HETATM   34  C   UNL     1     -10.515  19.747  66.878  1.00  0.00    -0.596 A  
HETATM   35  C   UNL     1      -9.219  20.237  66.961  1.00  0.00    -0.503 A  
HETATM   36  C   UNL     1      -8.145  19.354  66.912  1.00  0.00    -0.298 A  
HETATM   37  C   UNL     1      -8.362  17.981  66.760  1.00  0.00    -0.253 A  
HETATM   38 CL   UNL     1      -6.959  16.975  66.706  1.00  0.00    -0.244 Cl 
ENDBRANCH  31  32
ENDBRANCH  26  31
ENDBRANCH  25  26
ENDBRANCH  24  25
ENDBRANCH  21  24
ENDBRANCH  18  20
ENDBRANCH  15  16
ENDBRANCH  14  15
ENDBRANCH   3  14
ENDBRANCH   2   3
TORSDOF 15
ENDMDL
MODEL      190
REMARK 921   NORMALIZED FREE ENERGY PREDICTED BY IDOCK:   -4.39 KCAL/MOL
REMARK 922        TOTAL FREE ENERGY PREDICTED BY IDOCK:  -10.90 KCAL/MOL
REMARK 923 INTER-LIGAND FREE ENERGY PREDICTED BY IDOCK:   -9.21 KCAL/MOL
REMARK 924 INTRA-LIGAND FREE ENERGY PREDICTED BY IDOCK:   -1.69 KCAL/MOL
REMARK 927      BINDING AFFINITY PREDICTED BY RF-SCORE:    0.00 PKD
ROOT
HETATM    1  C   UNL     1     -11.166  14.545  64.856  1.00  0.00    -0.395 C  
HETATM    2  C   UNL     1     -11.458  14.301  66.329  1.00  0.00    -0.357 C  
ENDROOT
BRANCH   2   3
HETATM    3  N   UNL     1     -10.532  15.053  67.335  1.00  0.00    -0.254 N  
BRANCH   3   4
HETATM    4  C   UNL     1     -11.392  15.880  68.334  1.00  0.00    -0.361 C  
HETATM    5  C   UNL     1     -11.182  15.568  69.794  1.00  0.00    -0.307 C  
ENDBRANCH   3   4
BRANCH   3   6
HETATM    6  C   UNL     1      -9.673  16.103  66.593  1.00  0.00    -0.244 C  
BRANCH   6   7
HETATM    7  C   UNL     1      -9.752  17.596  66.898  1.00  0.00    -0.292 A  
HETATM    8  C   UNL     1      -9.039  19.458  68.334  1.00  0.00    -0.410 A  
HETATM    9  C   UNL     1     -10.592  18.516  66.248  1.00  0.00    -0.370 A  
HETATM   10  C   UNL     1      -8.938  18.124  67.922  1.00  0.00    -0.269 A  
HETATM   11  C   UNL     1     -10.654  19.862  66.613  1.00  0.00    -0.540 A  
HETATM   12 CL   UNL     1      -7.793  17.120  68.744  1.00  0.00    -0.264 Cl 
HETATM   13  C   UNL     1      -9.897  20.329  67.673  1.00  0.00    -0.563 A  
ENDBRANCH   6   7
ENDBRANCH   3   6
BRANCH   3  14
HETATM   14  C   UNL     1      -9.653  13.936  68.030  1.00  0.00    -0.219 C  
BRANCH  14  15
HETATM   15  C   UNL     1     -10.025  12.445  67.720  1.00  0.00    -0.205 C  
BRANCH  15  16
HETATM   16  N   UNL     1     -10.031  11.498  68.825  1.00  0.00    -0.320 N  
HETATM   17  H   UNL     1      -9.196  11.370  69.396  1.00  0.00     0.000 HD 
HETATM   18  C   UNL     1     -11.184  10.768  69.100  1.00  0.00    -0.262 C  
HETATM   19  O   UNL     1     -12.268  11.002  68.593  1.00  0.00    -0.571 OA 
BRANCH  18  20
HETATM   20  C   UNL     1     -11.025   9.693  70.203  1.00  0.00    -0.275 C  
HETATM   21  N   UNL     1     -11.681   8.484  69.962  1.00  0.00    -0.407 N  
HETATM   22  O   UNL     1     -10.357   9.912  71.199  1.00  0.00    -0.154 OA 
HETATM   23  H   UNL     1     -12.454   8.431  69.299  1.00  0.00     0.000 HD 
BRANCH  21  24
HETATM   24  C   UNL     1     -11.233   7.297  70.682  1.00  0.00    -0.274 C  
BRANCH  24  25
HETATM   25  C   UNL     1     -10.350   6.319  69.861  1.00  0.00    -0.196 C  
BRANCH  25  26
HETATM   26  N   UNL     1      -9.410   5.427  70.708  1.00  0.00    -0.155 N  
BRANCH  26  27
HETATM   27  C   UNL     1      -9.649   5.678  72.226  1.00  0.00    -0.151 C  
HETATM   28  C   UNL     1     -10.379   4.563  72.962  1.00  0.00    -0.237 C  
ENDBRANCH  26  27
BRANCH  26  29
HETATM   29  C   UNL     1      -9.691   3.948  70.327  1.00  0.00    -0.175 C  
HETATM   30  C   UNL     1      -9.219   3.530  68.945  1.00  0.00    -0.227 C  
ENDBRANCH  26  29
BRANCH  26  31
HETATM   31  C   UNL     1      -7.906   5.780  70.406  1.00  0.00    -0.104 C  
BRANCH  31  32
HETATM   32  C   UNL     1      -7.548   7.196  69.989  1.00  0.00    -0.091 A  
HETATM   33  C   UNL     1      -7.251   8.175  70.961  1.00  0.00    -0.057 A  
HETATM   34  C   UNL     1      -7.049   9.514  70.611  1.00  0.00    -0.128 A  
HETATM   35  C   UNL     1      -7.157   9.911  69.285  1.00  0.00    -0.069 A  
HETATM   36  C   UNL     1      -7.430   8.963  68.303  1.00  0.00    -0.087 A  
HETATM   37  C   UNL     1      -7.615   7.619  68.646  1.00  0.00    -0.109 A  
HETATM   38 CL   UNL     1      -7.953   6.528  67.352  1.00  0.00    -0.112 Cl 
ENDBRANCH  31  32
ENDBRANCH  26  31
ENDBRANCH  25  26
ENDBRANCH  24  25
ENDBRANCH  21  24
ENDBRANCH  18  20
ENDBRANCH  15  16
ENDBRANCH  14  15
ENDBRANCH   3  14
ENDBRANCH   2   3
TORSDOF 15
ENDMDL
MODEL      191
REMARK 921   NORMALIZED FREE ENERGY PREDICTED BY IDOCK:   -4.39 KCAL/MOL
REMARK 922        TOTAL FREE ENERGY PREDICTED BY IDOCK:  -10.90 KCAL/MOL
REMARK 923 INTER-LIGAND FREE ENERGY PREDICTED BY IDOCK:   -9.25 KCAL/MOL
REMARK 924 INTRA-LIGAND FREE ENERGY PREDICTED BY IDOCK:   -1.65 KCAL/MOL
REMARK 927      BINDING AFFINITY PREDICTED BY RF-SCORE:    0.00 PKD
ROOT
HETATM    1  C   UNL     1     -11.016  19.732  66.940  1.00  0.00    -0.323 C  
HETATM    2  C   UNL     1     -10.318  18.550  66.284  1.00  0.00    -0.427 C  
ENDROOT
BRANCH   2   3
HETATM    3  N   UNL     1      -9.837  17.426  67.254  1.00  0.00    -0.270 N  
BRANCH   3   4
HETATM    4  C   UNL     1     -10.472  17.628  68.660  1.00  0.00    -0.317 C  
HETATM    5  C   UNL     1     -11.024  16.388  69.315  1.00  0.00    -0.322 C  
ENDBRANCH   3   4
BRANCH   3   6
HETATM    6  C   UNL     1      -8.312  17.537  67.491  1.00  0.00    -0.215 C  
BRANCH   6   7
HETATM    7  C   UNL     1      -7.451  18.609  66.829  1.00  0.00    -0.240 A  
HETATM    8  C   UNL     1      -6.463  20.854  66.974  1.00  0.00    -0.375 A  
HETATM    9  C   UNL     1      -6.929  18.543  65.527  1.00  0.00    -0.187 A  
HETATM   10  C   UNL     1      -7.150  19.780  67.555  1.00  0.00    -0.233 A  
HETATM   11  C   UNL     1      -6.192  19.586  64.963  1.00  0.00    -0.312 A  
HETATM   12 CL   UNL     1      -7.655  19.954  69.201  1.00  0.00    -0.226 Cl 
HETATM   13  C   UNL     1      -5.980  20.752  65.675  1.00  0.00    -0.269 A  
ENDBRANCH   6   7
ENDBRANCH   3   6
BRANCH   3  14
HETATM   14  C   UNL     1     -10.242  16.060  66.566  1.00  0.00    -0.293 C  
BRANCH  14  15
HETATM   15  C   UNL     1      -9.089  15.033  66.294  1.00  0.00    -0.253 C  
BRANCH  15  16
HETATM   16  N   UNL     1      -9.188  13.716  66.906  1.00  0.00    -0.245 N  
HETATM   17  H   UNL     1     -10.066  13.199  66.871  1.00  0.00     0.000 HD 
HETATM   18  C   UNL     1      -8.076  13.166  67.538  1.00  0.00    -0.181 C  
HETATM   19  O   UNL     1      -6.952  13.631  67.454  1.00  0.00    -0.168 OA 
BRANCH  18  20
HETATM   20  C   UNL     1      -8.343  11.829  68.273  1.00  0.00    -0.159 C  
HETATM   21  N   UNL     1      -9.638  11.322  68.147  1.00  0.00    -0.180 N  
HETATM   22  O   UNL     1      -7.459  11.273  68.903  1.00  0.00    -0.112 OA 
HETATM   23  H   UNL     1     -10.414  11.929  67.885  1.00  0.00     0.000 HD 
BRANCH  21  24
HETATM   24  C   UNL     1      -9.854   9.902  68.399  1.00  0.00    -0.151 C  
BRANCH  24  25
HETATM   25  C   UNL     1     -11.102   9.564  69.259  1.00  0.00    -0.082 C  
BRANCH  25  26
HETATM   26  N   UNL     1     -10.838   8.587  70.430  1.00  0.00    -0.232 N  
BRANCH  26  27
HETATM   27  C   UNL     1      -9.308   8.413  70.655  1.00  0.00    -0.160 C  
HETATM   28  C   UNL     1      -8.828   8.656  72.080  1.00  0.00    -0.264 C  
ENDBRANCH  26  27
BRANCH  26  29
HETATM   29  C   UNL     1     -11.535   9.164  71.693  1.00  0.00    -0.381 C  
HETATM   30  C   UNL     1     -12.818   9.935  71.436  1.00  0.00    -0.505 C  
ENDBRANCH  26  29
BRANCH  26  31
HETATM   31  C   UNL     1     -11.428   7.166  70.098  1.00  0.00    -0.205 C  
BRANCH  31  32
HETATM   32  C   UNL     1     -11.099   5.998  71.012  1.00  0.00    -0.348 A  
HETATM   33  C   UNL     1     -11.672   5.912  72.298  1.00  0.00    -0.309 A  
HETATM   34  C   UNL     1     -11.285   4.920  73.206  1.00  0.00    -0.423 A  
HETATM   35  C   UNL     1     -10.303   4.003  72.856  1.00  0.00    -0.238 A  
HETATM   36  C   UNL     1      -9.735   4.052  71.587  1.00  0.00    -0.242 A  
HETATM   37  C   UNL     1     -10.133   5.031  70.670  1.00  0.00    -0.243 A  
HETATM   38 CL   UNL     1      -9.360   5.005  69.125  1.00  0.00    -0.158 Cl 
ENDBRANCH  31  32
ENDBRANCH  26  31
ENDBRANCH  25  26
ENDBRANCH  24  25
ENDBRANCH  21  24
ENDBRANCH  18  20
ENDBRANCH  15  16
ENDBRANCH  14  15
ENDBRANCH   3  14
ENDBRANCH   2   3
TORSDOF 15
ENDMDL
MODEL      192
REMARK 921   NORMALIZED FREE ENERGY PREDICTED BY IDOCK:   -4.39 KCAL/MOL
REMARK 922        TOTAL FREE ENERGY PREDICTED BY IDOCK:  -10.90 KCAL/MOL
REMARK 923 INTER-LIGAND FREE ENERGY PREDICTED BY IDOCK:   -8.80 KCAL/MOL
REMARK 924 INTRA-LIGAND FREE ENERGY PREDICTED BY IDOCK:   -2.10 KCAL/MOL
REMARK 927      BINDING AFFINITY PREDICTED BY RF-SCORE:    0.00 PKD
ROOT
HETATM    1  C   UNL     1      -9.440   6.110  74.541  1.00  0.00    -0.219 C  
HETATM    2  C   UNL     1      -9.397   6.791  73.181  1.00  0.00    -0.133 C  
ENDROOT
BRANCH   2   3
HETATM    3  N   UNL     1     -10.128   6.040  72.026  1.00  0.00    -0.184 N  
BRANCH   3   4
HETATM    4  C   UNL     1     -10.394   4.563  72.435  1.00  0.00    -0.191 C  
HETATM    5  C   UNL     1      -9.647   3.518  71.646  1.00  0.00    -0.228 C  
ENDBRANCH   3   4
BRANCH   3   6
HETATM    6  C   UNL     1      -9.213   5.945  70.782  1.00  0.00    -0.153 C  
BRANCH   6   7
HETATM    7  C   UNL     1      -9.642   6.439  69.404  1.00  0.00    -0.152 A  
HETATM    8  C   UNL     1      -9.760   8.314  67.820  1.00  0.00    -0.194 A  
HETATM    9  C   UNL     1     -10.372   5.694  68.463  1.00  0.00    -0.265 A  
HETATM   10  C   UNL     1      -9.304   7.754  69.020  1.00  0.00    -0.150 A  
HETATM   11  C   UNL     1     -10.778   6.227  67.239  1.00  0.00    -0.424 A  
HETATM   12 CL   UNL     1      -8.330   8.751  70.046  1.00  0.00    -0.120 Cl 
HETATM   13  C   UNL     1     -10.496   7.545  66.926  1.00  0.00    -0.385 A  
ENDBRANCH   6   7
ENDBRANCH   3   6
BRANCH   3  14
HETATM   14  C   UNL     1     -11.447   6.866  71.741  1.00  0.00    -0.275 C  
BRANCH  14  15
HETATM   15  C   UNL     1     -11.532   8.304  72.361  1.00  0.00    -0.394 C  
BRANCH  15  16
HETATM   16  N   UNL     1     -11.343   9.442  71.474  1.00  0.00    -0.379 N  
HETATM   17  H   UNL     1     -10.406   9.701  71.163  1.00  0.00     0.000 HD 
HETATM   18  C   UNL     1     -12.448  10.175  71.050  1.00  0.00    -0.375 C  
HETATM   19  O   UNL     1     -13.601   9.817  71.219  1.00  0.00    -0.344 OA 
BRANCH  18  20
HETATM   20  C   UNL     1     -12.110  11.445  70.229  1.00  0.00    -0.374 C  
HETATM   21  N   UNL     1     -11.695  11.217  68.916  1.00  0.00    -0.316 N  
HETATM   22  O   UNL     1     -12.220  12.556  70.720  1.00  0.00    -0.369 OA 
HETATM   23  H   UNL     1     -11.329  10.308  68.633  1.00  0.00     0.000 HD 
BRANCH  21  24
HETATM   24  C   UNL     1     -11.796  12.311  67.958  1.00  0.00    -0.305 C  
BRANCH  24  25
HETATM   25  C   UNL     1     -10.448  12.795  67.359  1.00  0.00    -0.228 C  
BRANCH  25  26
HETATM   26  N   UNL     1     -10.250  14.331  67.363  1.00  0.00    -0.247 N  
BRANCH  26  27
HETATM   27  C   UNL     1      -9.835  14.827  65.947  1.00  0.00    -0.334 C  
HETATM   28  C   UNL     1     -10.975  15.344  65.080  1.00  0.00    -0.450 C  
ENDBRANCH  26  27
BRANCH  26  29
HETATM   29  C   UNL     1     -11.585  14.979  67.823  1.00  0.00    -0.319 C  
HETATM   30  C   UNL     1     -11.480  15.913  69.015  1.00  0.00    -0.380 C  
ENDBRANCH  26  29
BRANCH  26  31
HETATM   31  C   UNL     1      -9.095  14.729  68.356  1.00  0.00    -0.188 C  
BRANCH  31  32
HETATM   32  C   UNL     1      -7.753  14.024  68.248  1.00  0.00    -0.141 A  
HETATM   33  C   UNL     1      -7.592  12.713  68.744  1.00  0.00    -0.022 A  
HETATM   34  C   UNL     1      -6.338  12.093  68.777  1.00  0.00    -0.076 A  
HETATM   35  C   UNL     1      -5.213  12.776  68.333  1.00  0.00    -0.065 A  
HETATM   36  C   UNL     1      -5.346  14.062  67.821  1.00  0.00    -0.016 A  
HETATM   37  C   UNL     1      -6.601  14.679  67.769  1.00  0.00    -0.171 A  
HETATM   38 CL   UNL     1      -6.653  16.278  67.120  1.00  0.00    -0.227 Cl 
ENDBRANCH  31  32
ENDBRANCH  26  31
ENDBRANCH  25  26
ENDBRANCH  24  25
ENDBRANCH  21  24
ENDBRANCH  18  20
ENDBRANCH  15  16
ENDBRANCH  14  15
ENDBRANCH   3  14
ENDBRANCH   2   3
TORSDOF 15
ENDMDL
MODEL      193
REMARK 921   NORMALIZED FREE ENERGY PREDICTED BY IDOCK:   -4.39 KCAL/MOL
REMARK 922        TOTAL FREE ENERGY PREDICTED BY IDOCK:  -10.89 KCAL/MOL
REMARK 923 INTER-LIGAND FREE ENERGY PREDICTED BY IDOCK:   -9.58 KCAL/MOL
REMARK 924 INTRA-LIGAND FREE ENERGY PREDICTED BY IDOCK:   -1.31 KCAL/MOL
REMARK 927      BINDING AFFINITY PREDICTED BY RF-SCORE:    0.00 PKD
ROOT
HETATM    1  C   UNL     1      -8.255   8.043  72.311  1.00  0.00    -0.186 C  
HETATM    2  C   UNL     1      -8.796   6.681  71.903  1.00  0.00    -0.132 C  
ENDROOT
BRANCH   2   3
HETATM    3  N   UNL     1     -10.170   6.285  72.525  1.00  0.00    -0.182 N  
BRANCH   3   4
HETATM    4  C   UNL     1      -9.973   5.150  73.573  1.00  0.00    -0.166 C  
HETATM    5  C   UNL     1     -11.073   4.121  73.639  1.00  0.00    -0.337 C  
ENDBRANCH   3   4
BRANCH   3   6
HETATM    6  C   UNL     1     -11.091   5.668  71.447  1.00  0.00    -0.151 C  
BRANCH   6   7
HETATM    7  C   UNL     1     -10.682   5.552  69.981  1.00  0.00    -0.356 A  
HETATM    8  C   UNL     1      -9.402   4.327  68.278  1.00  0.00    -0.207 A  
HETATM    9  C   UNL     1     -10.996   6.479  68.973  1.00  0.00    -0.378 A  
HETATM   10  C   UNL     1      -9.911   4.442  69.578  1.00  0.00    -0.188 A  
HETATM   11  C   UNL     1     -10.543   6.339  67.660  1.00  0.00    -0.339 A  
HETATM   12 CL   UNL     1      -9.527   3.180  70.699  1.00  0.00    -0.230 Cl 
HETATM   13  C   UNL     1      -9.725   5.278  67.317  1.00  0.00    -0.163 A  
ENDBRANCH   6   7
ENDBRANCH   3   6
BRANCH   3  14
HETATM   14  C   UNL     1     -10.766   7.616  73.138  1.00  0.00    -0.387 C  
BRANCH  14  15
HETATM   15  C   UNL     1     -11.923   8.309  72.338  1.00  0.00    -0.384 C  
BRANCH  15  16
HETATM   16  N   UNL     1     -11.560   9.203  71.249  1.00  0.00    -0.304 N  
HETATM   17  H   UNL     1     -10.872   8.912  70.554  1.00  0.00     0.000 HD 
HETATM   18  C   UNL     1     -12.156  10.458  71.160  1.00  0.00    -0.386 C  
HETATM   19  O   UNL     1     -13.116  10.799  71.831  1.00  0.00    -0.481 OA 
BRANCH  18  20
HETATM   20  C   UNL     1     -11.586  11.371  70.046  1.00  0.00    -0.299 C  
HETATM   21  N   UNL     1     -12.241  12.592  69.877  1.00  0.00    -0.221 N  
HETATM   22  O   UNL     1     -10.621  11.025  69.385  1.00  0.00    -0.223 OA 
HETATM   23  H   UNL     1     -13.195  12.726  70.215  1.00  0.00     0.000 HD 
BRANCH  21  24
HETATM   24  C   UNL     1     -11.530  13.673  69.205  1.00  0.00    -0.291 C  
BRANCH  24  25
HETATM   25  C   UNL     1     -11.681  13.706  67.660  1.00  0.00    -0.363 C  
BRANCH  25  26
HETATM   26  N   UNL     1     -10.603  14.534  66.920  1.00  0.00    -0.276 N  
BRANCH  26  27
HETATM   27  C   UNL     1      -9.428  13.617  66.471  1.00  0.00    -0.259 C  
HETATM   28  C   UNL     1      -9.763  12.135  66.370  1.00  0.00    -0.243 C  
ENDBRANCH  26  27
BRANCH  26  29
HETATM   29  C   UNL     1     -11.285  15.219  65.704  1.00  0.00    -0.256 C  
HETATM   30  C   UNL     1     -11.931  14.278  64.703  1.00  0.00    -0.468 C  
ENDBRANCH  26  29
BRANCH  26  31
HETATM   31  C   UNL     1     -10.002  15.628  67.880  1.00  0.00    -0.223 C  
BRANCH  31  32
HETATM   32  C   UNL     1      -8.684  16.289  67.514  1.00  0.00    -0.192 A  
HETATM   33  C   UNL     1      -8.620  17.218  66.453  1.00  0.00    -0.294 A  
HETATM   34  C   UNL     1      -7.399  17.739  66.012  1.00  0.00    -0.307 A  
HETATM   35  C   UNL     1      -6.213  17.331  66.607  1.00  0.00    -0.248 A  
HETATM   36  C   UNL     1      -6.249  16.431  67.667  1.00  0.00    -0.165 A  
HETATM   37  C   UNL     1      -7.469  15.921  68.124  1.00  0.00    -0.127 A  
HETATM   38 CL   UNL     1      -7.399  14.807  69.442  1.00  0.00    -0.169 Cl 
ENDBRANCH  31  32
ENDBRANCH  26  31
ENDBRANCH  25  26
ENDBRANCH  24  25
ENDBRANCH  21  24
ENDBRANCH  18  20
ENDBRANCH  15  16
ENDBRANCH  14  15
ENDBRANCH   3  14
ENDBRANCH   2   3
TORSDOF 15
ENDMDL
MODEL      194
REMARK 921   NORMALIZED FREE ENERGY PREDICTED BY IDOCK:   -4.37 KCAL/MOL
REMARK 922        TOTAL FREE ENERGY PREDICTED BY IDOCK:  -10.87 KCAL/MOL
REMARK 923 INTER-LIGAND FREE ENERGY PREDICTED BY IDOCK:   -9.39 KCAL/MOL
REMARK 924 INTRA-LIGAND FREE ENERGY PREDICTED BY IDOCK:   -1.48 KCAL/MOL
REMARK 927      BINDING AFFINITY PREDICTED BY RF-SCORE:    0.00 PKD
ROOT
HETATM    1  C   UNL     1     -10.467  20.098  68.327  1.00  0.00    -0.357 C  
HETATM    2  C   UNL     1     -10.143  19.357  67.039  1.00  0.00    -0.387 C  
ENDROOT
BRANCH   2   3
HETATM    3  N   UNL     1      -9.645  17.888  67.211  1.00  0.00    -0.267 N  
BRANCH   3   4
HETATM    4  C   UNL     1     -10.044  17.352  68.616  1.00  0.00    -0.355 C  
HETATM    5  C   UNL     1      -9.227  16.195  69.134  1.00  0.00    -0.246 C  
ENDBRANCH   3   4
BRANCH   3   6
HETATM    6  C   UNL     1      -8.100  17.838  67.195  1.00  0.00    -0.214 C  
BRANCH   6   7
HETATM    7  C   UNL     1      -7.234  18.934  67.812  1.00  0.00    -0.251 A  
HETATM    8  C   UNL     1      -5.767  20.870  67.440  1.00  0.00    -0.301 A  
HETATM    9  C   UNL     1      -6.935  19.062  69.178  1.00  0.00    -0.346 A  
HETATM   10  C   UNL     1      -6.662  19.904  66.962  1.00  0.00    -0.208 A  
HETATM   11  C   UNL     1      -6.091  20.060  69.669  1.00  0.00    -0.377 A  
HETATM   12 CL   UNL     1      -7.020  19.917  65.269  1.00  0.00    -0.314 Cl 
HETATM   13  C   UNL     1      -5.485  20.948  68.799  1.00  0.00    -0.391 A  
ENDBRANCH   6   7
ENDBRANCH   3   6
BRANCH   3  14
HETATM   14  C   UNL     1     -10.287  17.072  66.016  1.00  0.00    -0.315 C  
BRANCH  14  15
HETATM   15  C   UNL     1      -9.562  15.748  65.592  1.00  0.00    -0.264 C  
BRANCH  15  16
HETATM   16  N   UNL     1      -9.955  14.512  66.252  1.00  0.00    -0.291 N  
HETATM   17  H   UNL     1      -9.618  14.303  67.192  1.00  0.00     0.000 HD 
HETATM   18  C   UNL     1     -10.794  13.617  65.594  1.00  0.00    -0.279 C  
HETATM   19  O   UNL     1     -11.386  13.881  64.561  1.00  0.00    -0.367 OA 
BRANCH  18  20
HETATM   20  C   UNL     1     -11.024  12.277  66.336  1.00  0.00    -0.287 C  
HETATM   21  N   UNL     1      -9.877  11.520  66.578  1.00  0.00    -0.198 N  
HETATM   22  O   UNL     1     -12.143  11.938  66.683  1.00  0.00    -0.587 OA 
HETATM   23  H   UNL     1      -9.028  11.667  66.032  1.00  0.00     0.000 HD 
BRANCH  21  24
HETATM   24  C   UNL     1      -9.921  10.513  67.632  1.00  0.00    -0.173 C  
BRANCH  24  25
HETATM   25  C   UNL     1      -8.577  10.269  68.371  1.00  0.00    -0.125 C  
BRANCH  25  26
HETATM   26  N   UNL     1      -8.489   8.923  69.130  1.00  0.00    -0.130 N  
BRANCH  26  27
HETATM   27  C   UNL     1      -7.257   8.105  68.643  1.00  0.00    -0.084 C  
HETATM   28  C   UNL     1      -6.299   8.857  67.729  1.00  0.00    -0.056 C  
ENDBRANCH  26  27
BRANCH  26  29
HETATM   29  C   UNL     1      -8.395   9.241  70.648  1.00  0.00    -0.207 C  
HETATM   30  C   UNL     1      -7.262   8.552  71.389  1.00  0.00    -0.096 C  
ENDBRANCH  26  29
BRANCH  26  31
HETATM   31  C   UNL     1      -9.770   8.053  68.847  1.00  0.00    -0.159 C  
BRANCH  31  32
HETATM   32  C   UNL     1     -10.449   7.339  70.004  1.00  0.00    -0.234 A  
HETATM   33  C   UNL     1     -11.484   7.969  70.726  1.00  0.00    -0.273 A  
HETATM   34  C   UNL     1     -12.034   7.388  71.874  1.00  0.00    -0.337 A  
HETATM   35  C   UNL     1     -11.548   6.173  72.338  1.00  0.00    -0.338 A  
HETATM   36  C   UNL     1     -10.541   5.520  71.635  1.00  0.00    -0.294 A  
HETATM   37  C   UNL     1     -10.002   6.088  70.476  1.00  0.00    -0.185 A  
HETATM   38 CL   UNL     1      -8.754   5.197  69.683  1.00  0.00    -0.099 Cl 
ENDBRANCH  31  32
ENDBRANCH  26  31
ENDBRANCH  25  26
ENDBRANCH  24  25
ENDBRANCH  21  24
ENDBRANCH  18  20
ENDBRANCH  15  16
ENDBRANCH  14  15
ENDBRANCH   3  14
ENDBRANCH   2   3
TORSDOF 15
ENDMDL
MODEL      195
REMARK 921   NORMALIZED FREE ENERGY PREDICTED BY IDOCK:   -4.37 KCAL/MOL
REMARK 922        TOTAL FREE ENERGY PREDICTED BY IDOCK:  -10.86 KCAL/MOL
REMARK 923 INTER-LIGAND FREE ENERGY PREDICTED BY IDOCK:   -9.49 KCAL/MOL
REMARK 924 INTRA-LIGAND FREE ENERGY PREDICTED BY IDOCK:   -1.37 KCAL/MOL
REMARK 927      BINDING AFFINITY PREDICTED BY RF-SCORE:    0.00 PKD
ROOT
HETATM    1  C   UNL     1      -6.811  14.345  69.678  1.00  0.00    -0.118 C  
HETATM    2  C   UNL     1      -6.642  15.842  69.464  1.00  0.00    -0.191 C  
ENDROOT
BRANCH   2   3
HETATM    3  N   UNL     1      -7.323  16.423  68.187  1.00  0.00    -0.144 N  
BRANCH   3   4
HETATM    4  C   UNL     1      -6.424  17.529  67.560  1.00  0.00    -0.147 C  
HETATM    5  C   UNL     1      -6.149  17.391  66.084  1.00  0.00    -0.186 C  
ENDBRANCH   3   4
BRANCH   3   6
HETATM    6  C   UNL     1      -8.636  17.150  68.561  1.00  0.00    -0.258 C  
BRANCH   6   7
HETATM    7  C   UNL     1      -9.265  18.222  67.675  1.00  0.00    -0.271 A  
HETATM    8  C   UNL     1      -9.630  20.617  67.262  1.00  0.00    -0.558 A  
HETATM    9  C   UNL     1     -10.118  17.979  66.585  1.00  0.00    -0.372 A  
HETATM   10  C   UNL     1      -8.999  19.578  67.958  1.00  0.00    -0.327 A  
HETATM   11  C   UNL     1     -10.703  19.011  65.848  1.00  0.00    -0.404 A  
HETATM   12 CL   UNL     1      -7.897  20.017  69.218  1.00  0.00    -0.007 Cl 
HETATM   13  C   UNL     1     -10.481  20.330  66.201  1.00  0.00    -0.332 A  
ENDBRANCH   6   7
ENDBRANCH   3   6
BRANCH   3  14
HETATM   14  C   UNL     1      -7.569  15.188  67.229  1.00  0.00    -0.203 C  
BRANCH  14  15
HETATM   15  C   UNL     1      -8.994  15.061  66.588  1.00  0.00    -0.281 C  
BRANCH  15  16
HETATM   16  N   UNL     1      -9.357  13.791  65.975  1.00  0.00    -0.503 N  
HETATM   17  H   UNL     1      -8.916  12.926  66.288  1.00  0.00     0.000 HD 
HETATM   18  C   UNL     1     -10.309  13.763  64.961  1.00  0.00    -0.382 C  
HETATM   19  O   UNL     1     -11.013  14.716  64.669  1.00  0.00    -0.378 OA 
BRANCH  18  20
HETATM   20  C   UNL     1     -10.506  12.380  64.291  1.00  0.00    -0.363 C  
HETATM   21  N   UNL     1      -9.365  11.579  64.224  1.00  0.00    -0.423 N  
HETATM   22  O   UNL     1     -11.598  12.038  63.870  1.00  0.00    -0.391 OA 
HETATM   23  H   UNL     1      -8.433  11.987  64.299  1.00  0.00     0.000 HD 
BRANCH  21  24
HETATM   24  C   UNL     1      -9.537  10.142  64.044  1.00  0.00    -0.257 C  
BRANCH  24  25
HETATM   25  C   UNL     1      -8.402   9.260  64.630  1.00  0.00    -0.161 C  
BRANCH  25  26
HETATM   26  N   UNL     1      -8.624   8.806  66.094  1.00  0.00    -0.138 N  
BRANCH  26  27
HETATM   27  C   UNL     1      -8.060   7.370  66.307  1.00  0.00    -0.117 C  
HETATM   28  C   UNL     1      -8.987   6.239  65.886  1.00  0.00    -0.122 C  
ENDBRANCH  26  27
BRANCH  26  29
HETATM   29  C   UNL     1      -7.920   9.835  67.020  1.00  0.00    -0.105 C  
HETATM   30  C   UNL     1      -6.690  10.506  66.434  1.00  0.00    -0.114 C  
ENDBRANCH  26  29
BRANCH  26  31
HETATM   31  C   UNL     1     -10.162   8.758  66.422  1.00  0.00    -0.186 C  
BRANCH  31  32
HETATM   32  C   UNL     1     -10.685   9.526  67.625  1.00  0.00    -0.314 A  
HETATM   33  C   UNL     1     -11.182  10.838  67.476  1.00  0.00    -0.346 A  
HETATM   34  C   UNL     1     -11.545  11.611  68.584  1.00  0.00    -0.373 A  
HETATM   35  C   UNL     1     -11.403  11.099  69.866  1.00  0.00    -0.348 A  
HETATM   36  C   UNL     1     -10.934   9.802  70.041  1.00  0.00    -0.319 A  
HETATM   37  C   UNL     1     -10.587   9.017  68.936  1.00  0.00    -0.180 A  
HETATM   38 CL   UNL     1     -10.011   7.423  69.266  1.00  0.00    -0.169 Cl 
ENDBRANCH  31  32
ENDBRANCH  26  31
ENDBRANCH  25  26
ENDBRANCH  24  25
ENDBRANCH  21  24
ENDBRANCH  18  20
ENDBRANCH  15  16
ENDBRANCH  14  15
ENDBRANCH   3  14
ENDBRANCH   2   3
TORSDOF 15
ENDMDL
MODEL      196
REMARK 921   NORMALIZED FREE ENERGY PREDICTED BY IDOCK:   -4.36 KCAL/MOL
REMARK 922        TOTAL FREE ENERGY PREDICTED BY IDOCK:  -10.85 KCAL/MOL
REMARK 923 INTER-LIGAND FREE ENERGY PREDICTED BY IDOCK:   -9.61 KCAL/MOL
REMARK 924 INTRA-LIGAND FREE ENERGY PREDICTED BY IDOCK:   -1.24 KCAL/MOL
REMARK 927      BINDING AFFINITY PREDICTED BY RF-SCORE:    0.00 PKD
ROOT
HETATM    1  C   UNL     1      -6.340  13.463  68.744  1.00  0.00    -0.094 C  
HETATM    2  C   UNL     1      -6.851  14.714  69.444  1.00  0.00    -0.159 C  
ENDROOT
BRANCH   2   3
HETATM    3  N   UNL     1      -7.155  15.931  68.515  1.00  0.00    -0.120 N  
BRANCH   3   4
HETATM    4  C   UNL     1      -5.955  16.922  68.526  1.00  0.00    -0.143 C  
HETATM    5  C   UNL     1      -5.362  17.221  69.879  1.00  0.00    -0.205 C  
ENDBRANCH   3   4
BRANCH   3   6
HETATM    6  C   UNL     1      -8.345  16.748  69.072  1.00  0.00    -0.163 C  
BRANCH   6   7
HETATM    7  C   UNL     1      -8.902  17.979  68.364  1.00  0.00    -0.300 A  
HETATM    8  C   UNL     1     -10.808  19.026  67.219  1.00  0.00    -0.494 A  
HETATM    9  C   UNL     1      -8.169  19.134  68.042  1.00  0.00    -0.339 A  
HETATM   10  C   UNL     1     -10.257  17.981  67.973  1.00  0.00    -0.382 A  
HETATM   11  C   UNL     1      -8.729  20.205  67.344  1.00  0.00    -0.425 A  
HETATM   12 CL   UNL     1     -11.296  16.660  68.384  1.00  0.00    -0.248 Cl 
HETATM   13  C   UNL     1     -10.041  20.142  66.909  1.00  0.00    -0.592 A  
ENDBRANCH   6   7
ENDBRANCH   3   6
BRANCH   3  14
HETATM   14  C   UNL     1      -7.459  15.319  67.088  1.00  0.00    -0.167 C  
BRANCH  14  15
HETATM   15  C   UNL     1      -8.915  14.793  66.837  1.00  0.00    -0.253 C  
BRANCH  15  16
HETATM   16  N   UNL     1      -9.076  13.426  66.366  1.00  0.00    -0.459 N  
HETATM   17  H   UNL     1      -8.326  12.747  66.496  1.00  0.00     0.000 HD 
HETATM   18  C   UNL     1     -10.259  13.049  65.738  1.00  0.00    -0.290 C  
HETATM   19  O   UNL     1     -11.264  13.740  65.718  1.00  0.00    -0.295 OA 
BRANCH  18  20
HETATM   20  C   UNL     1     -10.257  11.614  65.154  1.00  0.00    -0.274 C  
HETATM   21  N   UNL     1      -9.490  10.682  65.855  1.00  0.00    -0.187 N  
HETATM   22  O   UNL     1     -10.900  11.344  64.154  1.00  0.00    -0.347 OA 
HETATM   23  H   UNL     1      -8.745  10.984  66.483  1.00  0.00     0.000 HD 
BRANCH  21  24
HETATM   24  C   UNL     1      -9.780   9.265  65.668  1.00  0.00    -0.232 C  
BRANCH  24  25
HETATM   25  C   UNL     1     -10.267   8.515  66.937  1.00  0.00    -0.305 C  
BRANCH  25  26
HETATM   26  N   UNL     1      -9.598   7.140  67.175  1.00  0.00    -0.143 N  
BRANCH  26  27
HETATM   27  C   UNL     1     -10.609   5.990  66.892  1.00  0.00    -0.315 C  
HETATM   28  C   UNL     1     -10.020   4.586  66.916  1.00  0.00    -0.229 C  
ENDBRANCH  26  27
BRANCH  26  29
HETATM   29  C   UNL     1      -8.360   7.048  66.241  1.00  0.00    -0.129 C  
HETATM   30  C   UNL     1      -7.030   6.828  66.942  1.00  0.00    -0.070 C  
ENDBRANCH  26  29
BRANCH  26  31
HETATM   31  C   UNL     1      -9.145   7.006  68.676  1.00  0.00    -0.132 C  
BRANCH  31  32
HETATM   32  C   UNL     1     -10.036   7.570  69.770  1.00  0.00    -0.194 A  
HETATM   33  C   UNL     1     -11.145   6.835  70.240  1.00  0.00    -0.360 A  
HETATM   34  C   UNL     1     -12.055   7.385  71.149  1.00  0.00    -0.357 A  
HETATM   35  C   UNL     1     -11.889   8.690  71.595  1.00  0.00    -0.389 A  
HETATM   36  C   UNL     1     -10.794   9.431  71.163  1.00  0.00    -0.427 A  
HETATM   37  C   UNL     1      -9.871   8.878  70.269  1.00  0.00    -0.183 A  
HETATM   38 CL   UNL     1      -8.552   9.886  69.793  1.00  0.00    -0.211 Cl 
ENDBRANCH  31  32
ENDBRANCH  26  31
ENDBRANCH  25  26
ENDBRANCH  24  25
ENDBRANCH  21  24
ENDBRANCH  18  20
ENDBRANCH  15  16
ENDBRANCH  14  15
ENDBRANCH   3  14
ENDBRANCH   2   3
TORSDOF 15
ENDMDL
MODEL      197
REMARK 921   NORMALIZED FREE ENERGY PREDICTED BY IDOCK:   -4.36 KCAL/MOL
REMARK 922        TOTAL FREE ENERGY PREDICTED BY IDOCK:  -10.84 KCAL/MOL
REMARK 923 INTER-LIGAND FREE ENERGY PREDICTED BY IDOCK:   -8.76 KCAL/MOL
REMARK 924 INTRA-LIGAND FREE ENERGY PREDICTED BY IDOCK:   -2.08 KCAL/MOL
REMARK 927      BINDING AFFINITY PREDICTED BY RF-SCORE:    0.00 PKD
ROOT
HETATM    1  C   UNL     1     -11.317  11.896  68.832  1.00  0.00    -0.335 C  
HETATM    2  C   UNL     1     -11.067  10.881  67.727  1.00  0.00    -0.309 C  
ENDROOT
BRANCH   2   3
HETATM    3  N   UNL     1      -9.586  10.745  67.256  1.00  0.00    -0.159 N  
BRANCH   3   4
HETATM    4  C   UNL     1      -8.621  11.101  68.425  1.00  0.00    -0.152 C  
HETATM    5  C   UNL     1      -7.384  11.873  68.042  1.00  0.00    -0.100 C  
ENDBRANCH   3   4
BRANCH   3   6
HETATM    6  C   UNL     1      -9.273  11.787  66.157  1.00  0.00    -0.210 C  
BRANCH   6   7
HETATM    7  C   UNL     1     -10.329  12.299  65.182  1.00  0.00    -0.316 A  
HETATM    8  C   UNL     1     -11.967  14.046  64.631  1.00  0.00    -0.449 A  
HETATM    9  C   UNL     1     -10.798  11.606  64.053  1.00  0.00    -0.455 A  
HETATM   10  C   UNL     1     -10.913  13.562  65.416  1.00  0.00    -0.292 A  
HETATM   11  C   UNL     1     -11.807  12.111  63.231  1.00  0.00    -0.466 A  
HETATM   12 CL   UNL     1     -10.366  14.559  66.720  1.00  0.00    -0.266 Cl 
HETATM   13  C   UNL     1     -12.411  13.318  63.533  1.00  0.00    -0.442 A  
ENDBRANCH   6   7
ENDBRANCH   3   6
BRANCH   3  14
HETATM   14  C   UNL     1      -9.432   9.258  66.739  1.00  0.00    -0.175 C  
BRANCH  14  15
HETATM   15  C   UNL     1     -10.549   8.241  67.159  1.00  0.00    -0.270 C  
BRANCH  15  16
HETATM   16  N   UNL     1     -10.166   7.108  67.989  1.00  0.00    -0.176 N  
HETATM   17  H   UNL     1      -9.901   7.252  68.963  1.00  0.00     0.000 HD 
HETATM   18  C   UNL     1     -10.162   5.827  67.445  1.00  0.00    -0.200 C  
HETATM   19  O   UNL     1     -10.645   5.553  66.359  1.00  0.00    -0.264 OA 
BRANCH  18  20
HETATM   20  C   UNL     1      -9.600   4.726  68.378  1.00  0.00    -0.151 C  
HETATM   21  N   UNL     1      -9.232   5.153  69.656  1.00  0.00    -0.114 N  
HETATM   22  O   UNL     1      -9.507   3.571  67.999  1.00  0.00    -0.184 OA 
HETATM   23  H   UNL     1      -9.036   6.136  69.843  1.00  0.00     0.000 HD 
BRANCH  21  24
HETATM   24  C   UNL     1      -9.134   4.158  70.717  1.00  0.00    -0.111 C  
BRANCH  24  25
HETATM   25  C   UNL     1      -8.737   4.714  72.112  1.00  0.00    -0.119 C  
BRANCH  25  26
HETATM   26  N   UNL     1      -9.497   4.080  73.302  1.00  0.00    -0.111 N  
BRANCH  26  27
HETATM   27  C   UNL     1     -10.131   2.722  72.879  1.00  0.00    -0.142 C  
HETATM   28  C   UNL     1     -11.569   2.508  73.329  1.00  0.00    -0.085 C  
ENDBRANCH  26  27
BRANCH  26  29
HETATM   29  C   UNL     1      -8.484   3.894  74.465  1.00  0.00    -0.092 C  
HETATM   30  C   UNL     1      -7.677   2.608  74.428  1.00  0.00    -0.047 C  
ENDBRANCH  26  29
BRANCH  26  31
HETATM   31  C   UNL     1     -10.671   5.021  73.763  1.00  0.00    -0.301 C  
BRANCH  31  32
HETATM   32  C   UNL     1     -10.947   6.295  72.982  1.00  0.00    -0.271 A  
HETATM   33  C   UNL     1     -11.982   6.337  72.024  1.00  0.00    -0.353 A  
HETATM   34  C   UNL     1     -12.170   7.453  71.201  1.00  0.00    -0.357 A  
HETATM   35  C   UNL     1     -11.317   8.543  71.301  1.00  0.00    -0.325 A  
HETATM   36  C   UNL     1     -10.300   8.536  72.250  1.00  0.00    -0.402 A  
HETATM   37  C   UNL     1     -10.120   7.431  73.089  1.00  0.00    -0.291 A  
HETATM   38 CL   UNL     1      -8.825   7.525  74.228  1.00  0.00    -0.267 Cl 
ENDBRANCH  31  32
ENDBRANCH  26  31
ENDBRANCH  25  26
ENDBRANCH  24  25
ENDBRANCH  21  24
ENDBRANCH  18  20
ENDBRANCH  15  16
ENDBRANCH  14  15
ENDBRANCH   3  14
ENDBRANCH   2   3
TORSDOF 15
ENDMDL
MODEL      198
REMARK 921   NORMALIZED FREE ENERGY PREDICTED BY IDOCK:   -4.35 KCAL/MOL
REMARK 922        TOTAL FREE ENERGY PREDICTED BY IDOCK:  -10.83 KCAL/MOL
REMARK 923 INTER-LIGAND FREE ENERGY PREDICTED BY IDOCK:   -9.50 KCAL/MOL
REMARK 924 INTRA-LIGAND FREE ENERGY PREDICTED BY IDOCK:   -1.33 KCAL/MOL
REMARK 927      BINDING AFFINITY PREDICTED BY RF-SCORE:    0.00 PKD
ROOT
HETATM    1  C   UNL     1     -11.140  15.806  64.737  1.00  0.00    -0.413 C  
HETATM    2  C   UNL     1     -11.264  15.187  66.122  1.00  0.00    -0.271 C  
ENDROOT
BRANCH   2   3
HETATM    3  N   UNL     1     -10.257  15.714  67.191  1.00  0.00    -0.264 N  
BRANCH   3   4
HETATM    4  C   UNL     1     -11.005  16.582  68.244  1.00  0.00    -0.346 C  
HETATM    5  C   UNL     1     -11.827  15.823  69.255  1.00  0.00    -0.358 C  
ENDBRANCH   3   4
BRANCH   3   6
HETATM    6  C   UNL     1      -9.238  16.678  66.540  1.00  0.00    -0.270 C  
BRANCH   6   7
HETATM    7  C   UNL     1      -8.480  17.736  67.337  1.00  0.00    -0.230 A  
HETATM    8  C   UNL     1      -8.237  20.112  67.920  1.00  0.00    -0.255 A  
HETATM    9  C   UNL     1      -7.327  17.506  68.106  1.00  0.00    -0.218 A  
HETATM   10  C   UNL     1      -8.944  19.069  67.307  1.00  0.00    -0.284 A  
HETATM   11  C   UNL     1      -6.652  18.532  68.769  1.00  0.00    -0.267 A  
HETATM   12 CL   UNL     1     -10.403  19.477  66.472  1.00  0.00    -0.537 Cl 
HETATM   13  C   UNL     1      -7.091  19.839  68.656  1.00  0.00    -0.366 A  
ENDBRANCH   6   7
ENDBRANCH   3   6
BRANCH   3  14
HETATM   14  C   UNL     1      -9.566  14.430  67.804  1.00  0.00    -0.216 C  
BRANCH  14  15
HETATM   15  C   UNL     1     -10.141  13.038  67.367  1.00  0.00    -0.231 C  
BRANCH  15  16
HETATM   16  N   UNL     1     -10.134  11.959  68.344  1.00  0.00    -0.203 N  
HETATM   17  H   UNL     1      -9.503  11.994  69.144  1.00  0.00     0.000 HD 
HETATM   18  C   UNL     1     -10.996  10.878  68.180  1.00  0.00    -0.249 C  
HETATM   19  O   UNL     1     -11.904  10.855  67.367  1.00  0.00    -0.465 OA 
BRANCH  18  20
HETATM   20  C   UNL     1     -10.797   9.728  69.199  1.00  0.00    -0.207 C  
HETATM   21  N   UNL     1     -11.471   9.878  70.412  1.00  0.00    -0.282 N  
HETATM   22  O   UNL     1     -10.101   8.764  68.928  1.00  0.00    -0.187 OA 
HETATM   23  H   UNL     1     -11.785  10.796  70.726  1.00  0.00     0.000 HD 
BRANCH  21  24
HETATM   24  C   UNL     1     -11.716   8.689  71.220  1.00  0.00    -0.289 C  
BRANCH  24  25
HETATM   25  C   UNL     1     -10.615   8.361  72.266  1.00  0.00    -0.342 C  
BRANCH  25  26
HETATM   26  N   UNL     1     -10.168   6.879  72.294  1.00  0.00    -0.185 N  
BRANCH  26  27
HETATM   27  C   UNL     1      -8.675   6.756  71.867  1.00  0.00    -0.123 C  
HETATM   28  C   UNL     1      -8.060   8.021  71.282  1.00  0.00    -0.110 C  
ENDBRANCH  26  27
BRANCH  26  29
HETATM   29  C   UNL     1     -10.391   6.345  73.735  1.00  0.00    -0.311 C  
HETATM   30  C   UNL     1      -9.128   6.006  74.508  1.00  0.00    -0.149 C  
ENDBRANCH  26  29
BRANCH  26  31
HETATM   31  C   UNL     1     -11.018   6.034  71.274  1.00  0.00    -0.278 C  
BRANCH  31  32
HETATM   32  C   UNL     1     -10.300   5.170  70.251  1.00  0.00    -0.331 A  
HETATM   33  C   UNL     1     -10.175   5.599  68.913  1.00  0.00    -0.279 A  
HETATM   34  C   UNL     1      -9.636   4.767  67.926  1.00  0.00    -0.198 A  
HETATM   35  C   UNL     1      -9.228   3.479  68.249  1.00  0.00    -0.225 A  
HETATM   36  C   UNL     1      -9.323   3.037  69.564  1.00  0.00    -0.213 A  
HETATM   37  C   UNL     1      -9.843   3.873  70.558  1.00  0.00    -0.110 A  
HETATM   38 CL   UNL     1      -9.919   3.223  72.156  1.00  0.00    -0.236 Cl 
ENDBRANCH  31  32
ENDBRANCH  26  31
ENDBRANCH  25  26
ENDBRANCH  24  25
ENDBRANCH  21  24
ENDBRANCH  18  20
ENDBRANCH  15  16
ENDBRANCH  14  15
ENDBRANCH   3  14
ENDBRANCH   2   3
TORSDOF 15
ENDMDL
MODEL      199
REMARK 921   NORMALIZED FREE ENERGY PREDICTED BY IDOCK:   -4.34 KCAL/MOL
REMARK 922        TOTAL FREE ENERGY PREDICTED BY IDOCK:  -10.81 KCAL/MOL
REMARK 923 INTER-LIGAND FREE ENERGY PREDICTED BY IDOCK:   -9.29 KCAL/MOL
REMARK 924 INTRA-LIGAND FREE ENERGY PREDICTED BY IDOCK:   -1.52 KCAL/MOL
REMARK 927      BINDING AFFINITY PREDICTED BY RF-SCORE:    0.00 PKD
ROOT
HETATM    1  C   UNL     1     -10.841  14.431  64.946  1.00  0.00    -0.430 C  
HETATM    2  C   UNL     1     -11.114  14.697  66.419  1.00  0.00    -0.334 C  
ENDROOT
BRANCH   2   3
HETATM    3  N   UNL     1      -9.853  14.915  67.311  1.00  0.00    -0.228 N  
BRANCH   3   4
HETATM    4  C   UNL     1     -10.273  15.486  68.697  1.00  0.00    -0.216 C  
HETATM    5  C   UNL     1     -11.757  15.555  68.955  1.00  0.00    -0.392 C  
ENDBRANCH   3   4
BRANCH   3   6
HETATM    6  C   UNL     1      -8.942  16.004  66.698  1.00  0.00    -0.260 C  
BRANCH   6   7
HETATM    7  C   UNL     1      -9.272  17.492  66.772  1.00  0.00    -0.277 A  
HETATM    8  C   UNL     1      -8.803  19.669  67.811  1.00  0.00    -0.379 A  
HETATM    9  C   UNL     1     -10.317  18.129  66.082  1.00  0.00    -0.394 A  
HETATM   10  C   UNL     1      -8.489  18.319  67.605  1.00  0.00    -0.255 A  
HETATM   11  C   UNL     1     -10.597  19.488  66.237  1.00  0.00    -0.580 A  
HETATM   12 CL   UNL     1      -7.116  17.682  68.443  1.00  0.00    -0.226 Cl 
HETATM   13  C   UNL     1      -9.858  20.253  67.121  1.00  0.00    -0.606 A  
ENDBRANCH   6   7
ENDBRANCH   3   6
BRANCH   3  14
HETATM   14  C   UNL     1      -9.136  13.507  67.397  1.00  0.00    -0.219 C  
BRANCH  14  15
HETATM   15  C   UNL     1      -9.962  12.328  68.020  1.00  0.00    -0.202 C  
BRANCH  15  16
HETATM   16  N   UNL     1      -9.291  11.450  68.968  1.00  0.00    -0.407 N  
HETATM   17  H   UNL     1      -8.534  11.807  69.551  1.00  0.00     0.000 HD 
HETATM   18  C   UNL     1      -9.689  10.121  69.074  1.00  0.00    -0.206 C  
HETATM   19  O   UNL     1     -10.699   9.674  68.558  1.00  0.00    -0.219 OA 
BRANCH  18  20
HETATM   20  C   UNL     1      -8.809   9.252  70.007  1.00  0.00    -0.197 C  
HETATM   21  N   UNL     1      -8.201   8.149  69.405  1.00  0.00    -0.120 N  
HETATM   22  O   UNL     1      -8.667   9.543  71.183  1.00  0.00    -0.259 OA 
HETATM   23  H   UNL     1      -8.563   7.763  68.533  1.00  0.00     0.000 HD 
BRANCH  21  24
HETATM   24  C   UNL     1      -7.034   7.561  70.053  1.00  0.00    -0.059 C  
BRANCH  24  25
HETATM   25  C   UNL     1      -7.326   6.790  71.368  1.00  0.00    -0.082 C  
BRANCH  25  26
HETATM   26  N   UNL     1      -7.643   5.286  71.182  1.00  0.00    -0.093 N  
BRANCH  26  27
HETATM   27  C   UNL     1      -6.927   4.734  69.915  1.00  0.00    -0.052 C  
HETATM   28  C   UNL     1      -7.842   4.107  68.872  1.00  0.00    -0.061 C  
ENDBRANCH  26  27
BRANCH  26  29
HETATM   29  C   UNL     1      -7.180   4.542  72.465  1.00  0.00    -0.080 C  
HETATM   30  C   UNL     1      -6.839   5.432  73.647  1.00  0.00    -0.083 C  
ENDBRANCH  26  29
BRANCH  26  31
HETATM   31  C   UNL     1      -9.190   5.078  70.974  1.00  0.00    -0.147 C  
BRANCH  31  32
HETATM   32  C   UNL     1     -10.147   6.180  71.395  1.00  0.00    -0.230 A  
HETATM   33  C   UNL     1     -10.139   6.669  72.718  1.00  0.00    -0.195 A  
HETATM   34  C   UNL     1     -11.096   7.587  73.164  1.00  0.00    -0.378 A  
HETATM   35  C   UNL     1     -12.094   8.024  72.303  1.00  0.00    -0.392 A  
HETATM   36  C   UNL     1     -12.114   7.574  70.987  1.00  0.00    -0.305 A  
HETATM   37  C   UNL     1     -11.148   6.670  70.532  1.00  0.00    -0.307 A  
HETATM   38 CL   UNL     1     -11.268   6.172  68.883  1.00  0.00    -0.422 Cl 
ENDBRANCH  31  32
ENDBRANCH  26  31
ENDBRANCH  25  26
ENDBRANCH  24  25
ENDBRANCH  21  24
ENDBRANCH  18  20
ENDBRANCH  15  16
ENDBRANCH  14  15
ENDBRANCH   3  14
ENDBRANCH   2   3
TORSDOF 15
ENDMDL
MODEL      200
REMARK 921   NORMALIZED FREE ENERGY PREDICTED BY IDOCK:   -4.34 KCAL/MOL
REMARK 922        TOTAL FREE ENERGY PREDICTED BY IDOCK:  -10.80 KCAL/MOL
REMARK 923 INTER-LIGAND FREE ENERGY PREDICTED BY IDOCK:   -8.41 KCAL/MOL
REMARK 924 INTRA-LIGAND FREE ENERGY PREDICTED BY IDOCK:   -2.39 KCAL/MOL
REMARK 927      BINDING AFFINITY PREDICTED BY RF-SCORE:    0.00 PKD
ROOT
HETATM    1  C   UNL     1      -5.677   9.080  66.409  1.00  0.00    -0.050 C  
HETATM    2  C   UNL     1      -6.591   8.184  67.233  1.00  0.00    -0.058 C  
ENDROOT
BRANCH   2   3
HETATM    3  N   UNL     1      -8.084   8.627  67.307  1.00  0.00    -0.101 N  
BRANCH   3   4
HETATM    4  C   UNL     1      -8.835   7.792  68.385  1.00  0.00    -0.130 C  
HETATM    5  C   UNL     1     -10.318   8.040  68.492  1.00  0.00    -0.229 C  
ENDBRANCH   3   4
BRANCH   3   6
HETATM    6  C   UNL     1      -8.810   8.300  65.981  1.00  0.00    -0.168 C  
BRANCH   6   7
HETATM    7  C   UNL     1      -9.116   9.359  64.927  1.00  0.00    -0.258 A  
HETATM    8  C   UNL     1      -8.568  10.315  62.730  1.00  0.00    -0.199 A  
HETATM    9  C   UNL     1     -10.036  10.410  65.073  1.00  0.00    -0.379 A  
HETATM   10  C   UNL     1      -8.423   9.313  63.699  1.00  0.00    -0.195 A  
HETATM   11  C   UNL     1     -10.230  11.378  64.086  1.00  0.00    -0.376 A  
HETATM   12 CL   UNL     1      -7.326   8.021  63.352  1.00  0.00    -0.101 Cl 
HETATM   13  C   UNL     1      -9.478  11.347  62.925  1.00  0.00    -0.372 A  
ENDBRANCH   6   7
ENDBRANCH   3   6
BRANCH   3  14
HETATM   14  C   UNL     1      -8.060  10.179  67.614  1.00  0.00    -0.109 C  
BRANCH  14  15
HETATM   15  C   UNL     1      -7.691  10.608  69.077  1.00  0.00    -0.130 C  
BRANCH  15  16
HETATM   16  N   UNL     1      -7.487  12.024  69.343  1.00  0.00    -0.330 N  
HETATM   17  H   UNL     1      -8.272  12.611  69.626  1.00  0.00     0.000 HD 
HETATM   18  C   UNL     1      -6.215  12.573  69.210  1.00  0.00    -0.105 C  
HETATM   19  O   UNL     1      -5.204  11.907  69.065  1.00  0.00    -0.051 OA 
BRANCH  18  20
HETATM   20  C   UNL     1      -6.150  14.111  69.379  1.00  0.00    -0.104 C  
HETATM   21  N   UNL     1      -6.502  14.855  68.251  1.00  0.00    -0.107 N  
HETATM   22  O   UNL     1      -5.821  14.611  70.441  1.00  0.00    -0.134 OA 
HETATM   23  H   UNL     1      -6.477  14.437  67.320  1.00  0.00     0.000 HD 
BRANCH  21  24
HETATM   24  C   UNL     1      -6.907  16.243  68.434  1.00  0.00    -0.137 C  
BRANCH  24  25
HETATM   25  C   UNL     1      -8.437  16.477  68.558  1.00  0.00    -0.226 C  
BRANCH  25  26
HETATM   26  N   UNL     1      -9.129  16.943  67.254  1.00  0.00    -0.216 N  
BRANCH  26  27
HETATM   27  C   UNL     1     -10.642  17.209  67.509  1.00  0.00    -0.323 C  
HETATM   28  C   UNL     1     -11.179  16.688  68.835  1.00  0.00    -0.200 C  
ENDBRANCH  26  27
BRANCH  26  29
HETATM   29  C   UNL     1      -8.402  18.225  66.764  1.00  0.00    -0.255 C  
HETATM   30  C   UNL     1      -9.212  19.507  66.849  1.00  0.00    -0.408 C  
ENDBRANCH  26  29
BRANCH  26  31
HETATM   31  C   UNL     1      -9.030  15.821  66.154  1.00  0.00    -0.337 C  
BRANCH  31  32
HETATM   32  C   UNL     1     -10.277  15.034  65.788  1.00  0.00    -0.361 A  
HETATM   33  C   UNL     1     -11.054  15.402  64.669  1.00  0.00    -0.361 A  
HETATM   34  C   UNL     1     -12.274  14.777  64.389  1.00  0.00    -0.447 A  
HETATM   35  C   UNL     1     -12.755  13.783  65.230  1.00  0.00    -0.481 A  
HETATM   36  C   UNL     1     -12.001  13.387  66.329  1.00  0.00    -0.460 A  
HETATM   37  C   UNL     1     -10.771  13.995  66.603  1.00  0.00    -0.281 A  
HETATM   38 CL   UNL     1      -9.919  13.431  67.994  1.00  0.00    -0.232 Cl 
ENDBRANCH  31  32
ENDBRANCH  26  31
ENDBRANCH  25  26
ENDBRANCH  24  25
ENDBRANCH  21  24
ENDBRANCH  18  20
ENDBRANCH  15  16
ENDBRANCH  14  15
ENDBRANCH   3  14
ENDBRANCH   2   3
TORSDOF 15
ENDMDL
MODEL      201
REMARK 921   NORMALIZED FREE ENERGY PREDICTED BY IDOCK:   -4.32 KCAL/MOL
REMARK 922        TOTAL FREE ENERGY PREDICTED BY IDOCK:  -10.76 KCAL/MOL
REMARK 923 INTER-LIGAND FREE ENERGY PREDICTED BY IDOCK:   -9.26 KCAL/MOL
REMARK 924 INTRA-LIGAND FREE ENERGY PREDICTED BY IDOCK:   -1.50 KCAL/MOL
REMARK 927      BINDING AFFINITY PREDICTED BY RF-SCORE:    0.00 PKD
ROOT
HETATM    1  C   UNL     1      -9.218  17.470  69.004  1.00  0.00    -0.072 C  
HETATM    2  C   UNL     1      -9.523  16.004  68.736  1.00  0.00    -0.227 C  
ENDROOT
BRANCH   2   3
HETATM    3  N   UNL     1      -9.707  15.615  67.236  1.00  0.00    -0.218 N  
BRANCH   3   4
HETATM    4  C   UNL     1      -9.433  16.850  66.328  1.00  0.00    -0.271 C  
HETATM    5  C   UNL     1     -10.634  17.696  65.991  1.00  0.00    -0.220 C  
ENDBRANCH   3   4
BRANCH   3   6
HETATM    6  C   UNL     1     -11.181  15.240  66.954  1.00  0.00    -0.256 C  
BRANCH   6   7
HETATM    7  C   UNL     1     -11.585  14.236  65.878  1.00  0.00    -0.358 A  
HETATM    8  C   UNL     1     -11.912  11.880  65.262  1.00  0.00    -0.084 A  
HETATM    9  C   UNL     1     -11.881  14.551  64.542  1.00  0.00    -0.459 A  
HETATM   10  C   UNL     1     -11.660  12.870  66.220  1.00  0.00    -0.372 A  
HETATM   11  C   UNL     1     -12.192  13.574  63.594  1.00  0.00    -0.438 A  
HETATM   12 CL   UNL     1     -11.406  12.353  67.852  1.00  0.00    -0.318 Cl 
HETATM   13  C   UNL     1     -12.182  12.237  63.946  1.00  0.00    -0.608 A  
ENDBRANCH   6   7
ENDBRANCH   3   6
BRANCH   3  14
HETATM   14  C   UNL     1      -8.718  14.408  66.978  1.00  0.00    -0.223 C  
BRANCH  14  15
HETATM   15  C   UNL     1      -7.728  14.042  68.138  1.00  0.00    -0.143 C  
BRANCH  15  16
HETATM   16  N   UNL     1      -7.987  12.828  68.899  1.00  0.00    -0.330 N  
HETATM   17  H   UNL     1      -8.672  12.832  69.655  1.00  0.00     0.000 HD 
HETATM   18  C   UNL     1      -7.294  11.661  68.589  1.00  0.00    -0.111 C  
HETATM   19  O   UNL     1      -6.610  11.527  67.589  1.00  0.00    -0.067 OA 
BRANCH  18  20
HETATM   20  C   UNL     1      -7.548  10.479  69.557  1.00  0.00    -0.145 C  
HETATM   21  N   UNL     1      -8.844  10.386  70.066  1.00  0.00    -0.321 N  
HETATM   22  O   UNL     1      -6.658   9.690  69.829  1.00  0.00    -0.046 OA 
HETATM   23  H   UNL     1      -9.464  11.197  70.070  1.00  0.00     0.000 HD 
BRANCH  21  24
HETATM   24  C   UNL     1      -9.292   9.103  70.593  1.00  0.00    -0.258 C  
BRANCH  24  25
HETATM   25  C   UNL     1     -10.640   8.586  70.019  1.00  0.00    -0.227 C  
BRANCH  25  26
HETATM   26  N   UNL     1     -11.263   7.400  70.796  1.00  0.00    -0.266 N  
BRANCH  26  27
HETATM   27  C   UNL     1     -12.579   7.846  71.499  1.00  0.00    -0.321 C  
HETATM   28  C   UNL     1     -12.586   9.277  72.019  1.00  0.00    -0.465 C  
ENDBRANCH  26  27
BRANCH  26  29
HETATM   29  C   UNL     1     -11.522   6.253  69.780  1.00  0.00    -0.379 C  
HETATM   30  C   UNL     1     -11.020   6.506  68.370  1.00  0.00    -0.358 C  
ENDBRANCH  26  29
BRANCH  26  31
HETATM   31  C   UNL     1     -10.277   6.906  71.918  1.00  0.00    -0.188 C  
BRANCH  31  32
HETATM   32  C   UNL     1     -10.224   5.425  72.256  1.00  0.00    -0.244 A  
HETATM   33  C   UNL     1     -11.164   4.860  73.144  1.00  0.00    -0.403 A  
HETATM   34  C   UNL     1     -11.058   3.532  73.572  1.00  0.00    -0.317 A  
HETATM   35  C   UNL     1     -10.000   2.745  73.139  1.00  0.00    -0.185 A  
HETATM   36  C   UNL     1      -9.069   3.271  72.248  1.00  0.00    -0.145 A  
HETATM   37  C   UNL     1      -9.183   4.592  71.802  1.00  0.00    -0.134 A  
HETATM   38 CL   UNL     1      -7.972   5.145  70.702  1.00  0.00    -0.086 Cl 
ENDBRANCH  31  32
ENDBRANCH  26  31
ENDBRANCH  25  26
ENDBRANCH  24  25
ENDBRANCH  21  24
ENDBRANCH  18  20
ENDBRANCH  15  16
ENDBRANCH  14  15
ENDBRANCH   3  14
ENDBRANCH   2   3
TORSDOF 15
ENDMDL
MODEL      202
REMARK 921   NORMALIZED FREE ENERGY PREDICTED BY IDOCK:   -4.31 KCAL/MOL
REMARK 922        TOTAL FREE ENERGY PREDICTED BY IDOCK:  -10.76 KCAL/MOL
REMARK 923 INTER-LIGAND FREE ENERGY PREDICTED BY IDOCK:   -9.67 KCAL/MOL
REMARK 924 INTRA-LIGAND FREE ENERGY PREDICTED BY IDOCK:   -1.09 KCAL/MOL
REMARK 927      BINDING AFFINITY PREDICTED BY RF-SCORE:    0.00 PKD
ROOT
HETATM    1  C   UNL     1     -12.893  10.324  71.613  1.00  0.00    -0.568 C  
HETATM    2  C   UNL     1     -11.778   9.530  70.948  1.00  0.00    -0.317 C  
ENDROOT
BRANCH   2   3
HETATM    3  N   UNL     1     -11.834   7.985  71.156  1.00  0.00    -0.289 N  
BRANCH   3   4
HETATM    4  C   UNL     1     -13.220   7.436  70.707  1.00  0.00     0.182 C  
HETATM    5  C   UNL     1     -14.189   7.116  71.817  1.00  0.00    -0.484 C  
ENDBRANCH   3   4
BRANCH   3   6
HETATM    6  C   UNL     1     -11.743   7.640  72.661  1.00  0.00    -0.270 C  
BRANCH   6   7
HETATM    7  C   UNL     1     -11.004   6.410  73.181  1.00  0.00    -0.249 A  
HETATM    8  C   UNL     1      -8.900   5.461  74.025  1.00  0.00    -0.120 A  
HETATM    9  C   UNL     1     -11.527   5.108  73.232  1.00  0.00    -0.302 A  
HETATM   10  C   UNL     1      -9.679   6.560  73.641  1.00  0.00    -0.192 A  
HETATM   11  C   UNL     1     -10.776   4.016  73.672  1.00  0.00    -0.315 A  
HETATM   12 CL   UNL     1      -8.942   8.124  73.716  1.00  0.00    -0.294 Cl 
HETATM   13  C   UNL     1      -9.454   4.187  74.044  1.00  0.00    -0.121 A  
ENDBRANCH   6   7
ENDBRANCH   3   6
BRANCH   3  14
HETATM   14  C   UNL     1     -10.622   7.394  70.327  1.00  0.00    -0.231 C  
BRANCH  14  15
HETATM   15  C   UNL     1     -10.375   8.000  68.902  1.00  0.00    -0.209 C  
BRANCH  15  16
HETATM   16  N   UNL     1      -9.488   9.150  68.793  1.00  0.00    -0.146 N  
HETATM   17  H   UNL     1      -8.886   9.409  69.574  1.00  0.00     0.000 HD 
HETATM   18  C   UNL     1      -9.467   9.893  67.617  1.00  0.00    -0.147 C  
HETATM   19  O   UNL     1     -10.007   9.537  66.583  1.00  0.00    -0.212 OA 
BRANCH  18  20
HETATM   20  C   UNL     1      -8.595  11.172  67.672  1.00  0.00    -0.126 C  
HETATM   21  N   UNL     1      -9.017  12.223  66.855  1.00  0.00    -0.203 N  
HETATM   22  O   UNL     1      -7.616  11.232  68.397  1.00  0.00    -0.105 OA 
HETATM   23  H   UNL     1      -9.632  12.052  66.059  1.00  0.00     0.000 HD 
BRANCH  21  24
HETATM   24  C   UNL     1      -8.559  13.571  67.168  1.00  0.00    -0.195 C  
BRANCH  24  25
HETATM   25  C   UNL     1      -9.392  14.321  68.243  1.00  0.00    -0.208 C  
BRANCH  25  26
HETATM   26  N   UNL     1     -10.289  15.456  67.694  1.00  0.00    -0.258 N  
BRANCH  26  27
HETATM   27  C   UNL     1      -9.819  15.877  66.270  1.00  0.00    -0.302 C  
HETATM   28  C   UNL     1     -10.900  15.868  65.199  1.00  0.00    -0.438 C  
ENDBRANCH  26  27
BRANCH  26  29
HETATM   29  C   UNL     1     -11.753  14.936  67.676  1.00  0.00    -0.307 C  
HETATM   30  C   UNL     1     -11.957  13.545  68.249  1.00  0.00    -0.377 C  
ENDBRANCH  26  29
BRANCH  26  31
HETATM   31  C   UNL     1     -10.186  16.727  68.616  1.00  0.00    -0.298 C  
BRANCH  31  32
HETATM   32  C   UNL     1      -9.672  18.029  68.025  1.00  0.00    -0.309 A  
HETATM   33  C   UNL     1     -10.555  18.919  67.377  1.00  0.00    -0.534 A  
HETATM   34  C   UNL     1     -10.088  20.057  66.712  1.00  0.00    -0.607 A  
HETATM   35  C   UNL     1      -8.726  20.323  66.661  1.00  0.00    -0.318 A  
HETATM   36  C   UNL     1      -7.835  19.473  67.307  1.00  0.00    -0.293 A  
HETATM   37  C   UNL     1      -8.299  18.344  67.990  1.00  0.00    -0.272 A  
HETATM   38 CL   UNL     1      -7.107  17.354  68.753  1.00  0.00    -0.237 Cl 
ENDBRANCH  31  32
ENDBRANCH  26  31
ENDBRANCH  25  26
ENDBRANCH  24  25
ENDBRANCH  21  24
ENDBRANCH  18  20
ENDBRANCH  15  16
ENDBRANCH  14  15
ENDBRANCH   3  14
ENDBRANCH   2   3
TORSDOF 15
ENDMDL
MODEL      203
REMARK 921   NORMALIZED FREE ENERGY PREDICTED BY IDOCK:   -4.31 KCAL/MOL
REMARK 922        TOTAL FREE ENERGY PREDICTED BY IDOCK:  -10.75 KCAL/MOL
REMARK 923 INTER-LIGAND FREE ENERGY PREDICTED BY IDOCK:   -9.61 KCAL/MOL
REMARK 924 INTRA-LIGAND FREE ENERGY PREDICTED BY IDOCK:   -1.14 KCAL/MOL
REMARK 927      BINDING AFFINITY PREDICTED BY RF-SCORE:    0.00 PKD
ROOT
HETATM    1  C   UNL     1     -10.028  19.034  69.052  1.00  0.00    -0.390 C  
HETATM    2  C   UNL     1      -9.824  17.703  68.343  1.00  0.00    -0.334 C  
ENDROOT
BRANCH   2   3
HETATM    3  N   UNL     1      -9.364  17.793  66.855  1.00  0.00    -0.262 N  
BRANCH   3   4
HETATM    4  C   UNL     1     -10.453  18.506  66.003  1.00  0.00    -0.400 C  
HETATM    5  C   UNL     1     -10.266  19.989  65.805  1.00  0.00    -0.454 C  
ENDBRANCH   3   4
BRANCH   3   6
HETATM    6  C   UNL     1      -9.249  16.378  66.241  1.00  0.00    -0.315 C  
BRANCH   6   7
HETATM    7  C   UNL     1     -10.468  15.531  65.889  1.00  0.00    -0.356 A  
HETATM    8  C   UNL     1     -11.988  13.714  66.544  1.00  0.00    -0.465 A  
HETATM    9  C   UNL     1     -11.168  15.579  64.672  1.00  0.00    -0.381 A  
HETATM   10  C   UNL     1     -10.947  14.604  66.839  1.00  0.00    -0.324 A  
HETATM   11  C   UNL     1     -12.246  14.736  64.395  1.00  0.00    -0.447 A  
HETATM   12 CL   UNL     1     -10.233  14.503  68.412  1.00  0.00    -0.233 Cl 
HETATM   13  C   UNL     1     -12.641  13.785  65.320  1.00  0.00    -0.510 A  
ENDBRANCH   6   7
ENDBRANCH   3   6
BRANCH   3  14
HETATM   14  C   UNL     1      -7.978  18.555  66.878  1.00  0.00    -0.239 C  
BRANCH  14  15
HETATM   15  C   UNL     1      -6.871  17.988  67.832  1.00  0.00    -0.199 C  
BRANCH  15  16
HETATM   16  N   UNL     1      -6.442  16.610  67.637  1.00  0.00    -0.139 N  
HETATM   17  H   UNL     1      -5.931  16.347  66.795  1.00  0.00     0.000 HD 
HETATM   18  C   UNL     1      -6.732  15.656  68.608  1.00  0.00    -0.115 C  
HETATM   19  O   UNL     1      -7.163  15.928  69.716  1.00  0.00    -0.154 OA 
BRANCH  18  20
HETATM   20  C   UNL     1      -6.353  14.203  68.224  1.00  0.00    -0.118 C  
HETATM   21  N   UNL     1      -7.028  13.202  68.924  1.00  0.00    -0.112 N  
HETATM   22  O   UNL     1      -5.525  13.981  67.357  1.00  0.00    -0.342 OA 
HETATM   23  H   UNL     1      -7.471  13.399  69.822  1.00  0.00     0.000 HD 
BRANCH  21  24
HETATM   24  C   UNL     1      -7.084  11.867  68.341  1.00  0.00    -0.086 C  
BRANCH  24  25
HETATM   25  C   UNL     1      -7.746  10.782  69.234  1.00  0.00    -0.129 C  
BRANCH  25  26
HETATM   26  N   UNL     1      -8.979  10.088  68.605  1.00  0.00    -0.131 N  
BRANCH  26  27
HETATM   27  C   UNL     1     -10.272  10.474  69.382  1.00  0.00    -0.221 C  
HETATM   28  C   UNL     1     -11.415  10.995  68.523  1.00  0.00    -0.379 C  
ENDBRANCH  26  27
BRANCH  26  29
HETATM   29  C   UNL     1      -9.060  10.525  67.117  1.00  0.00    -0.143 C  
HETATM   30  C   UNL     1      -9.257   9.400  66.117  1.00  0.00    -0.241 C  
ENDBRANCH  26  29
BRANCH  26  31
HETATM   31  C   UNL     1      -8.829   8.524  68.694  1.00  0.00    -0.136 C  
BRANCH  31  32
HETATM   32  C   UNL     1      -9.594   7.768  69.768  1.00  0.00    -0.167 A  
HETATM   33  C   UNL     1      -9.290   7.959  71.132  1.00  0.00    -0.171 A  
HETATM   34  C   UNL     1      -9.887   7.180  72.129  1.00  0.00    -0.171 A  
HETATM   35  C   UNL     1     -10.786   6.180  71.786  1.00  0.00    -0.303 A  
HETATM   36  C   UNL     1     -11.119   5.983  70.450  1.00  0.00    -0.399 A  
HETATM   37  C   UNL     1     -10.539   6.772  69.450  1.00  0.00    -0.233 A  
HETATM   38 CL   UNL     1     -11.018   6.440  67.824  1.00  0.00    -0.408 Cl 
ENDBRANCH  31  32
ENDBRANCH  26  31
ENDBRANCH  25  26
ENDBRANCH  24  25
ENDBRANCH  21  24
ENDBRANCH  18  20
ENDBRANCH  15  16
ENDBRANCH  14  15
ENDBRANCH   3  14
ENDBRANCH   2   3
TORSDOF 15
ENDMDL
MODEL      204
REMARK 921   NORMALIZED FREE ENERGY PREDICTED BY IDOCK:   -4.31 KCAL/MOL
REMARK 922        TOTAL FREE ENERGY PREDICTED BY IDOCK:  -10.75 KCAL/MOL
REMARK 923 INTER-LIGAND FREE ENERGY PREDICTED BY IDOCK:   -9.75 KCAL/MOL
REMARK 924 INTRA-LIGAND FREE ENERGY PREDICTED BY IDOCK:   -1.00 KCAL/MOL
REMARK 927      BINDING AFFINITY PREDICTED BY RF-SCORE:    0.00 PKD
ROOT
HETATM    1  C   UNL     1      -8.854  15.604  66.243  1.00  0.00    -0.364 C  
HETATM    2  C   UNL     1     -10.013  14.725  65.797  1.00  0.00    -0.347 C  
ENDROOT
BRANCH   2   3
HETATM    3  N   UNL     1     -10.605  13.781  66.889  1.00  0.00    -0.275 N  
BRANCH   3   4
HETATM    4  C   UNL     1     -12.160  13.844  66.861  1.00  0.00    -0.430 C  
HETATM    5  C   UNL     1     -12.794  13.823  65.493  1.00  0.00    -0.464 C  
ENDBRANCH   3   4
BRANCH   3   6
HETATM    6  C   UNL     1     -10.217  14.281  68.300  1.00  0.00    -0.244 C  
BRANCH   6   7
HETATM    7  C   UNL     1     -11.235  14.444  69.425  1.00  0.00    -0.317 A  
HETATM    8  C   UNL     1     -12.269  15.935  71.082  1.00  0.00    -0.447 A  
HETATM    9  C   UNL     1     -11.999  13.409  69.988  1.00  0.00    -0.407 A  
HETATM   10  C   UNL     1     -11.437  15.728  69.974  1.00  0.00    -0.356 A  
HETATM   11  C   UNL     1     -12.876  13.620  71.054  1.00  0.00    -0.360 A  
HETATM   12 CL   UNL     1     -10.627  17.108  69.316  1.00  0.00    -0.299 Cl 
HETATM   13  C   UNL     1     -12.992  14.877  71.619  1.00  0.00    -0.415 A  
ENDBRANCH   6   7
ENDBRANCH   3   6
BRANCH   3  14
HETATM   14  C   UNL     1     -10.024  12.343  66.577  1.00  0.00    -0.230 C  
BRANCH  14  15
HETATM   15  C   UNL     1      -9.042  11.730  67.634  1.00  0.00    -0.177 C  
BRANCH  15  16
HETATM   16  N   UNL     1      -9.599  11.267  68.896  1.00  0.00    -0.360 N  
HETATM   17  H   UNL     1      -9.408  11.777  69.759  1.00  0.00     0.000 HD 
HETATM   18  C   UNL     1     -10.395  10.125  68.920  1.00  0.00    -0.206 C  
HETATM   19  O   UNL     1     -10.823   9.579  67.917  1.00  0.00    -0.245 OA 
BRANCH  18  20
HETATM   20  C   UNL     1     -10.810   9.651  70.335  1.00  0.00    -0.295 C  
HETATM   21  N   UNL     1      -9.951   8.728  70.935  1.00  0.00    -0.205 N  
HETATM   22  O   UNL     1     -11.818  10.082  70.870  1.00  0.00    -0.311 OA 
HETATM   23  H   UNL     1      -9.307   8.171  70.373  1.00  0.00     0.000 HD 
BRANCH  21  24
HETATM   24  C   UNL     1      -9.997   8.580  72.385  1.00  0.00    -0.295 C  
BRANCH  24  25
HETATM   25  C   UNL     1     -10.854   7.393  72.902  1.00  0.00    -0.354 C  
BRANCH  25  26
HETATM   26  N   UNL     1     -10.081   6.063  73.080  1.00  0.00    -0.176 N  
BRANCH  26  27
HETATM   27  C   UNL     1      -9.343   6.045  74.451  1.00  0.00    -0.159 C  
HETATM   28  C   UNL     1      -7.829   6.185  74.375  1.00  0.00    -0.095 C  
ENDBRANCH  26  27
BRANCH  26  29
HETATM   29  C   UNL     1     -11.107   4.902  72.973  1.00  0.00    -0.295 C  
HETATM   30  C   UNL     1     -10.885   3.745  73.931  1.00  0.00    -0.302 C  
ENDBRANCH  26  29
BRANCH  26  31
HETATM   31  C   UNL     1      -8.988   5.914  71.957  1.00  0.00    -0.137 C  
BRANCH  31  32
HETATM   32  C   UNL     1      -8.943   4.637  71.135  1.00  0.00    -0.162 A  
HETATM   33  C   UNL     1      -8.147   3.548  71.548  1.00  0.00    -0.061 A  
HETATM   34  C   UNL     1      -7.985   2.415  70.744  1.00  0.00    -0.052 A  
HETATM   35  C   UNL     1      -8.599   2.351  69.500  1.00  0.00    -0.111 A  
HETATM   36  C   UNL     1      -9.405   3.403  69.076  1.00  0.00    -0.239 A  
HETATM   37  C   UNL     1      -9.585   4.530  69.885  1.00  0.00    -0.199 A  
HETATM   38 CL   UNL     1     -10.602   5.778  69.261  1.00  0.00    -0.356 Cl 
ENDBRANCH  31  32
ENDBRANCH  26  31
ENDBRANCH  25  26
ENDBRANCH  24  25
ENDBRANCH  21  24
ENDBRANCH  18  20
ENDBRANCH  15  16
ENDBRANCH  14  15
ENDBRANCH   3  14
ENDBRANCH   2   3
TORSDOF 15
ENDMDL
MODEL      205
REMARK 921   NORMALIZED FREE ENERGY PREDICTED BY IDOCK:   -4.30 KCAL/MOL
REMARK 922        TOTAL FREE ENERGY PREDICTED BY IDOCK:  -10.74 KCAL/MOL
REMARK 923 INTER-LIGAND FREE ENERGY PREDICTED BY IDOCK:   -9.93 KCAL/MOL
REMARK 924 INTRA-LIGAND FREE ENERGY PREDICTED BY IDOCK:   -0.81 KCAL/MOL
REMARK 927      BINDING AFFINITY PREDICTED BY RF-SCORE:    0.00 PKD
ROOT
HETATM    1  C   UNL     1     -10.743   5.880  67.403  1.00  0.00    -0.370 C  
HETATM    2  C   UNL     1     -10.458   7.363  67.215  1.00  0.00    -0.315 C  
ENDROOT
BRANCH   2   3
HETATM    3  N   UNL     1      -9.060   7.850  67.708  1.00  0.00    -0.134 N  
BRANCH   3   4
HETATM    4  C   UNL     1      -7.961   7.435  66.687  1.00  0.00    -0.121 C  
HETATM    5  C   UNL     1      -8.069   8.056  65.317  1.00  0.00    -0.138 C  
ENDBRANCH   3   4
BRANCH   3   6
HETATM    6  C   UNL     1      -8.670   7.128  69.019  1.00  0.00    -0.132 C  
BRANCH   6   7
HETATM    7  C   UNL     1      -9.411   7.352  70.334  1.00  0.00    -0.161 A  
HETATM    8  C   UNL     1     -10.723   6.371  72.166  1.00  0.00    -0.259 A  
HETATM    9  C   UNL     1      -9.639   8.600  70.937  1.00  0.00    -0.252 A  
HETATM   10  C   UNL     1      -9.935   6.234  71.017  1.00  0.00    -0.182 A  
HETATM   11  C   UNL     1     -10.372   8.739  72.117  1.00  0.00    -0.378 A  
HETATM   12 CL   UNL     1      -9.652   4.630  70.431  1.00  0.00    -0.252 Cl 
HETATM   13  C   UNL     1     -10.937   7.628  72.719  1.00  0.00    -0.432 A  
ENDBRANCH   6   7
ENDBRANCH   3   6
BRANCH   3  14
HETATM   14  C   UNL     1      -9.190   9.415  67.897  1.00  0.00    -0.129 C  
BRANCH  14  15
HETATM   15  C   UNL     1     -10.619  10.035  67.719  1.00  0.00    -0.261 C  
BRANCH  15  16
HETATM   16  N   UNL     1     -10.850  11.378  68.231  1.00  0.00    -0.196 N  
HETATM   17  H   UNL     1     -10.288  12.159  67.893  1.00  0.00     0.000 HD 
HETATM   18  C   UNL     1     -11.842  11.590  69.183  1.00  0.00    -0.340 C  
HETATM   19  O   UNL     1     -12.674  10.752  69.490  1.00  0.00    -0.257 OA 
BRANCH  18  20
HETATM   20  C   UNL     1     -11.897  13.028  69.756  1.00  0.00    -0.311 C  
HETATM   21  N   UNL     1     -10.794  13.833  69.465  1.00  0.00    -0.445 N  
HETATM   22  O   UNL     1     -12.858  13.408  70.404  1.00  0.00    -0.122 OA 
HETATM   23  H   UNL     1      -9.901  13.419  69.197  1.00  0.00     0.000 HD 
BRANCH  21  24
HETATM   24  C   UNL     1     -10.949  15.279  69.555  1.00  0.00    -0.277 C  
BRANCH  24  25
HETATM   25  C   UNL     1     -11.271  15.996  68.216  1.00  0.00    -0.350 C  
BRANCH  25  26
HETATM   26  N   UNL     1     -10.308  15.658  67.051  1.00  0.00    -0.283 N  
BRANCH  26  27
HETATM   27  C   UNL     1      -8.888  15.332  67.600  1.00  0.00    -0.175 C  
HETATM   28  C   UNL     1      -8.262  14.053  67.064  1.00  0.00    -0.078 C  
ENDBRANCH  26  27
BRANCH  26  29
HETATM   29  C   UNL     1     -10.907  14.452  66.276  1.00  0.00    -0.313 C  
HETATM   30  C   UNL     1     -11.274  14.725  64.828  1.00  0.00    -0.392 C  
ENDBRANCH  26  29
BRANCH  26  31
HETATM   31  C   UNL     1     -10.166  16.894  66.087  1.00  0.00    -0.341 C  
BRANCH  31  32
HETATM   32  C   UNL     1      -9.705  18.225  66.655  1.00  0.00    -0.339 A  
HETATM   33  C   UNL     1     -10.644  19.156  67.148  1.00  0.00    -0.564 A  
HETATM   34  C   UNL     1     -10.258  20.438  67.554  1.00  0.00    -0.421 A  
HETATM   35  C   UNL     1      -8.928  20.827  67.458  1.00  0.00    -0.244 A  
HETATM   36  C   UNL     1      -7.979  19.923  66.992  1.00  0.00    -0.336 A  
HETATM   37  C   UNL     1      -8.357  18.634  66.604  1.00  0.00    -0.287 A  
HETATM   38 CL   UNL     1      -7.100  17.594  66.038  1.00  0.00    -0.339 Cl 
ENDBRANCH  31  32
ENDBRANCH  26  31
ENDBRANCH  25  26
ENDBRANCH  24  25
ENDBRANCH  21  24
ENDBRANCH  18  20
ENDBRANCH  15  16
ENDBRANCH  14  15
ENDBRANCH   3  14
ENDBRANCH   2   3
TORSDOF 15
ENDMDL
MODEL      206
REMARK 921   NORMALIZED FREE ENERGY PREDICTED BY IDOCK:   -4.30 KCAL/MOL
REMARK 922        TOTAL FREE ENERGY PREDICTED BY IDOCK:  -10.73 KCAL/MOL
REMARK 923 INTER-LIGAND FREE ENERGY PREDICTED BY IDOCK:   -9.22 KCAL/MOL
REMARK 924 INTRA-LIGAND FREE ENERGY PREDICTED BY IDOCK:   -1.51 KCAL/MOL
REMARK 927      BINDING AFFINITY PREDICTED BY RF-SCORE:    0.00 PKD
ROOT
HETATM    1  C   UNL     1      -6.370  10.289  65.631  1.00  0.00    -0.118 C  
HETATM    2  C   UNL     1      -6.980   9.342  66.654  1.00  0.00    -0.081 C  
ENDROOT
BRANCH   2   3
HETATM    3  N   UNL     1      -8.415   9.709  67.144  1.00  0.00    -0.131 N  
BRANCH   3   4
HETATM    4  C   UNL     1      -8.811   8.810  68.351  1.00  0.00    -0.138 C  
HETATM    5  C   UNL     1     -10.289   8.694  68.625  1.00  0.00    -0.219 C  
ENDBRANCH   3   4
BRANCH   3   6
HETATM    6  C   UNL     1      -9.457   9.380  66.050  1.00  0.00    -0.241 C  
BRANCH   6   7
HETATM    7  C   UNL     1     -10.118  10.455  65.192  1.00  0.00    -0.379 A  
HETATM    8  C   UNL     1     -10.247  11.575  63.008  1.00  0.00    -0.312 A  
HETATM    9  C   UNL     1     -11.056  11.397  65.648  1.00  0.00    -0.207 A  
HETATM   10  C   UNL     1      -9.769  10.545  63.828  1.00  0.00    -0.326 A  
HETATM   11  C   UNL     1     -11.583  12.390  64.820  1.00  0.00    -0.395 A  
HETATM   12 CL   UNL     1      -8.693   9.392  63.115  1.00  0.00    -0.225 Cl 
HETATM   13  C   UNL     1     -11.160  12.496  63.507  1.00  0.00    -0.497 A  
ENDBRANCH   6   7
ENDBRANCH   3   6
BRANCH   3  14
HETATM   14  C   UNL     1      -8.371  11.252  67.491  1.00  0.00    -0.131 C  
BRANCH  14  15
HETATM   15  C   UNL     1      -7.262  11.722  68.496  1.00  0.00    -0.095 C  
BRANCH  15  16
HETATM   16  N   UNL     1      -7.078  13.152  68.691  1.00  0.00    -0.100 N  
HETATM   17  H   UNL     1      -7.712  13.673  69.297  1.00  0.00     0.000 HD 
HETATM   18  C   UNL     1      -6.032  13.806  68.045  1.00  0.00    -0.135 C  
HETATM   19  O   UNL     1      -5.129  13.227  67.466  1.00  0.00    -0.282 OA 
BRANCH  18  20
HETATM   20  C   UNL     1      -6.025  15.346  68.215  1.00  0.00    -0.119 C  
HETATM   21  N   UNL     1      -6.579  16.068  67.156  1.00  0.00    -0.182 N  
HETATM   22  O   UNL     1      -5.570  15.863  69.221  1.00  0.00    -0.110 OA 
HETATM   23  H   UNL     1      -6.669  15.652  66.229  1.00  0.00     0.000 HD 
BRANCH  21  24
HETATM   24  C   UNL     1      -7.025  17.433  67.408  1.00  0.00    -0.164 C  
BRANCH  24  25
HETATM   25  C   UNL     1      -8.277  17.564  68.319  1.00  0.00    -0.263 C  
BRANCH  25  26
HETATM   26  N   UNL     1      -9.552  16.880  67.770  1.00  0.00    -0.246 N  
BRANCH  26  27
HETATM   27  C   UNL     1     -10.794  17.793  67.990  1.00  0.00    -0.207 C  
HETATM   28  C   UNL     1     -10.786  19.100  67.209  1.00  0.00    -0.529 C  
ENDBRANCH  26  27
BRANCH  26  29
HETATM   29  C   UNL     1      -9.322  16.590  66.261  1.00  0.00    -0.302 C  
HETATM   30  C   UNL     1     -10.293  15.608  65.629  1.00  0.00    -0.408 C  
ENDBRANCH  26  29
BRANCH  26  31
HETATM   31  C   UNL     1      -9.820  15.531  68.536  1.00  0.00    -0.202 C  
BRANCH  31  32
HETATM   32  C   UNL     1     -10.940  15.474  69.561  1.00  0.00    -0.273 A  
HETATM   33  C   UNL     1     -10.914  16.310  70.698  1.00  0.00    -0.179 A  
HETATM   34  C   UNL     1     -11.861  16.184  71.719  1.00  0.00    -0.581 A  
HETATM   35  C   UNL     1     -12.845  15.208  71.639  1.00  0.00    -0.439 A  
HETATM   36  C   UNL     1     -12.907  14.383  70.520  1.00  0.00    -0.353 A  
HETATM   37  C   UNL     1     -11.973  14.518  69.487  1.00  0.00    -0.319 A  
HETATM   38 CL   UNL     1     -12.137  13.441  68.148  1.00  0.00    -0.337 Cl 
ENDBRANCH  31  32
ENDBRANCH  26  31
ENDBRANCH  25  26
ENDBRANCH  24  25
ENDBRANCH  21  24
ENDBRANCH  18  20
ENDBRANCH  15  16
ENDBRANCH  14  15
ENDBRANCH   3  14
ENDBRANCH   2   3
TORSDOF 15
ENDMDL
MODEL      207
REMARK 921   NORMALIZED FREE ENERGY PREDICTED BY IDOCK:   -4.27 KCAL/MOL
REMARK 922        TOTAL FREE ENERGY PREDICTED BY IDOCK:  -10.67 KCAL/MOL
REMARK 923 INTER-LIGAND FREE ENERGY PREDICTED BY IDOCK:   -9.08 KCAL/MOL
REMARK 924 INTRA-LIGAND FREE ENERGY PREDICTED BY IDOCK:   -1.59 KCAL/MOL
REMARK 927      BINDING AFFINITY PREDICTED BY RF-SCORE:    0.00 PKD
ROOT
HETATM    1  C   UNL     1      -6.750   7.468  70.321  1.00  0.00    -0.047 C  
HETATM    2  C   UNL     1      -8.216   7.074  70.222  1.00  0.00    -0.128 C  
ENDROOT
BRANCH   2   3
HETATM    3  N   UNL     1      -9.007   7.067  71.567  1.00  0.00    -0.139 N  
BRANCH   3   4
HETATM    4  C   UNL     1      -8.636   8.323  72.408  1.00  0.00    -0.206 C  
HETATM    5  C   UNL     1      -8.088   8.051  73.786  1.00  0.00    -0.279 C  
ENDBRANCH   3   4
BRANCH   3   6
HETATM    6  C   UNL     1      -8.573   5.867  72.440  1.00  0.00    -0.120 C  
BRANCH   6   7
HETATM    7  C   UNL     1      -9.161   4.469  72.269  1.00  0.00    -0.149 A  
HETATM    8  C   UNL     1     -10.630   2.715  73.166  1.00  0.00    -0.260 A  
HETATM    9  C   UNL     1      -8.807   3.555  71.263  1.00  0.00    -0.137 A  
HETATM   10  C   UNL     1     -10.131   4.024  73.191  1.00  0.00    -0.144 A  
HETATM   11  C   UNL     1      -9.346   2.269  71.196  1.00  0.00    -0.204 A  
HETATM   12 CL   UNL     1     -10.723   5.079  74.428  1.00  0.00    -0.254 Cl 
HETATM   13  C   UNL     1     -10.238   1.839  72.161  1.00  0.00    -0.227 A  
ENDBRANCH   6   7
ENDBRANCH   3   6
BRANCH   3  14
HETATM   14  C   UNL     1     -10.537   7.002  71.168  1.00  0.00    -0.217 C  
BRANCH  14  15
HETATM   15  C   UNL     1     -10.921   7.529  69.742  1.00  0.00    -0.184 C  
BRANCH  15  16
HETATM   16  N   UNL     1     -11.089   8.964  69.567  1.00  0.00    -0.432 N  
HETATM   17  H   UNL     1     -11.585   9.513  70.270  1.00  0.00     0.000 HD 
HETATM   18  C   UNL     1     -10.568   9.585  68.435  1.00  0.00    -0.219 C  
HETATM   19  O   UNL     1      -9.805   9.039  67.656  1.00  0.00    -0.157 OA 
BRANCH  18  20
HETATM   20  C   UNL     1     -10.933  11.083  68.289  1.00  0.00    -0.235 C  
HETATM   21  N   UNL     1      -9.992  11.982  68.793  1.00  0.00    -0.395 N  
HETATM   22  O   UNL     1     -11.975  11.425  67.755  1.00  0.00    -0.637 OA 
HETATM   23  H   UNL     1      -9.301  11.685  69.483  1.00  0.00     0.000 HD 
BRANCH  21  24
HETATM   24  C   UNL     1     -10.019  13.358  68.310  1.00  0.00    -0.240 C  
BRANCH  24  25
HETATM   25  C   UNL     1      -8.707  13.851  67.641  1.00  0.00    -0.187 C  
BRANCH  25  26
HETATM   26  N   UNL     1      -8.234  15.253  68.096  1.00  0.00    -0.138 N  
BRANCH  26  27
HETATM   27  C   UNL     1      -7.343  15.137  69.368  1.00  0.00    -0.203 C  
HETATM   28  C   UNL     1      -6.427  13.922  69.411  1.00  0.00    -0.119 C  
ENDBRANCH  26  27
BRANCH  26  29
HETATM   29  C   UNL     1      -7.457  15.897  66.915  1.00  0.00    -0.198 C  
HETATM   30  C   UNL     1      -6.263  16.748  67.308  1.00  0.00    -0.207 C  
ENDBRANCH  26  29
BRANCH  26  31
HETATM   31  C   UNL     1      -9.472  16.150  68.471  1.00  0.00    -0.216 C  
BRANCH  31  32
HETATM   32  C   UNL     1      -9.693  17.454  67.723  1.00  0.00    -0.268 A  
HETATM   33  C   UNL     1      -9.387  18.689  68.332  1.00  0.00    -0.369 A  
HETATM   34  C   UNL     1      -9.703  19.906  67.717  1.00  0.00    -0.516 A  
HETATM   35  C   UNL     1     -10.350  19.916  66.489  1.00  0.00    -0.608 A  
HETATM   36  C   UNL     1     -10.647  18.713  65.857  1.00  0.00    -0.365 A  
HETATM   37  C   UNL     1     -10.315  17.495  66.459  1.00  0.00    -0.325 A  
HETATM   38 CL   UNL     1     -10.732  16.061  65.591  1.00  0.00    -0.355 Cl 
ENDBRANCH  31  32
ENDBRANCH  26  31
ENDBRANCH  25  26
ENDBRANCH  24  25
ENDBRANCH  21  24
ENDBRANCH  18  20
ENDBRANCH  15  16
ENDBRANCH  14  15
ENDBRANCH   3  14
ENDBRANCH   2   3
TORSDOF 15
ENDMDL
MODEL      208
REMARK 921   NORMALIZED FREE ENERGY PREDICTED BY IDOCK:   -4.27 KCAL/MOL
REMARK 922        TOTAL FREE ENERGY PREDICTED BY IDOCK:  -10.66 KCAL/MOL
REMARK 923 INTER-LIGAND FREE ENERGY PREDICTED BY IDOCK:   -9.83 KCAL/MOL
REMARK 924 INTRA-LIGAND FREE ENERGY PREDICTED BY IDOCK:   -0.83 KCAL/MOL
REMARK 927      BINDING AFFINITY PREDICTED BY RF-SCORE:    0.00 PKD
ROOT
HETATM    1  C   UNL     1      -7.512   8.713  71.080  1.00  0.00    -0.093 C  
HETATM    2  C   UNL     1      -8.739   9.069  70.253  1.00  0.00    -0.184 C  
ENDROOT
BRANCH   2   3
HETATM    3  N   UNL     1     -10.039   8.281  70.599  1.00  0.00    -0.190 N  
BRANCH   3   4
HETATM    4  C   UNL     1     -11.056   9.217  71.314  1.00  0.00    -0.357 C  
HETATM    5  C   UNL     1     -12.074   8.534  72.191  1.00  0.00    -0.449 C  
ENDBRANCH   3   4
BRANCH   3   6
HETATM    6  C   UNL     1      -9.736   7.169  71.631  1.00  0.00    -0.159 C  
BRANCH   6   7
HETATM    7  C   UNL     1      -9.623   5.697  71.247  1.00  0.00    -0.198 A  
HETATM    8  C   UNL     1     -10.068   3.357  71.854  1.00  0.00    -0.156 A  
HETATM    9  C   UNL     1      -8.946   5.199  70.122  1.00  0.00    -0.151 A  
HETATM   10  C   UNL     1     -10.226   4.731  72.080  1.00  0.00    -0.195 A  
HETATM   11  C   UNL     1      -8.836   3.833  69.858  1.00  0.00    -0.147 A  
HETATM   12 CL   UNL     1     -11.167   5.210  73.451  1.00  0.00    -0.378 Cl 
HETATM   13  C   UNL     1      -9.374   2.910  70.737  1.00  0.00    -0.222 A  
ENDBRANCH   6   7
ENDBRANCH   3   6
BRANCH   3  14
HETATM   14  C   UNL     1     -10.570   7.700  69.226  1.00  0.00    -0.201 C  
BRANCH  14  15
HETATM   15  C   UNL     1     -10.492   8.647  67.979  1.00  0.00    -0.197 C  
BRANCH  15  16
HETATM   16  N   UNL     1     -11.207   9.914  68.037  1.00  0.00    -0.521 N  
HETATM   17  H   UNL     1     -12.098   9.978  68.528  1.00  0.00     0.000 HD 
HETATM   18  C   UNL     1     -10.666  11.038  67.419  1.00  0.00    -0.257 C  
HETATM   19  O   UNL     1      -9.528  11.087  66.983  1.00  0.00    -0.170 OA 
BRANCH  18  20
HETATM   20  C   UNL     1     -11.582  12.287  67.425  1.00  0.00    -0.355 C  
HETATM   21  N   UNL     1     -11.663  12.966  68.642  1.00  0.00    -0.306 N  
HETATM   22  O   UNL     1     -12.171  12.636  66.416  1.00  0.00    -0.550 OA 
HETATM   23  H   UNL     1     -11.419  12.502  69.517  1.00  0.00     0.000 HD 
BRANCH  21  24
HETATM   24  C   UNL     1     -12.107  14.354  68.633  1.00  0.00    -0.239 C  
BRANCH  24  25
HETATM   25  C   UNL     1     -11.505  15.234  67.503  1.00  0.00    -0.265 C  
BRANCH  25  26
HETATM   26  N   UNL     1     -10.175  15.938  67.869  1.00  0.00    -0.246 N  
BRANCH  26  27
HETATM   27  C   UNL     1      -9.587  15.338  69.180  1.00  0.00    -0.243 C  
HETATM   28  C   UNL     1      -8.143  14.864  69.087  1.00  0.00    -0.160 C  
ENDBRANCH  26  27
BRANCH  26  29
HETATM   29  C   UNL     1      -9.200  15.756  66.674  1.00  0.00    -0.255 C  
HETATM   30  C   UNL     1      -9.808  15.148  65.422  1.00  0.00    -0.309 C  
ENDBRANCH  26  29
BRANCH  26  31
HETATM   31  C   UNL     1     -10.423  17.471  68.125  1.00  0.00    -0.386 C  
BRANCH  31  32
HETATM   32  C   UNL     1      -9.330  18.466  67.770  1.00  0.00    -0.283 A  
HETATM   33  C   UNL     1      -8.206  18.622  68.608  1.00  0.00    -0.348 A  
HETATM   34  C   UNL     1      -7.254  19.620  68.374  1.00  0.00    -0.355 A  
HETATM   35  C   UNL     1      -7.414  20.498  67.311  1.00  0.00    -0.384 A  
HETATM   36  C   UNL     1      -8.503  20.355  66.458  1.00  0.00    -0.188 A  
HETATM   37  C   UNL     1      -9.447  19.346  66.676  1.00  0.00    -0.350 A  
HETATM   38 CL   UNL     1     -10.763  19.261  65.561  1.00  0.00    -0.387 Cl 
ENDBRANCH  31  32
ENDBRANCH  26  31
ENDBRANCH  25  26
ENDBRANCH  24  25
ENDBRANCH  21  24
ENDBRANCH  18  20
ENDBRANCH  15  16
ENDBRANCH  14  15
ENDBRANCH   3  14
ENDBRANCH   2   3
TORSDOF 15
ENDMDL
MODEL      209
REMARK 921   NORMALIZED FREE ENERGY PREDICTED BY IDOCK:   -4.26 KCAL/MOL
REMARK 922        TOTAL FREE ENERGY PREDICTED BY IDOCK:  -10.65 KCAL/MOL
REMARK 923 INTER-LIGAND FREE ENERGY PREDICTED BY IDOCK:   -8.96 KCAL/MOL
REMARK 924 INTRA-LIGAND FREE ENERGY PREDICTED BY IDOCK:   -1.69 KCAL/MOL
REMARK 927      BINDING AFFINITY PREDICTED BY RF-SCORE:    0.00 PKD
ROOT
HETATM    1  C   UNL     1     -12.466  12.942  65.205  1.00  0.00    -0.561 C  
HETATM    2  C   UNL     1     -12.137  14.303  65.799  1.00  0.00    -0.405 C  
ENDROOT
BRANCH   2   3
HETATM    3  N   UNL     1     -10.881  14.352  66.723  1.00  0.00    -0.297 N  
BRANCH   3   4
HETATM    4  C   UNL     1     -11.273  14.897  68.127  1.00  0.00    -0.299 C  
HETATM    5  C   UNL     1     -11.979  13.923  69.036  1.00  0.00    -0.402 C  
ENDBRANCH   3   4
BRANCH   3   6
HETATM    6  C   UNL     1      -9.853  15.372  66.179  1.00  0.00    -0.311 C  
BRANCH   6   7
HETATM    7  C   UNL     1      -9.251  16.475  67.044  1.00  0.00    -0.233 A  
HETATM    8  C   UNL     1      -9.051  18.884  67.487  1.00  0.00    -0.307 A  
HETATM    9  C   UNL     1      -8.306  16.284  68.067  1.00  0.00    -0.165 A  
HETATM   10  C   UNL     1      -9.644  17.810  66.812  1.00  0.00    -0.300 A  
HETATM   11  C   UNL     1      -7.756  17.346  68.786  1.00  0.00    -0.258 A  
HETATM   12 CL   UNL     1     -10.865  18.179  65.642  1.00  0.00    -0.142 Cl 
HETATM   13  C   UNL     1      -8.107  18.648  68.479  1.00  0.00    -0.370 A  
ENDBRANCH   6   7
ENDBRANCH   3   6
BRANCH   3  14
HETATM   14  C   UNL     1     -10.310  12.877  66.754  1.00  0.00    -0.245 C  
BRANCH  14  15
HETATM   15  C   UNL     1      -8.884  12.681  67.374  1.00  0.00    -0.189 C  
BRANCH  15  16
HETATM   16  N   UNL     1      -8.773  11.908  68.603  1.00  0.00    -0.337 N  
HETATM   17  H   UNL     1      -9.199  12.250  69.464  1.00  0.00     0.000 HD 
HETATM   18  C   UNL     1      -8.084  10.699  68.595  1.00  0.00    -0.132 C  
HETATM   19  O   UNL     1      -7.718  10.136  67.577  1.00  0.00    -0.091 OA 
BRANCH  18  20
HETATM   20  C   UNL     1      -7.910  10.041  69.987  1.00  0.00    -0.158 C  
HETATM   21  N   UNL     1      -9.093   9.792  70.685  1.00  0.00    -0.293 N  
HETATM   22  O   UNL     1      -6.803   9.761  70.413  1.00  0.00    -0.105 OA 
HETATM   23  H   UNL     1      -9.952  10.294  70.455  1.00  0.00     0.000 HD 
BRANCH  21  24
HETATM   24  C   UNL     1      -9.073   8.797  71.751  1.00  0.00    -0.235 C  
BRANCH  24  25
HETATM   25  C   UNL     1     -10.401   8.018  71.954  1.00  0.00    -0.223 C  
BRANCH  25  26
HETATM   26  N   UNL     1     -10.337   6.519  71.575  1.00  0.00    -0.209 N  
BRANCH  26  27
HETATM   27  C   UNL     1      -9.929   5.664  72.810  1.00  0.00    -0.173 C  
HETATM   28  C   UNL     1     -11.055   4.856  73.442  1.00  0.00    -0.415 C  
ENDBRANCH  26  27
BRANCH  26  29
HETATM   29  C   UNL     1     -11.736   6.107  71.037  1.00  0.00    -0.118 C  
HETATM   30  C   UNL     1     -12.827   7.152  71.192  1.00  0.00    -0.340 C  
ENDBRANCH  26  29
BRANCH  26  31
HETATM   31  C   UNL     1      -9.249   6.284  70.462  1.00  0.00    -0.158 C  
BRANCH  31  32
HETATM   32  C   UNL     1      -9.652   5.602  69.166  1.00  0.00    -0.176 A  
HETATM   33  C   UNL     1      -9.388   4.230  68.967  1.00  0.00    -0.226 A  
HETATM   34  C   UNL     1      -9.629   3.611  67.736  1.00  0.00    -0.189 A  
HETATM   35  C   UNL     1     -10.121   4.351  66.669  1.00  0.00    -0.197 A  
HETATM   36  C   UNL     1     -10.408   5.701  66.843  1.00  0.00    -0.312 A  
HETATM   37  C   UNL     1     -10.187   6.320  68.078  1.00  0.00    -0.172 A  
HETATM   38 CL   UNL     1     -10.573   8.000  68.184  1.00  0.00    -0.216 Cl 
ENDBRANCH  31  32
ENDBRANCH  26  31
ENDBRANCH  25  26
ENDBRANCH  24  25
ENDBRANCH  21  24
ENDBRANCH  18  20
ENDBRANCH  15  16
ENDBRANCH  14  15
ENDBRANCH   3  14
ENDBRANCH   2   3
TORSDOF 15
ENDMDL
MODEL      210
REMARK 921   NORMALIZED FREE ENERGY PREDICTED BY IDOCK:   -4.25 KCAL/MOL
REMARK 922        TOTAL FREE ENERGY PREDICTED BY IDOCK:  -10.64 KCAL/MOL
REMARK 923 INTER-LIGAND FREE ENERGY PREDICTED BY IDOCK:   -9.09 KCAL/MOL
REMARK 924 INTRA-LIGAND FREE ENERGY PREDICTED BY IDOCK:   -1.55 KCAL/MOL
REMARK 927      BINDING AFFINITY PREDICTED BY RF-SCORE:    0.00 PKD
ROOT
HETATM    1  C   UNL     1      -8.875   7.135  74.397  1.00  0.00    -0.238 C  
HETATM    2  C   UNL     1      -9.381   7.308  72.973  1.00  0.00    -0.162 C  
ENDROOT
BRANCH   2   3
HETATM    3  N   UNL     1      -9.894   6.010  72.275  1.00  0.00    -0.160 N  
BRANCH   3   4
HETATM    4  C   UNL     1     -11.211   5.528  72.950  1.00  0.00    -0.305 C  
HETATM    5  C   UNL     1     -11.203   4.113  73.469  1.00  0.00    -0.341 C  
ENDBRANCH   3   4
BRANCH   3   6
HETATM    6  C   UNL     1      -8.894   4.851  72.494  1.00  0.00    -0.122 C  
BRANCH   6   7
HETATM    7  C   UNL     1      -7.799   4.507  71.488  1.00  0.00    -0.087 A  
HETATM    8  C   UNL     1      -6.992   2.970  69.748  1.00  0.00    -0.034 A  
HETATM    9  C   UNL     1      -6.576   5.185  71.353  1.00  0.00    -0.036 A  
HETATM   10  C   UNL     1      -7.997   3.414  70.618  1.00  0.00    -0.053 A  
HETATM   11  C   UNL     1      -5.594   4.784  70.445  1.00  0.00    -0.015 A  
HETATM   12 CL   UNL     1      -9.494   2.546  70.616  1.00  0.00    -0.211 Cl 
HETATM   13  C   UNL     1      -5.790   3.661  69.661  1.00  0.00    -0.018 A  
ENDBRANCH   6   7
ENDBRANCH   3   6
BRANCH   3  14
HETATM   14  C   UNL     1     -10.065   6.380  70.746  1.00  0.00    -0.187 C  
BRANCH  14  15
HETATM   15  C   UNL     1      -9.277   7.633  70.228  1.00  0.00    -0.157 C  
BRANCH  15  16
HETATM   16  N   UNL     1     -10.002   8.614  69.433  1.00  0.00    -0.192 N  
HETATM   17  H   UNL     1     -10.017   8.540  68.416  1.00  0.00     0.000 HD 
HETATM   18  C   UNL     1     -10.673   9.654  70.069  1.00  0.00    -0.259 C  
HETATM   19  O   UNL     1     -10.861   9.701  71.273  1.00  0.00    -0.350 OA 
BRANCH  18  20
HETATM   20  C   UNL     1     -11.284  10.713  69.117  1.00  0.00    -0.265 C  
HETATM   21  N   UNL     1     -11.384  12.003  69.639  1.00  0.00    -0.461 N  
HETATM   22  O   UNL     1     -11.633  10.411  67.988  1.00  0.00    -0.392 OA 
HETATM   23  H   UNL     1     -11.373  12.163  70.646  1.00  0.00     0.000 HD 
BRANCH  21  24
HETATM   24  C   UNL     1     -11.506  13.119  68.708  1.00  0.00    -0.307 C  
BRANCH  24  25
HETATM   25  C   UNL     1     -10.230  13.990  68.549  1.00  0.00    -0.237 C  
BRANCH  25  26
HETATM   26  N   UNL     1     -10.498  15.482  68.230  1.00  0.00    -0.238 N  
BRANCH  26  27
HETATM   27  C   UNL     1     -10.832  15.661  66.720  1.00  0.00    -0.277 C  
HETATM   28  C   UNL     1      -9.961  14.860  65.762  1.00  0.00    -0.376 C  
ENDBRANCH  26  27
BRANCH  26  29
HETATM   29  C   UNL     1     -11.673  15.954  69.131  1.00  0.00    -0.363 C  
HETATM   30  C   UNL     1     -11.356  16.061  70.612  1.00  0.00    -0.424 C  
ENDBRANCH  26  29
BRANCH  26  31
HETATM   31  C   UNL     1      -9.216  16.342  68.532  1.00  0.00    -0.226 C  
BRANCH  31  32
HETATM   32  C   UNL     1      -9.125  17.754  67.976  1.00  0.00    -0.269 A  
HETATM   33  C   UNL     1     -10.039  18.746  68.391  1.00  0.00    -0.443 A  
HETATM   34  C   UNL     1     -10.061  20.013  67.798  1.00  0.00    -0.563 A  
HETATM   35  C   UNL     1      -9.183  20.312  66.765  1.00  0.00    -0.452 A  
HETATM   36  C   UNL     1      -8.258  19.359  66.349  1.00  0.00    -0.335 A  
HETATM   37  C   UNL     1      -8.221  18.097  66.952  1.00  0.00    -0.243 A  
HETATM   38 CL   UNL     1      -7.038  16.989  66.357  1.00  0.00    -0.295 Cl 
ENDBRANCH  31  32
ENDBRANCH  26  31
ENDBRANCH  25  26
ENDBRANCH  24  25
ENDBRANCH  21  24
ENDBRANCH  18  20
ENDBRANCH  15  16
ENDBRANCH  14  15
ENDBRANCH   3  14
ENDBRANCH   2   3
TORSDOF 15
ENDMDL
MODEL      211
REMARK 921   NORMALIZED FREE ENERGY PREDICTED BY IDOCK:   -4.24 KCAL/MOL
REMARK 922        TOTAL FREE ENERGY PREDICTED BY IDOCK:  -10.62 KCAL/MOL
REMARK 923 INTER-LIGAND FREE ENERGY PREDICTED BY IDOCK:   -9.44 KCAL/MOL
REMARK 924 INTRA-LIGAND FREE ENERGY PREDICTED BY IDOCK:   -1.19 KCAL/MOL
REMARK 927      BINDING AFFINITY PREDICTED BY RF-SCORE:    0.00 PKD
ROOT
HETATM    1  C   UNL     1     -11.050   1.984  73.417  1.00  0.00    -0.295 C  
HETATM    2  C   UNL     1     -10.610   3.324  73.987  1.00  0.00    -0.197 C  
ENDROOT
BRANCH   2   3
HETATM    3  N   UNL     1     -10.248   4.420  72.937  1.00  0.00    -0.165 N  
BRANCH   3   4
HETATM    4  C   UNL     1      -8.878   5.067  73.292  1.00  0.00    -0.114 C  
HETATM    5  C   UNL     1      -7.830   4.128  73.834  1.00  0.00    -0.084 C  
ENDBRANCH   3   4
BRANCH   3   6
HETATM    6  C   UNL     1     -11.262   5.586  73.005  1.00  0.00    -0.293 C  
BRANCH   6   7
HETATM    7  C   UNL     1     -10.985   6.955  72.391  1.00  0.00    -0.280 A  
HETATM    8  C   UNL     1     -11.821   8.824  71.032  1.00  0.00    -0.315 A  
HETATM    9  C   UNL     1      -9.752   7.627  72.423  1.00  0.00    -0.231 A  
HETATM   10  C   UNL     1     -12.031   7.620  71.717  1.00  0.00    -0.299 A  
HETATM   11  C   UNL     1      -9.552   8.857  71.795  1.00  0.00    -0.353 A  
HETATM   12 CL   UNL     1     -13.625   6.947  71.677  1.00  0.00    -0.347 Cl 
HETATM   13  C   UNL     1     -10.579   9.445  71.077  1.00  0.00    -0.400 A  
ENDBRANCH   6   7
ENDBRANCH   3   6
BRANCH   3  14
HETATM   14  C   UNL     1     -10.259   3.692  71.532  1.00  0.00     0.085 C  
BRANCH  14  15
HETATM   15  C   UNL     1      -9.472   4.386  70.367  1.00  0.00    -0.175 C  
BRANCH  15  16
HETATM   16  N   UNL     1     -10.186   5.345  69.537  1.00  0.00    -0.243 N  
HETATM   17  H   UNL     1     -11.201   5.426  69.603  1.00  0.00     0.000 HD 
HETATM   18  C   UNL     1      -9.476   6.152  68.653  1.00  0.00    -0.124 C  
HETATM   19  O   UNL     1      -8.260   6.250  68.655  1.00  0.00    -0.111 OA 
BRANCH  18  20
HETATM   20  C   UNL     1     -10.354   7.027  67.723  1.00  0.00    -0.202 C  
HETATM   21  N   UNL     1     -10.167   8.405  67.843  1.00  0.00    -0.207 N  
HETATM   22  O   UNL     1     -11.139   6.517  66.941  1.00  0.00    -0.399 OA 
HETATM   23  H   UNL     1      -9.748   8.805  68.683  1.00  0.00     0.000 HD 
BRANCH  21  24
HETATM   24  C   UNL     1     -10.585   9.260  66.738  1.00  0.00    -0.137 C  
BRANCH  24  25
HETATM   25  C   UNL     1     -11.012  10.698  67.138  1.00  0.00    -0.247 C  
BRANCH  25  26
HETATM   26  N   UNL     1     -10.673  11.790  66.094  1.00  0.00    -0.267 N  
BRANCH  26  27
HETATM   27  C   UNL     1      -9.336  12.497  66.464  1.00  0.00    -0.233 C  
HETATM   28  C   UNL     1      -8.817  12.212  67.867  1.00  0.00    -0.177 C  
ENDBRANCH  26  27
BRANCH  26  29
HETATM   29  C   UNL     1     -10.585  11.103  64.703  1.00  0.00    -0.318 C  
HETATM   30  C   UNL     1     -11.171  11.894  63.547  1.00  0.00    -0.501 C  
ENDBRANCH  26  29
BRANCH  26  31
HETATM   31  C   UNL     1     -11.797  12.892  66.074  1.00  0.00    -0.430 C  
BRANCH  31  32
HETATM   32  C   UNL     1     -11.427  14.330  66.397  1.00  0.00    -0.361 A  
HETATM   33  C   UNL     1     -11.026  15.213  65.372  1.00  0.00    -0.381 A  
HETATM   34  C   UNL     1     -10.556  16.499  65.659  1.00  0.00    -0.317 A  
HETATM   35  C   UNL     1     -10.456  16.926  66.976  1.00  0.00    -0.281 A  
HETATM   36  C   UNL     1     -10.862  16.082  68.005  1.00  0.00    -0.335 A  
HETATM   37  C   UNL     1     -11.351  14.802  67.722  1.00  0.00    -0.330 A  
HETATM   38 CL   UNL     1     -11.823  13.836  69.074  1.00  0.00    -0.374 Cl 
ENDBRANCH  31  32
ENDBRANCH  26  31
ENDBRANCH  25  26
ENDBRANCH  24  25
ENDBRANCH  21  24
ENDBRANCH  18  20
ENDBRANCH  15  16
ENDBRANCH  14  15
ENDBRANCH   3  14
ENDBRANCH   2   3
TORSDOF 15
ENDMDL
MODEL      212
REMARK 921   NORMALIZED FREE ENERGY PREDICTED BY IDOCK:   -4.24 KCAL/MOL
REMARK 922        TOTAL FREE ENERGY PREDICTED BY IDOCK:  -10.62 KCAL/MOL
REMARK 923 INTER-LIGAND FREE ENERGY PREDICTED BY IDOCK:   -9.76 KCAL/MOL
REMARK 924 INTRA-LIGAND FREE ENERGY PREDICTED BY IDOCK:   -0.87 KCAL/MOL
REMARK 927      BINDING AFFINITY PREDICTED BY RF-SCORE:    0.00 PKD
ROOT
HETATM    1  C   UNL     1     -10.301  19.367  65.774  1.00  0.00    -0.431 C  
HETATM    2  C   UNL     1     -10.656  18.237  66.729  1.00  0.00    -0.312 C  
ENDROOT
BRANCH   2   3
HETATM    3  N   UNL     1      -9.697  18.054  67.946  1.00  0.00    -0.287 N  
BRANCH   3   4
HETATM    4  C   UNL     1      -9.878  19.230  68.949  1.00  0.00    -0.446 C  
HETATM    5  C   UNL     1     -10.599  20.442  68.415  1.00  0.00    -0.004 C  
ENDBRANCH   3   4
BRANCH   3   6
HETATM    6  C   UNL     1      -8.222  18.151  67.488  1.00  0.00    -0.236 C  
BRANCH   6   7
HETATM    7  C   UNL     1      -7.145  18.836  68.323  1.00  0.00    -0.278 A  
HETATM    8  C   UNL     1      -5.529  18.661  70.166  1.00  0.00    -0.232 A  
HETATM    9  C   UNL     1      -6.781  20.190  68.231  1.00  0.00    -0.336 A  
HETATM   10  C   UNL     1      -6.448  18.076  69.287  1.00  0.00    -0.246 A  
HETATM   11  C   UNL     1      -5.821  20.766  69.064  1.00  0.00    -0.377 A  
HETATM   12 CL   UNL     1      -6.734  16.377  69.446  1.00  0.00    -0.211 Cl 
HETATM   13  C   UNL     1      -5.212  20.009  70.050  1.00  0.00    -0.250 A  
ENDBRANCH   6   7
ENDBRANCH   3   6
BRANCH   3  14
HETATM   14  C   UNL     1     -10.045  16.638  68.561  1.00  0.00    -0.266 C  
BRANCH  14  15
HETATM   15  C   UNL     1      -9.870  15.394  67.622  1.00  0.00    -0.220 C  
BRANCH  15  16
HETATM   16  N   UNL     1     -10.239  14.087  68.145  1.00  0.00    -0.237 N  
HETATM   17  H   UNL     1      -9.613  13.593  68.781  1.00  0.00     0.000 HD 
HETATM   18  C   UNL     1     -11.452  13.514  67.771  1.00  0.00    -0.315 C  
HETATM   19  O   UNL     1     -12.329  14.118  67.177  1.00  0.00    -0.370 OA 
BRANCH  18  20
HETATM   20  C   UNL     1     -11.668  12.065  68.274  1.00  0.00    -0.334 C  
HETATM   21  N   UNL     1     -11.691  11.908  69.661  1.00  0.00    -0.326 N  
HETATM   22  O   UNL     1     -11.818  11.145  67.487  1.00  0.00    -0.591 OA 
HETATM   23  H   UNL     1     -11.274  12.609  70.274  1.00  0.00     0.000 HD 
BRANCH  21  24
HETATM   24  C   UNL     1     -12.325  10.716  70.213  1.00  0.00    -0.325 C  
BRANCH  24  25
HETATM   25  C   UNL     1     -11.705  10.189  71.535  1.00  0.00    -0.209 C  
BRANCH  25  26
HETATM   26  N   UNL     1     -11.657   8.646  71.659  1.00  0.00    -0.288 N  
BRANCH  26  27
HETATM   27  C   UNL     1     -10.418   8.208  72.494  1.00  0.00    -0.339 C  
HETATM   28  C   UNL     1     -10.595   6.925  73.295  1.00  0.00    -0.353 C  
ENDBRANCH  26  27
BRANCH  26  29
HETATM   29  C   UNL     1     -12.982   8.183  72.324  1.00  0.00    -0.204 C  
HETATM   30  C   UNL     1     -13.990   7.539  71.389  1.00  0.00    -0.468 C  
ENDBRANCH  26  29
BRANCH  26  31
HETATM   31  C   UNL     1     -11.517   7.990  70.235  1.00  0.00    -0.073 C  
BRANCH  31  32
HETATM   32  C   UNL     1     -10.129   7.760  69.660  1.00  0.00    -0.196 A  
HETATM   33  C   UNL     1      -9.420   8.819  69.056  1.00  0.00    -0.160 A  
HETATM   34  C   UNL     1      -8.201   8.604  68.404  1.00  0.00    -0.122 A  
HETATM   35  C   UNL     1      -7.671   7.324  68.324  1.00  0.00    -0.120 A  
HETATM   36  C   UNL     1      -8.340   6.264  68.928  1.00  0.00    -0.120 A  
HETATM   37  C   UNL     1      -9.550   6.477  69.598  1.00  0.00    -0.147 A  
HETATM   38 CL   UNL     1     -10.298   5.091  70.307  1.00  0.00    -0.328 Cl 
ENDBRANCH  31  32
ENDBRANCH  26  31
ENDBRANCH  25  26
ENDBRANCH  24  25
ENDBRANCH  21  24
ENDBRANCH  18  20
ENDBRANCH  15  16
ENDBRANCH  14  15
ENDBRANCH   3  14
ENDBRANCH   2   3
TORSDOF 15
ENDMDL
MODEL      213
REMARK 921   NORMALIZED FREE ENERGY PREDICTED BY IDOCK:   -4.24 KCAL/MOL
REMARK 922        TOTAL FREE ENERGY PREDICTED BY IDOCK:  -10.62 KCAL/MOL
REMARK 923 INTER-LIGAND FREE ENERGY PREDICTED BY IDOCK:   -8.89 KCAL/MOL
REMARK 924 INTRA-LIGAND FREE ENERGY PREDICTED BY IDOCK:   -1.73 KCAL/MOL
REMARK 927      BINDING AFFINITY PREDICTED BY RF-SCORE:    0.00 PKD
ROOT
HETATM    1  C   UNL     1      -7.916  14.590  67.599  1.00  0.00    -0.190 C  
HETATM    2  C   UNL     1      -9.186  13.756  67.510  1.00  0.00    -0.216 C  
ENDROOT
BRANCH   2   3
HETATM    3  N   UNL     1     -10.229  14.225  66.449  1.00  0.00    -0.284 N  
BRANCH   3   4
HETATM    4  C   UNL     1      -9.671  15.440  65.653  1.00  0.00    -0.331 C  
HETATM    5  C   UNL     1     -10.699  16.405  65.121  1.00  0.00    -0.309 C  
ENDBRANCH   3   4
BRANCH   3   6
HETATM    6  C   UNL     1     -11.501  14.763  67.146  1.00  0.00    -0.364 C  
BRANCH   6   7
HETATM    7  C   UNL     1     -11.694  14.714  68.659  1.00  0.00    -0.362 A  
HETATM    8  C   UNL     1     -11.332  15.807  70.830  1.00  0.00    -0.419 A  
HETATM    9  C   UNL     1     -12.235  13.634  69.376  1.00  0.00    -0.307 A  
HETATM   10  C   UNL     1     -11.292  15.825  69.430  1.00  0.00    -0.348 A  
HETATM   11  C   UNL     1     -12.335  13.634  70.768  1.00  0.00    -0.446 A  
HETATM   12 CL   UNL     1     -10.690  17.257  68.668  1.00  0.00    -0.320 Cl 
HETATM   13  C   UNL     1     -11.860  14.709  71.498  1.00  0.00    -0.347 A  
ENDBRANCH   6   7
ENDBRANCH   3   6
BRANCH   3  14
HETATM   14  C   UNL     1     -10.526  12.959  65.546  1.00  0.00    -0.289 C  
BRANCH  14  15
HETATM   15  C   UNL     1     -11.384  11.815  66.189  1.00  0.00    -0.280 C  
BRANCH  15  16
HETATM   16  N   UNL     1     -10.729  10.547  66.474  1.00  0.00    -0.169 N  
HETATM   17  H   UNL     1     -10.049  10.162  65.818  1.00  0.00     0.000 HD 
HETATM   18  C   UNL     1     -11.035   9.864  67.647  1.00  0.00    -0.200 C  
HETATM   19  O   UNL     1     -11.682  10.346  68.561  1.00  0.00    -0.269 OA 
BRANCH  18  20
HETATM   20  C   UNL     1     -10.385   8.462  67.771  1.00  0.00    -0.235 C  
HETATM   21  N   UNL     1      -9.209   8.410  68.521  1.00  0.00    -0.136 N  
HETATM   22  O   UNL     1     -10.896   7.487  67.246  1.00  0.00    -0.299 OA 
HETATM   23  H   UNL     1      -8.656   9.251  68.685  1.00  0.00     0.000 HD 
BRANCH  21  24
HETATM   24  C   UNL     1      -8.791   7.123  69.065  1.00  0.00    -0.131 C  
BRANCH  24  25
HETATM   25  C   UNL     1      -7.997   7.194  70.397  1.00  0.00    -0.112 C  
BRANCH  25  26
HETATM   26  N   UNL     1      -8.739   6.613  71.626  1.00  0.00    -0.131 N  
BRANCH  26  27
HETATM   27  C   UNL     1      -7.814   5.629  72.401  1.00  0.00    -0.103 C  
HETATM   28  C   UNL     1      -6.677   6.280  73.177  1.00  0.00    -0.074 C  
ENDBRANCH  26  27
BRANCH  26  29
HETATM   29  C   UNL     1      -9.177   7.804  72.521  1.00  0.00    -0.171 C  
HETATM   30  C   UNL     1     -10.452   7.588  73.316  1.00  0.00    -0.426 C  
ENDBRANCH  26  29
BRANCH  26  31
HETATM   31  C   UNL     1     -10.005   5.800  71.164  1.00  0.00    -0.192 C  
BRANCH  31  32
HETATM   32  C   UNL     1     -10.175   4.365  71.636  1.00  0.00    -0.186 A  
HETATM   33  C   UNL     1     -10.780   4.088  72.879  1.00  0.00    -0.217 A  
HETATM   34  C   UNL     1     -10.829   2.788  73.395  1.00  0.00    -0.293 A  
HETATM   35  C   UNL     1     -10.257   1.738  72.689  1.00  0.00    -0.213 A  
HETATM   36  C   UNL     1      -9.670   1.980  71.451  1.00  0.00    -0.213 A  
HETATM   37  C   UNL     1      -9.636   3.275  70.923  1.00  0.00    -0.164 A  
HETATM   38 CL   UNL     1      -8.880   3.465  69.382  1.00  0.00    -0.139 Cl 
ENDBRANCH  31  32
ENDBRANCH  26  31
ENDBRANCH  25  26
ENDBRANCH  24  25
ENDBRANCH  21  24
ENDBRANCH  18  20
ENDBRANCH  15  16
ENDBRANCH  14  15
ENDBRANCH   3  14
ENDBRANCH   2   3
TORSDOF 15
ENDMDL
MODEL      214
REMARK 921   NORMALIZED FREE ENERGY PREDICTED BY IDOCK:   -4.23 KCAL/MOL
REMARK 922        TOTAL FREE ENERGY PREDICTED BY IDOCK:  -10.61 KCAL/MOL
REMARK 923 INTER-LIGAND FREE ENERGY PREDICTED BY IDOCK:   -9.02 KCAL/MOL
REMARK 924 INTRA-LIGAND FREE ENERGY PREDICTED BY IDOCK:   -1.59 KCAL/MOL
REMARK 927      BINDING AFFINITY PREDICTED BY RF-SCORE:    0.00 PKD
ROOT
HETATM    1  C   UNL     1      -8.386  15.068  69.321  1.00  0.00    -0.169 C  
HETATM    2  C   UNL     1      -9.835  15.424  69.620  1.00  0.00    -0.258 C  
ENDROOT
BRANCH   2   3
HETATM    3  N   UNL     1     -10.778  15.513  68.381  1.00  0.00    -0.254 N  
BRANCH   3   4
HETATM    4  C   UNL     1     -10.874  16.987  67.889  1.00  0.00    -0.302 C  
HETATM    5  C   UNL     1     -10.340  18.031  68.837  1.00  0.00    -0.244 C  
ENDBRANCH   3   4
BRANCH   3   6
HETATM    6  C   UNL     1     -12.225  15.137  68.778  1.00  0.00    -0.069 C  
BRANCH   6   7
HETATM    7  C   UNL     1     -12.623  14.793  70.210  1.00  0.00    -0.365 A  
HETATM    8  C   UNL     1     -12.974  13.042  71.899  1.00  0.00    -0.414 A  
HETATM    9  C   UNL     1     -13.107  15.705  71.162  1.00  0.00    -0.523 A  
HETATM   10  C   UNL     1     -12.521  13.452  70.639  1.00  0.00    -0.311 A  
HETATM   11  C   UNL     1     -13.504  15.313  72.442  1.00  0.00    -0.565 A  
HETATM   12 CL   UNL     1     -11.857  12.241  69.597  1.00  0.00    -0.393 Cl 
HETATM   13  C   UNL     1     -13.462  13.978  72.803  1.00  0.00    -0.576 A  
ENDBRANCH   6   7
ENDBRANCH   3   6
BRANCH   3  14
HETATM   14  C   UNL     1     -10.172  14.524  67.304  1.00  0.00    -0.255 C  
BRANCH  14  15
HETATM   15  C   UNL     1     -11.191  13.724  66.422  1.00  0.00    -0.316 C  
BRANCH  15  16
HETATM   16  N   UNL     1     -10.752  12.463  65.844  1.00  0.00    -0.259 N  
HETATM   17  H   UNL     1     -10.879  11.591  66.358  1.00  0.00     0.000 HD 
HETATM   18  C   UNL     1     -10.157  12.453  64.586  1.00  0.00    -0.240 C  
HETATM   19  O   UNL     1     -10.146  13.414  63.836  1.00  0.00    -0.178 OA 
BRANCH  18  20
HETATM   20  C   UNL     1      -9.603  11.076  64.140  1.00  0.00    -0.266 C  
HETATM   21  N   UNL     1      -8.614  10.533  64.961  1.00  0.00    -0.179 N  
HETATM   22  O   UNL     1     -10.030  10.523  63.140  1.00  0.00    -0.294 OA 
HETATM   23  H   UNL     1      -8.075  11.125  65.593  1.00  0.00     0.000 HD 
BRANCH  21  24
HETATM   24  C   UNL     1      -8.370   9.097  64.895  1.00  0.00    -0.162 C  
BRANCH  24  25
HETATM   25  C   UNL     1      -7.827   8.456  66.201  1.00  0.00    -0.101 C  
BRANCH  25  26
HETATM   26  N   UNL     1      -8.883   7.694  67.037  1.00  0.00    -0.125 N  
BRANCH  26  27
HETATM   27  C   UNL     1     -10.298   8.302  66.806  1.00  0.00    -0.290 C  
HETATM   28  C   UNL     1     -10.636   9.508  67.671  1.00  0.00    -0.329 C  
ENDBRANCH  26  27
BRANCH  26  29
HETATM   29  C   UNL     1      -8.832   6.199  66.615  1.00  0.00    -0.127 C  
HETATM   30  C   UNL     1      -7.672   5.816  65.714  1.00  0.00    -0.095 C  
ENDBRANCH  26  29
BRANCH  26  31
HETATM   31  C   UNL     1      -8.562   7.825  68.572  1.00  0.00    -0.128 C  
BRANCH  31  32
HETATM   32  C   UNL     1      -9.058   6.752  69.526  1.00  0.00    -0.141 A  
HETATM   33  C   UNL     1     -10.333   6.859  70.122  1.00  0.00    -0.218 A  
HETATM   34  C   UNL     1     -10.759   5.955  71.102  1.00  0.00    -0.328 A  
HETATM   35  C   UNL     1      -9.915   4.936  71.523  1.00  0.00    -0.260 A  
HETATM   36  C   UNL     1      -8.661   4.796  70.938  1.00  0.00    -0.126 A  
HETATM   37  C   UNL     1      -8.238   5.686  69.945  1.00  0.00    -0.109 A  
HETATM   38 CL   UNL     1      -6.661   5.424  69.290  1.00  0.00    -0.045 Cl 
ENDBRANCH  31  32
ENDBRANCH  26  31
ENDBRANCH  25  26
ENDBRANCH  24  25
ENDBRANCH  21  24
ENDBRANCH  18  20
ENDBRANCH  15  16
ENDBRANCH  14  15
ENDBRANCH   3  14
ENDBRANCH   2   3
TORSDOF 15
ENDMDL
MODEL      215
REMARK 921   NORMALIZED FREE ENERGY PREDICTED BY IDOCK:   -4.23 KCAL/MOL
REMARK 922        TOTAL FREE ENERGY PREDICTED BY IDOCK:  -10.60 KCAL/MOL
REMARK 923 INTER-LIGAND FREE ENERGY PREDICTED BY IDOCK:   -9.20 KCAL/MOL
REMARK 924 INTRA-LIGAND FREE ENERGY PREDICTED BY IDOCK:   -1.40 KCAL/MOL
REMARK 927      BINDING AFFINITY PREDICTED BY RF-SCORE:    0.00 PKD
ROOT
HETATM    1  C   UNL     1      -5.804  19.626  69.787  1.00  0.00    -0.308 C  
HETATM    2  C   UNL     1      -5.703  19.275  68.310  1.00  0.00    -0.201 C  
ENDROOT
BRANCH   2   3
HETATM    3  N   UNL     1      -6.127  17.822  67.929  1.00  0.00    -0.157 N  
BRANCH   3   4
HETATM    4  C   UNL     1      -6.078  17.641  66.384  1.00  0.00    -0.215 C  
HETATM    5  C   UNL     1      -5.837  18.895  65.583  1.00  0.00    -0.217 C  
ENDBRANCH   3   4
BRANCH   3   6
HETATM    6  C   UNL     1      -7.606  17.577  68.307  1.00  0.00    -0.240 C  
BRANCH   6   7
HETATM    7  C   UNL     1      -8.758  18.346  67.668  1.00  0.00    -0.268 A  
HETATM    8  C   UNL     1     -10.469  18.428  65.906  1.00  0.00    -0.346 A  
HETATM    9  C   UNL     1      -9.172  19.640  68.027  1.00  0.00    -0.409 A  
HETATM   10  C   UNL     1      -9.477  17.740  66.616  1.00  0.00    -0.292 A  
HETATM   11  C   UNL     1     -10.202  20.308  67.363  1.00  0.00    -0.494 A  
HETATM   12 CL   UNL     1      -9.130  16.116  66.130  1.00  0.00    -0.367 Cl 
HETATM   13  C   UNL     1     -10.834  19.714  66.285  1.00  0.00    -0.432 A  
ENDBRANCH   6   7
ENDBRANCH   3   6
BRANCH   3  14
HETATM   14  C   UNL     1      -5.138  16.866  68.710  1.00  0.00    -0.121 C  
BRANCH  14  15
HETATM   15  C   UNL     1      -5.786  15.768  69.624  1.00  0.00    -0.129 C  
BRANCH  15  16
HETATM   16  N   UNL     1      -5.690  14.380  69.197  1.00  0.00    -0.090 N  
HETATM   17  H   UNL     1      -5.515  14.155  68.218  1.00  0.00     0.000 HD 
HETATM   18  C   UNL     1      -5.838  13.361  70.133  1.00  0.00    -0.148 C  
HETATM   19  O   UNL     1      -5.856  13.548  71.338  1.00  0.00    -0.305 OA 
BRANCH  18  20
HETATM   20  C   UNL     1      -5.860  11.930  69.539  1.00  0.00    -0.089 C  
HETATM   21  N   UNL     1      -6.769  11.050  70.127  1.00  0.00    -0.288 N  
HETATM   22  O   UNL     1      -5.128  11.627  68.612  1.00  0.00    -0.046 OA 
HETATM   23  H   UNL     1      -7.136  11.224  71.063  1.00  0.00     0.000 HD 
BRANCH  21  24
HETATM   24  C   UNL     1      -7.182   9.873  69.372  1.00  0.00    -0.083 C  
BRANCH  24  25
HETATM   25  C   UNL     1      -8.209  10.141  68.237  1.00  0.00    -0.110 C  
BRANCH  25  26
HETATM   26  N   UNL     1      -9.691  10.101  68.682  1.00  0.00    -0.157 N  
BRANCH  26  27
HETATM   27  C   UNL     1     -10.394  11.449  68.344  1.00  0.00    -0.195 C  
HETATM   28  C   UNL     1      -9.793  12.221  67.177  1.00  0.00    -0.207 C  
ENDBRANCH  26  27
BRANCH  26  29
HETATM   29  C   UNL     1     -10.371   8.909  67.954  1.00  0.00    -0.230 C  
HETATM   30  C   UNL     1      -9.434   7.992  67.189  1.00  0.00    -0.207 C  
ENDBRANCH  26  29
BRANCH  26  31
HETATM   31  C   UNL     1      -9.788   9.900  70.240  1.00  0.00    -0.179 C  
BRANCH  31  32
HETATM   32  C   UNL     1     -11.121   9.504  70.852  1.00  0.00    -0.406 A  
HETATM   33  C   UNL     1     -12.115  10.476  71.092  1.00  0.00    -0.473 A  
HETATM   34  C   UNL     1     -13.296  10.161  71.773  1.00  0.00    -0.485 A  
HETATM   35  C   UNL     1     -13.501   8.873  72.249  1.00  0.00    -0.503 A  
HETATM   36  C   UNL     1     -12.546   7.890  72.010  1.00  0.00    -0.327 A  
HETATM   37  C   UNL     1     -11.373   8.196  71.312  1.00  0.00    -0.265 A  
HETATM   38 CL   UNL     1     -10.252   6.904  71.075  1.00  0.00    -0.210 Cl 
ENDBRANCH  31  32
ENDBRANCH  26  31
ENDBRANCH  25  26
ENDBRANCH  24  25
ENDBRANCH  21  24
ENDBRANCH  18  20
ENDBRANCH  15  16
ENDBRANCH  14  15
ENDBRANCH   3  14
ENDBRANCH   2   3
TORSDOF 15
ENDMDL
MODEL      216
REMARK 921   NORMALIZED FREE ENERGY PREDICTED BY IDOCK:   -4.23 KCAL/MOL
REMARK 922        TOTAL FREE ENERGY PREDICTED BY IDOCK:  -10.60 KCAL/MOL
REMARK 923 INTER-LIGAND FREE ENERGY PREDICTED BY IDOCK:   -9.77 KCAL/MOL
REMARK 924 INTRA-LIGAND FREE ENERGY PREDICTED BY IDOCK:   -0.83 KCAL/MOL
REMARK 927      BINDING AFFINITY PREDICTED BY RF-SCORE:    0.00 PKD
ROOT
HETATM    1  C   UNL     1     -13.552   9.164  71.339  1.00  0.00    -0.348 C  
HETATM    2  C   UNL     1     -13.064   9.894  70.096  1.00  0.00     0.430 C  
ENDROOT
BRANCH   2   3
HETATM    3  N   UNL     1     -11.564  10.325  70.111  1.00  0.00    -0.280 N  
BRANCH   3   4
HETATM    4  C   UNL     1     -10.920   9.966  71.482  1.00  0.00     0.106 C  
HETATM    5  C   UNL     1      -9.792   8.968  71.435  1.00  0.00    -0.381 C  
ENDBRANCH   3   4
BRANCH   3   6
HETATM    6  C   UNL     1     -11.446  11.864  70.012  1.00  0.00    -0.130 C  
BRANCH   6   7
HETATM    7  C   UNL     1     -12.354  12.812  70.790  1.00  0.00    -0.375 A  
HETATM    8  C   UNL     1     -13.058  15.129  71.209  1.00  0.00    -0.512 A  
HETATM    9  C   UNL     1     -13.215  12.439  71.835  1.00  0.00    -0.486 A  
HETATM   10  C   UNL     1     -12.339  14.185  70.465  1.00  0.00    -0.364 A  
HETATM   11  C   UNL     1     -13.982  13.367  72.541  1.00  0.00    -0.519 A  
HETATM   12 CL   UNL     1     -11.390  14.768  69.141  1.00  0.00    -0.282 Cl 
HETATM   13  C   UNL     1     -13.885  14.716  72.247  1.00  0.00    -0.583 A  
ENDBRANCH   6   7
ENDBRANCH   3   6
BRANCH   3  14
HETATM   14  C   UNL     1     -10.891   9.588  68.883  1.00  0.00    -0.150 C  
BRANCH  14  15
HETATM   15  C   UNL     1     -11.235  10.133  67.454  1.00  0.00    -0.002 C  
BRANCH  15  16
HETATM   16  N   UNL     1     -11.262  11.575  67.261  1.00  0.00    -0.292 N  
HETATM   17  H   UNL     1     -11.456  12.195  68.048  1.00  0.00     0.000 HD 
HETATM   18  C   UNL     1     -11.022  12.105  65.996  1.00  0.00    -0.293 C  
HETATM   19  O   UNL     1     -10.599  11.450  65.059  1.00  0.00    -0.286 OA 
BRANCH  18  20
HETATM   20  C   UNL     1     -11.220  13.637  65.885  1.00  0.00    -0.304 C  
HETATM   21  N   UNL     1     -10.070  14.406  66.069  1.00  0.00    -0.308 N  
HETATM   22  O   UNL     1     -12.317  14.111  65.641  1.00  0.00    -0.429 OA 
HETATM   23  H   UNL     1      -9.258  14.025  66.556  1.00  0.00     0.000 HD 
BRANCH  21  24
HETATM   24  C   UNL     1     -10.055  15.767  65.547  1.00  0.00    -0.351 C  
BRANCH  24  25
HETATM   25  C   UNL     1     -10.238  16.886  66.609  1.00  0.00    -0.312 C  
BRANCH  25  26
HETATM   26  N   UNL     1      -9.005  17.800  66.807  1.00  0.00    -0.252 N  
BRANCH  26  27
HETATM   27  C   UNL     1      -7.774  17.220  66.051  1.00  0.00    -0.188 C  
HETATM   28  C   UNL     1      -6.685  18.229  65.712  1.00  0.00    -0.317 C  
ENDBRANCH  26  27
BRANCH  26  29
HETATM   29  C   UNL     1      -9.376  19.215  66.284  1.00  0.00    -0.315 C  
HETATM   30  C   UNL     1      -9.859  20.194  67.340  1.00  0.00    -0.573 C  
ENDBRANCH  26  29
BRANCH  26  31
HETATM   31  C   UNL     1      -8.624  17.878  68.332  1.00  0.00    -0.293 C  
BRANCH  31  32
HETATM   32  C   UNL     1      -7.627  16.880  68.897  1.00  0.00    -0.234 A  
HETATM   33  C   UNL     1      -7.962  15.514  69.000  1.00  0.00    -0.205 A  
HETATM   34  C   UNL     1      -7.115  14.599  69.635  1.00  0.00    -0.125 A  
HETATM   35  C   UNL     1      -5.923  15.032  70.200  1.00  0.00    -0.147 A  
HETATM   36  C   UNL     1      -5.559  16.371  70.096  1.00  0.00    -0.189 A  
HETATM   37  C   UNL     1      -6.393  17.285  69.445  1.00  0.00    -0.244 A  
HETATM   38 CL   UNL     1      -5.848  18.922  69.377  1.00  0.00    -0.239 Cl 
ENDBRANCH  31  32
ENDBRANCH  26  31
ENDBRANCH  25  26
ENDBRANCH  24  25
ENDBRANCH  21  24
ENDBRANCH  18  20
ENDBRANCH  15  16
ENDBRANCH  14  15
ENDBRANCH   3  14
ENDBRANCH   2   3
TORSDOF 15
ENDMDL
MODEL      217
REMARK 921   NORMALIZED FREE ENERGY PREDICTED BY IDOCK:   -4.22 KCAL/MOL
REMARK 922        TOTAL FREE ENERGY PREDICTED BY IDOCK:  -10.59 KCAL/MOL
REMARK 923 INTER-LIGAND FREE ENERGY PREDICTED BY IDOCK:   -8.72 KCAL/MOL
REMARK 924 INTRA-LIGAND FREE ENERGY PREDICTED BY IDOCK:   -1.87 KCAL/MOL
REMARK 927      BINDING AFFINITY PREDICTED BY RF-SCORE:    0.00 PKD
ROOT
HETATM    1  C   UNL     1     -12.482  12.904  64.966  1.00  0.00    -0.553 C  
HETATM    2  C   UNL     1     -11.839  14.258  65.233  1.00  0.00    -0.374 C  
ENDROOT
BRANCH   2   3
HETATM    3  N   UNL     1     -11.012  14.365  66.551  1.00  0.00    -0.310 N  
BRANCH   3   4
HETATM    4  C   UNL     1     -11.896  14.953  67.689  1.00  0.00    -0.244 C  
HETATM    5  C   UNL     1     -12.019  14.106  68.930  1.00  0.00    -0.376 C  
ENDBRANCH   3   4
BRANCH   3   6
HETATM    6  C   UNL     1      -9.860  15.384  66.382  1.00  0.00    -0.281 C  
BRANCH   6   7
HETATM    7  C   UNL     1      -9.985  16.845  66.803  1.00  0.00    -0.291 A  
HETATM    8  C   UNL     1      -9.786  18.507  68.602  1.00  0.00    -0.398 A  
HETATM    9  C   UNL     1     -10.480  17.885  65.998  1.00  0.00    -0.293 A  
HETATM   10  C   UNL     1      -9.594  17.211  68.108  1.00  0.00    -0.270 A  
HETATM   11  C   UNL     1     -10.617  19.193  66.465  1.00  0.00    -0.523 A  
HETATM   12 CL   UNL     1      -8.886  16.047  69.176  1.00  0.00    -0.244 Cl 
HETATM   13  C   UNL     1     -10.295  19.500  67.775  1.00  0.00    -0.575 A  
ENDBRANCH   6   7
ENDBRANCH   3   6
BRANCH   3  14
HETATM   14  C   UNL     1     -10.485  12.903  66.850  1.00  0.00    -0.246 C  
BRANCH  14  15
HETATM   15  C   UNL     1      -8.933  12.719  66.971  1.00  0.00    -0.221 C  
BRANCH  15  16
HETATM   16  N   UNL     1      -8.436  11.652  67.827  1.00  0.00    -0.138 N  
HETATM   17  H   UNL     1      -9.077  11.137  68.430  1.00  0.00     0.000 HD 
HETATM   18  C   UNL     1      -7.080  11.338  67.817  1.00  0.00    -0.087 C  
HETATM   19  O   UNL     1      -6.292  11.771  66.993  1.00  0.00    -0.133 OA 
BRANCH  18  20
HETATM   20  C   UNL     1      -6.649  10.288  68.871  1.00  0.00    -0.052 C  
HETATM   21  N   UNL     1      -7.316  10.356  70.095  1.00  0.00    -0.283 N  
HETATM   22  O   UNL     1      -5.789   9.461  68.616  1.00  0.00    -0.040 OA 
HETATM   23  H   UNL     1      -7.792  11.211  70.384  1.00  0.00     0.000 HD 
BRANCH  21  24
HETATM   24  C   UNL     1      -7.318   9.176  70.951  1.00  0.00    -0.116 C  
BRANCH  24  25
HETATM   25  C   UNL     1      -8.703   8.777  71.527  1.00  0.00    -0.206 C  
BRANCH  25  26
HETATM   26  N   UNL     1      -9.030   7.266  71.443  1.00  0.00    -0.138 N  
BRANCH  26  27
HETATM   27  C   UNL     1      -8.490   6.524  72.701  1.00  0.00    -0.121 C  
HETATM   28  C   UNL     1      -8.185   5.046  72.503  1.00  0.00    -0.116 C  
ENDBRANCH  26  27
BRANCH  26  29
HETATM   29  C   UNL     1     -10.572   7.122  71.318  1.00  0.00    -0.213 C  
HETATM   30  C   UNL     1     -11.320   8.397  70.969  1.00  0.00    -0.303 C  
ENDBRANCH  26  29
BRANCH  26  31
HETATM   31  C   UNL     1      -8.331   6.626  70.187  1.00  0.00    -0.135 C  
BRANCH  31  32
HETATM   32  C   UNL     1      -9.110   6.511  68.887  1.00  0.00    -0.131 A  
HETATM   33  C   UNL     1      -9.246   7.626  68.033  1.00  0.00    -0.138 A  
HETATM   34  C   UNL     1     -10.065   7.582  66.899  1.00  0.00    -0.336 A  
HETATM   35  C   UNL     1     -10.783   6.431  66.604  1.00  0.00    -0.271 A  
HETATM   36  C   UNL     1     -10.653   5.311  67.418  1.00  0.00    -0.168 A  
HETATM   37  C   UNL     1      -9.820   5.343  68.542  1.00  0.00    -0.146 A  
HETATM   38 CL   UNL     1      -9.735   3.900  69.486  1.00  0.00    -0.250 Cl 
ENDBRANCH  31  32
ENDBRANCH  26  31
ENDBRANCH  25  26
ENDBRANCH  24  25
ENDBRANCH  21  24
ENDBRANCH  18  20
ENDBRANCH  15  16
ENDBRANCH  14  15
ENDBRANCH   3  14
ENDBRANCH   2   3
TORSDOF 15
ENDMDL
MODEL      218
REMARK 921   NORMALIZED FREE ENERGY PREDICTED BY IDOCK:   -4.21 KCAL/MOL
REMARK 922        TOTAL FREE ENERGY PREDICTED BY IDOCK:  -10.57 KCAL/MOL
REMARK 923 INTER-LIGAND FREE ENERGY PREDICTED BY IDOCK:   -8.36 KCAL/MOL
REMARK 924 INTRA-LIGAND FREE ENERGY PREDICTED BY IDOCK:   -2.20 KCAL/MOL
REMARK 927      BINDING AFFINITY PREDICTED BY RF-SCORE:    0.00 PKD
ROOT
HETATM    1  C   UNL     1     -10.682  17.145  68.072  1.00  0.00    -0.372 C  
HETATM    2  C   UNL     1     -11.004  15.688  67.773  1.00  0.00    -0.316 C  
ENDROOT
BRANCH   2   3
HETATM    3  N   UNL     1     -10.545  15.167  66.376  1.00  0.00    -0.298 N  
BRANCH   3   4
HETATM    4  C   UNL     1     -10.721  16.284  65.307  1.00  0.00    -0.332 C  
HETATM    5  C   UNL     1     -11.711  15.991  64.208  1.00  0.00    -0.081 C  
ENDBRANCH   3   4
BRANCH   3   6
HETATM    6  C   UNL     1     -11.467  14.020  65.901  1.00  0.00    -0.330 C  
BRANCH   6   7
HETATM    7  C   UNL     1     -10.938  12.781  65.184  1.00  0.00    -0.323 A  
HETATM    8  C   UNL     1     -10.344  10.401  65.324  1.00  0.00    -0.267 A  
HETATM    9  C   UNL     1     -10.441  12.752  63.870  1.00  0.00    -0.402 A  
HETATM   10  C   UNL     1     -10.919  11.552  65.876  1.00  0.00    -0.243 A  
HETATM   11  C   UNL     1      -9.921  11.593  63.292  1.00  0.00    -0.442 A  
HETATM   12 CL   UNL     1     -11.583  11.427  67.469  1.00  0.00    -0.338 Cl 
HETATM   13  C   UNL     1      -9.848  10.422  64.026  1.00  0.00    -0.355 A  
ENDBRANCH   6   7
ENDBRANCH   3   6
BRANCH   3  14
HETATM   14  C   UNL     1      -9.045  14.699  66.561  1.00  0.00    -0.237 C  
BRANCH  14  15
HETATM   15  C   UNL     1      -8.674  14.033  67.932  1.00  0.00    -0.184 C  
BRANCH  15  16
HETATM   16  N   UNL     1      -8.336  12.617  67.934  1.00  0.00    -0.160 N  
HETATM   17  H   UNL     1      -8.811  11.975  67.300  1.00  0.00     0.000 HD 
HETATM   18  C   UNL     1      -7.359  12.144  68.806  1.00  0.00    -0.090 C  
HETATM   19  O   UNL     1      -6.619  12.870  69.448  1.00  0.00    -0.109 OA 
BRANCH  18  20
HETATM   20  C   UNL     1      -7.189  10.605  68.818  1.00  0.00    -0.087 C  
HETATM   21  N   UNL     1      -7.698   9.953  69.943  1.00  0.00    -0.155 N  
HETATM   22  O   UNL     1      -6.653  10.026  67.887  1.00  0.00    -0.062 OA 
HETATM   23  H   UNL     1      -7.859  10.461  70.813  1.00  0.00     0.000 HD 
BRANCH  21  24
HETATM   24  C   UNL     1      -7.994   8.529  69.844  1.00  0.00    -0.106 C  
BRANCH  24  25
HETATM   25  C   UNL     1      -8.151   7.789  71.201  1.00  0.00    -0.095 C  
BRANCH  25  26
HETATM   26  N   UNL     1      -9.445   6.951  71.337  1.00  0.00    -0.160 N  
BRANCH  26  27
HETATM   27  C   UNL     1     -10.130   6.784  69.949  1.00  0.00    -0.180 C  
HETATM   28  C   UNL     1     -10.080   5.379  69.364  1.00  0.00    -0.304 C  
ENDBRANCH  26  27
BRANCH  26  29
HETATM   29  C   UNL     1      -9.055   5.576  71.947  1.00  0.00    -0.138 C  
HETATM   30  C   UNL     1      -9.946   5.087  73.075  1.00  0.00    -0.189 C  
ENDBRANCH  26  29
BRANCH  26  31
HETATM   31  C   UNL     1     -10.470   7.681  72.281  1.00  0.00    -0.237 C  
BRANCH  31  32
HETATM   32  C   UNL     1     -11.474   8.647  71.675  1.00  0.00    -0.375 A  
HETATM   33  C   UNL     1     -11.090   9.964  71.344  1.00  0.00    -0.207 A  
HETATM   34  C   UNL     1     -12.025  10.910  70.909  1.00  0.00    -0.416 A  
HETATM   35  C   UNL     1     -13.367  10.569  70.813  1.00  0.00    -0.078 A  
HETATM   36  C   UNL     1     -13.770   9.272  71.114  1.00  0.00    -0.165 A  
HETATM   37  C   UNL     1     -12.837   8.317  71.531  1.00  0.00    -0.293 A  
HETATM   38 CL   UNL     1     -13.445   6.740  71.884  1.00  0.00    -0.234 Cl 
ENDBRANCH  31  32
ENDBRANCH  26  31
ENDBRANCH  25  26
ENDBRANCH  24  25
ENDBRANCH  21  24
ENDBRANCH  18  20
ENDBRANCH  15  16
ENDBRANCH  14  15
ENDBRANCH   3  14
ENDBRANCH   2   3
TORSDOF 15
ENDMDL
MODEL      219
REMARK 921   NORMALIZED FREE ENERGY PREDICTED BY IDOCK:   -4.20 KCAL/MOL
REMARK 922        TOTAL FREE ENERGY PREDICTED BY IDOCK:  -10.54 KCAL/MOL
REMARK 923 INTER-LIGAND FREE ENERGY PREDICTED BY IDOCK:   -9.29 KCAL/MOL
REMARK 924 INTRA-LIGAND FREE ENERGY PREDICTED BY IDOCK:   -1.24 KCAL/MOL
REMARK 927      BINDING AFFINITY PREDICTED BY RF-SCORE:    0.00 PKD
ROOT
HETATM    1  C   UNL     1      -7.368  10.447  69.623  1.00  0.00    -0.156 C  
HETATM    2  C   UNL     1      -8.547  10.153  68.707  1.00  0.00    -0.133 C  
ENDROOT
BRANCH   2   3
HETATM    3  N   UNL     1      -9.649   9.222  69.301  1.00  0.00    -0.157 N  
BRANCH   3   4
HETATM    4  C   UNL     1     -10.384   9.944  70.468  1.00  0.00    -0.232 C  
HETATM    5  C   UNL     1     -11.878   9.751  70.522  1.00  0.00    -0.316 C  
ENDBRANCH   3   4
BRANCH   3   6
HETATM    6  C   UNL     1      -9.006   7.976  69.954  1.00  0.00    -0.145 C  
BRANCH   6   7
HETATM    7  C   UNL     1      -9.400   7.477  71.341  1.00  0.00    -0.151 A  
HETATM    8  C   UNL     1     -10.935   6.115  72.694  1.00  0.00    -0.291 A  
HETATM    9  C   UNL     1      -8.818   7.890  72.550  1.00  0.00    -0.220 A  
HETATM   10  C   UNL     1     -10.443   6.532  71.451  1.00  0.00    -0.213 A  
HETATM   11  C   UNL     1      -9.263   7.432  73.791  1.00  0.00    -0.305 A  
HETATM   12 CL   UNL     1     -11.188   5.872  70.036  1.00  0.00    -0.416 Cl 
HETATM   13  C   UNL     1     -10.339   6.564  73.866  1.00  0.00    -0.356 A  
ENDBRANCH   6   7
ENDBRANCH   3   6
BRANCH   3  14
HETATM   14  C   UNL     1     -10.597   8.848  68.091  1.00  0.00    -0.157 C  
BRANCH  14  15
HETATM   15  C   UNL     1     -10.784   9.933  66.975  1.00  0.00    -0.167 C  
BRANCH  15  16
HETATM   16  N   UNL     1     -11.309  11.233  67.366  1.00  0.00    -0.299 N  
HETATM   17  H   UNL     1     -11.850  11.330  68.225  1.00  0.00     0.000 HD 
HETATM   18  C   UNL     1     -11.069  12.342  66.561  1.00  0.00    -0.301 C  
HETATM   19  O   UNL     1     -10.280  12.345  65.631  1.00  0.00    -0.253 OA 
BRANCH  18  20
HETATM   20  C   UNL     1     -11.798  13.636  67.003  1.00  0.00    -0.408 C  
HETATM   21  N   UNL     1     -11.404  14.154  68.238  1.00  0.00    -0.276 N  
HETATM   22  O   UNL     1     -12.646  14.151  66.294  1.00  0.00    -0.449 OA 
HETATM   23  H   UNL     1     -10.935  13.565  68.927  1.00  0.00     0.000 HD 
BRANCH  21  24
HETATM   24  C   UNL     1     -11.679  15.558  68.521  1.00  0.00    -0.337 C  
BRANCH  24  25
HETATM   25  C   UNL     1     -10.895  16.575  67.647  1.00  0.00    -0.269 C  
BRANCH  25  26
HETATM   26  N   UNL     1      -9.439  16.835  68.104  1.00  0.00    -0.229 N  
BRANCH  26  27
HETATM   27  C   UNL     1      -9.132  16.046  69.411  1.00  0.00    -0.189 C  
HETATM   28  C   UNL     1      -7.801  15.307  69.427  1.00  0.00    -0.227 C  
ENDBRANCH  26  27
BRANCH  26  29
HETATM   29  C   UNL     1      -8.496  16.404  66.946  1.00  0.00    -0.221 C  
HETATM   30  C   UNL     1      -9.179  15.746  65.760  1.00  0.00    -0.255 C  
ENDBRANCH  26  29
BRANCH  26  31
HETATM   31  C   UNL     1      -9.231  18.363  68.419  1.00  0.00    -0.322 C  
BRANCH  31  32
HETATM   32  C   UNL     1      -8.167  19.136  67.659  1.00  0.00    -0.316 A  
HETATM   33  C   UNL     1      -8.416  19.597  66.349  1.00  0.00    -0.382 A  
HETATM   34  C   UNL     1      -7.411  20.194  65.581  1.00  0.00    -0.283 A  
HETATM   35  C   UNL     1      -6.129  20.327  66.096  1.00  0.00    -0.206 A  
HETATM   36  C   UNL     1      -5.859  19.899  67.391  1.00  0.00    -0.195 A  
HETATM   37  C   UNL     1      -6.866  19.318  68.170  1.00  0.00    -0.257 A  
HETATM   38 CL   UNL     1      -6.424  18.817  69.763  1.00  0.00    -0.205 Cl 
ENDBRANCH  31  32
ENDBRANCH  26  31
ENDBRANCH  25  26
ENDBRANCH  24  25
ENDBRANCH  21  24
ENDBRANCH  18  20
ENDBRANCH  15  16
ENDBRANCH  14  15
ENDBRANCH   3  14
ENDBRANCH   2   3
TORSDOF 15
ENDMDL
MODEL      220
REMARK 921   NORMALIZED FREE ENERGY PREDICTED BY IDOCK:   -4.19 KCAL/MOL
REMARK 922        TOTAL FREE ENERGY PREDICTED BY IDOCK:  -10.52 KCAL/MOL
REMARK 923 INTER-LIGAND FREE ENERGY PREDICTED BY IDOCK:   -9.06 KCAL/MOL
REMARK 924 INTRA-LIGAND FREE ENERGY PREDICTED BY IDOCK:   -1.46 KCAL/MOL
REMARK 927      BINDING AFFINITY PREDICTED BY RF-SCORE:    0.00 PKD
ROOT
HETATM    1  C   UNL     1     -10.493  17.553  66.850  1.00  0.00    -0.285 C  
HETATM    2  C   UNL     1     -10.183  16.282  67.628  1.00  0.00    -0.272 C  
ENDROOT
BRANCH   2   3
HETATM    3  N   UNL     1     -10.373  14.947  66.844  1.00  0.00    -0.261 N  
BRANCH   3   4
HETATM    4  C   UNL     1     -10.918  15.240  65.416  1.00  0.00    -0.372 C  
HETATM    5  C   UNL     1     -11.686  14.119  64.763  1.00  0.00    -0.416 C  
ENDBRANCH   3   4
BRANCH   3   6
HETATM    6  C   UNL     1     -11.468  14.082  67.512  1.00  0.00    -0.343 C  
BRANCH   6   7
HETATM    7  C   UNL     1     -11.948  14.319  68.941  1.00  0.00    -0.356 A  
HETATM    8  C   UNL     1     -12.651  13.337  71.081  1.00  0.00    -0.412 A  
HETATM    9  C   UNL     1     -12.267  15.570  69.494  1.00  0.00    -0.264 A  
HETATM   10  C   UNL     1     -12.108  13.209  69.796  1.00  0.00    -0.270 A  
HETATM   11  C   UNL     1     -12.752  15.712  70.796  1.00  0.00    -0.483 A  
HETATM   12 CL   UNL     1     -11.667  11.620  69.272  1.00  0.00    -0.360 Cl 
HETATM   13  C   UNL     1     -12.970  14.594  71.581  1.00  0.00    -0.408 A  
ENDBRANCH   6   7
ENDBRANCH   3   6
BRANCH   3  14
HETATM   14  C   UNL     1      -8.958  14.239  66.848  1.00  0.00    -0.236 C  
BRANCH  14  15
HETATM   15  C   UNL     1      -8.334  13.910  68.249  1.00  0.00    -0.163 C  
BRANCH  15  16
HETATM   16  N   UNL     1      -8.412  12.537  68.726  1.00  0.00    -0.355 N  
HETATM   17  H   UNL     1      -9.319  12.104  68.899  1.00  0.00     0.000 HD 
HETATM   18  C   UNL     1      -7.241  11.817  68.944  1.00  0.00    -0.107 C  
HETATM   19  O   UNL     1      -6.139  12.192  68.581  1.00  0.00    -0.053 OA 
BRANCH  18  20
HETATM   20  C   UNL     1      -7.446  10.422  69.586  1.00  0.00    -0.157 C  
HETATM   21  N   UNL     1      -8.760  10.110  69.938  1.00  0.00    -0.367 N  
HETATM   22  O   UNL     1      -6.505   9.664  69.750  1.00  0.00    -0.043 OA 
HETATM   23  H   UNL     1      -9.455  10.845  70.070  1.00  0.00     0.000 HD 
BRANCH  21  24
HETATM   24  C   UNL     1      -9.117   8.707  70.111  1.00  0.00    -0.158 C  
BRANCH  24  25
HETATM   25  C   UNL     1     -10.304   8.213  69.239  1.00  0.00    -0.217 C  
BRANCH  25  26
HETATM   26  N   UNL     1      -9.908   7.262  68.083  1.00  0.00    -0.145 N  
BRANCH  26  27
HETATM   27  C   UNL     1     -10.338   7.866  66.714  1.00  0.00    -0.287 C  
HETATM   28  C   UNL     1      -9.942   9.319  66.491  1.00  0.00    -0.344 C  
ENDBRANCH  26  27
BRANCH  26  29
HETATM   29  C   UNL     1      -8.370   7.050  68.151  1.00  0.00    -0.123 C  
HETATM   30  C   UNL     1      -7.737   6.466  66.900  1.00  0.00    -0.100 C  
ENDBRANCH  26  29
BRANCH  26  31
HETATM   31  C   UNL     1     -10.644   5.880  68.238  1.00  0.00    -0.244 C  
BRANCH  31  32
HETATM   32  C   UNL     1     -10.153   4.894  69.285  1.00  0.00    -0.248 A  
HETATM   33  C   UNL     1     -10.289   5.183  70.659  1.00  0.00    -0.305 A  
HETATM   34  C   UNL     1      -9.729   4.356  71.639  1.00  0.00    -0.238 A  
HETATM   35  C   UNL     1      -9.003   3.232  71.268  1.00  0.00    -0.159 A  
HETATM   36  C   UNL     1      -8.870   2.913  69.920  1.00  0.00    -0.149 A  
HETATM   37  C   UNL     1      -9.445   3.727  68.938  1.00  0.00    -0.153 A  
HETATM   38 CL   UNL     1      -9.215   3.241  67.297  1.00  0.00    -0.207 Cl 
ENDBRANCH  31  32
ENDBRANCH  26  31
ENDBRANCH  25  26
ENDBRANCH  24  25
ENDBRANCH  21  24
ENDBRANCH  18  20
ENDBRANCH  15  16
ENDBRANCH  14  15
ENDBRANCH   3  14
ENDBRANCH   2   3
TORSDOF 15
ENDMDL
MODEL      221
REMARK 921   NORMALIZED FREE ENERGY PREDICTED BY IDOCK:   -4.19 KCAL/MOL
REMARK 922        TOTAL FREE ENERGY PREDICTED BY IDOCK:  -10.52 KCAL/MOL
REMARK 923 INTER-LIGAND FREE ENERGY PREDICTED BY IDOCK:   -8.28 KCAL/MOL
REMARK 924 INTRA-LIGAND FREE ENERGY PREDICTED BY IDOCK:   -2.24 KCAL/MOL
REMARK 927      BINDING AFFINITY PREDICTED BY RF-SCORE:    0.00 PKD
ROOT
HETATM    1  C   UNL     1      -7.698   9.701  63.429  1.00  0.00    -0.128 C  
HETATM    2  C   UNL     1      -8.733   8.997  64.294  1.00  0.00    -0.108 C  
ENDROOT
BRANCH   2   3
HETATM    3  N   UNL     1      -8.896   9.554  65.742  1.00  0.00    -0.152 N  
BRANCH   3   4
HETATM    4  C   UNL     1     -10.260   9.097  66.338  1.00  0.00    -0.230 C  
HETATM    5  C   UNL     1     -10.325   9.016  67.842  1.00  0.00    -0.290 C  
ENDBRANCH   3   4
BRANCH   3   6
HETATM    6  C   UNL     1      -8.976  11.098  65.718  1.00  0.00    -0.196 C  
BRANCH   6   7
HETATM    7  C   UNL     1     -10.256  11.851  65.370  1.00  0.00    -0.300 A  
HETATM    8  C   UNL     1     -12.103  13.272  66.154  1.00  0.00    -0.477 A  
HETATM    9  C   UNL     1     -10.908  11.818  64.126  1.00  0.00    -0.418 A  
HETATM   10  C   UNL     1     -10.868  12.644  66.364  1.00  0.00    -0.269 A  
HETATM   11  C   UNL     1     -12.108  12.491  63.891  1.00  0.00    -0.581 A  
HETATM   12 CL   UNL     1     -10.125  12.845  67.914  1.00  0.00    -0.225 Cl 
HETATM   13  C   UNL     1     -12.720  13.197  64.911  1.00  0.00    -0.421 A  
ENDBRANCH   6   7
ENDBRANCH   3   6
BRANCH   3  14
HETATM   14  C   UNL     1      -7.643   9.026  66.551  1.00  0.00    -0.089 C  
BRANCH  14  15
HETATM   15  C   UNL     1      -7.207   7.542  66.294  1.00  0.00    -0.074 C  
BRANCH  15  16
HETATM   16  N   UNL     1      -7.769   6.507  67.149  1.00  0.00    -0.099 N  
HETATM   17  H   UNL     1      -7.531   6.474  68.140  1.00  0.00     0.000 HD 
HETATM   18  C   UNL     1      -8.635   5.562  66.606  1.00  0.00    -0.116 C  
HETATM   19  O   UNL     1      -9.114   5.648  65.488  1.00  0.00    -0.144 OA 
BRANCH  18  20
HETATM   20  C   UNL     1      -9.053   4.430  67.577  1.00  0.00    -0.129 C  
HETATM   21  N   UNL     1      -8.606   4.571  68.892  1.00  0.00    -0.083 N  
HETATM   22  O   UNL     1      -9.738   3.496  67.193  1.00  0.00    -0.181 OA 
HETATM   23  H   UNL     1      -7.811   5.172  69.113  1.00  0.00     0.000 HD 
BRANCH  21  24
HETATM   24  C   UNL     1      -9.302   3.839  69.943  1.00  0.00    -0.177 C  
BRANCH  24  25
HETATM   25  C   UNL     1     -10.128   4.714  70.924  1.00  0.00    -0.187 C  
BRANCH  25  26
HETATM   26  N   UNL     1      -9.719   4.585  72.412  1.00  0.00    -0.153 N  
BRANCH  26  27
HETATM   27  C   UNL     1      -9.988   3.139  72.924  1.00  0.00    -0.138 C  
HETATM   28  C   UNL     1     -11.383   2.897  73.484  1.00  0.00    -0.264 C  
ENDBRANCH  26  27
BRANCH  26  29
HETATM   29  C   UNL     1      -8.214   4.954  72.522  1.00  0.00    -0.115 C  
HETATM   30  C   UNL     1      -7.423   4.168  73.552  1.00  0.00    -0.076 C  
ENDBRANCH  26  29
BRANCH  26  31
HETATM   31  C   UNL     1     -10.574   5.563  73.299  1.00  0.00    -0.250 C  
BRANCH  31  32
HETATM   32  C   UNL     1     -11.199   6.789  72.655  1.00  0.00    -0.291 A  
HETATM   33  C   UNL     1     -12.466   6.708  72.041  1.00  0.00    -0.288 A  
HETATM   34  C   UNL     1     -13.004   7.785  71.328  1.00  0.00    -0.257 A  
HETATM   35  C   UNL     1     -12.279   8.962  71.197  1.00  0.00    -0.303 A  
HETATM   36  C   UNL     1     -11.035   9.077  71.809  1.00  0.00    -0.443 A  
HETATM   37  C   UNL     1     -10.503   8.009  72.538  1.00  0.00    -0.316 A  
HETATM   38 CL   UNL     1      -8.950   8.256  73.253  1.00  0.00    -0.315 Cl 
ENDBRANCH  31  32
ENDBRANCH  26  31
ENDBRANCH  25  26
ENDBRANCH  24  25
ENDBRANCH  21  24
ENDBRANCH  18  20
ENDBRANCH  15  16
ENDBRANCH  14  15
ENDBRANCH   3  14
ENDBRANCH   2   3
TORSDOF 15
ENDMDL
MODEL      222
REMARK 921   NORMALIZED FREE ENERGY PREDICTED BY IDOCK:   -4.19 KCAL/MOL
REMARK 922        TOTAL FREE ENERGY PREDICTED BY IDOCK:  -10.52 KCAL/MOL
REMARK 923 INTER-LIGAND FREE ENERGY PREDICTED BY IDOCK:   -8.83 KCAL/MOL
REMARK 924 INTRA-LIGAND FREE ENERGY PREDICTED BY IDOCK:   -1.69 KCAL/MOL
REMARK 927      BINDING AFFINITY PREDICTED BY RF-SCORE:    0.00 PKD
ROOT
HETATM    1  C   UNL     1     -11.808  14.859  64.727  1.00  0.00    -0.385 C  
HETATM    2  C   UNL     1     -10.543  15.356  65.412  1.00  0.00    -0.410 C  
ENDROOT
BRANCH   2   3
HETATM    3  N   UNL     1     -10.304  14.823  66.859  1.00  0.00    -0.264 N  
BRANCH   3   4
HETATM    4  C   UNL     1     -11.664  14.461  67.524  1.00  0.00    -0.387 C  
HETATM    5  C   UNL     1     -11.675  13.202  68.354  1.00  0.00    -0.386 C  
ENDBRANCH   3   4
BRANCH   3   6
HETATM    6  C   UNL     1      -9.714  15.939  67.753  1.00  0.00    -0.220 C  
BRANCH   6   7
HETATM    7  C   UNL     1      -9.669  17.402  67.323  1.00  0.00    -0.267 A  
HETATM    8  C   UNL     1      -8.342  19.246  66.386  1.00  0.00    -0.330 A  
HETATM    9  C   UNL     1     -10.704  18.335  67.502  1.00  0.00    -0.381 A  
HETATM   10  C   UNL     1      -8.499  17.891  66.704  1.00  0.00    -0.258 A  
HETATM   11  C   UNL     1     -10.576  19.675  67.131  1.00  0.00    -0.611 A  
HETATM   12 CL   UNL     1      -7.182  16.829  66.343  1.00  0.00    -0.275 Cl 
HETATM   13  C   UNL     1      -9.387  20.138  66.597  1.00  0.00    -0.490 A  
ENDBRANCH   6   7
ENDBRANCH   3   6
BRANCH   3  14
HETATM   14  C   UNL     1      -9.325  13.589  66.708  1.00  0.00    -0.257 C  
BRANCH  14  15
HETATM   15  C   UNL     1      -8.167  13.470  67.758  1.00  0.00    -0.176 C  
BRANCH  15  16
HETATM   16  N   UNL     1      -8.116  12.274  68.587  1.00  0.00    -0.301 N  
HETATM   17  H   UNL     1      -8.962  11.728  68.752  1.00  0.00     0.000 HD 
HETATM   18  C   UNL     1      -6.907  11.880  69.151  1.00  0.00    -0.099 C  
HETATM   19  O   UNL     1      -5.830  12.363  68.847  1.00  0.00    -0.061 OA 
BRANCH  18  20
HETATM   20  C   UNL     1      -7.006  10.680  70.126  1.00  0.00    -0.065 C  
HETATM   21  N   UNL     1      -8.222   9.995  70.114  1.00  0.00    -0.320 N  
HETATM   22  O   UNL     1      -6.064  10.370  70.836  1.00  0.00    -0.234 OA 
HETATM   23  H   UNL     1      -9.068  10.438  69.754  1.00  0.00     0.000 HD 
BRANCH  21  24
HETATM   24  C   UNL     1      -8.255   8.631  70.628  1.00  0.00    -0.137 C  
BRANCH  24  25
HETATM   25  C   UNL     1      -8.104   7.516  69.558  1.00  0.00    -0.128 C  
BRANCH  25  26
HETATM   26  N   UNL     1      -9.418   7.128  68.836  1.00  0.00    -0.143 N  
BRANCH  26  27
HETATM   27  C   UNL     1     -10.650   7.540  69.694  1.00  0.00    -0.239 C  
HETATM   28  C   UNL     1     -11.623   6.414  70.016  1.00  0.00    -0.446 C  
ENDBRANCH  26  27
BRANCH  26  29
HETATM   29  C   UNL     1      -9.426   7.839  67.454  1.00  0.00    -0.144 C  
HETATM   30  C   UNL     1     -10.426   8.972  67.310  1.00  0.00    -0.343 C  
ENDBRANCH  26  29
BRANCH  26  31
HETATM   31  C   UNL     1      -9.488   5.569  68.633  1.00  0.00    -0.129 C  
BRANCH  31  32
HETATM   32  C   UNL     1      -9.147   4.984  67.273  1.00  0.00    -0.117 A  
HETATM   33  C   UNL     1     -10.171   4.631  66.369  1.00  0.00    -0.293 A  
HETATM   34  C   UNL     1      -9.890   3.971  65.168  1.00  0.00    -0.203 A  
HETATM   35  C   UNL     1      -8.582   3.631  64.851  1.00  0.00    -0.109 A  
HETATM   36  C   UNL     1      -7.550   3.984  65.715  1.00  0.00    -0.085 A  
HETATM   37  C   UNL     1      -7.825   4.661  66.908  1.00  0.00    -0.099 A  
HETATM   38 CL   UNL     1      -6.472   5.046  67.910  1.00  0.00    -0.043 Cl 
ENDBRANCH  31  32
ENDBRANCH  26  31
ENDBRANCH  25  26
ENDBRANCH  24  25
ENDBRANCH  21  24
ENDBRANCH  18  20
ENDBRANCH  15  16
ENDBRANCH  14  15
ENDBRANCH   3  14
ENDBRANCH   2   3
TORSDOF 15
ENDMDL
MODEL      223
REMARK 921   NORMALIZED FREE ENERGY PREDICTED BY IDOCK:   -4.19 KCAL/MOL
REMARK 922        TOTAL FREE ENERGY PREDICTED BY IDOCK:  -10.52 KCAL/MOL
REMARK 923 INTER-LIGAND FREE ENERGY PREDICTED BY IDOCK:   -8.44 KCAL/MOL
REMARK 924 INTRA-LIGAND FREE ENERGY PREDICTED BY IDOCK:   -2.08 KCAL/MOL
REMARK 927      BINDING AFFINITY PREDICTED BY RF-SCORE:    0.00 PKD
ROOT
HETATM    1  C   UNL     1     -10.457   5.873  74.029  1.00  0.00    -0.276 C  
HETATM    2  C   UNL     1     -11.216   5.514  72.760  1.00  0.00    -0.305 C  
ENDROOT
BRANCH   2   3
HETATM    3  N   UNL     1     -10.775   6.274  71.471  1.00  0.00    -0.237 N  
BRANCH   3   4
HETATM    4  C   UNL     1     -11.996   7.004  70.839  1.00  0.00    -0.364 C  
HETATM    5  C   UNL     1     -13.238   7.063  71.692  1.00  0.00    -0.368 C  
ENDBRANCH   3   4
BRANCH   3   6
HETATM    6  C   UNL     1     -10.313   5.272  70.387  1.00  0.00    -0.275 C  
BRANCH   6   7
HETATM    7  C   UNL     1      -9.315   5.643  69.294  1.00  0.00    -0.150 A  
HETATM    8  C   UNL     1      -7.017   5.473  68.442  1.00  0.00    -0.064 A  
HETATM    9  C   UNL     1      -9.569   6.517  68.224  1.00  0.00    -0.131 A  
HETATM   10  C   UNL     1      -8.018   5.091  69.343  1.00  0.00    -0.075 A  
HETATM   11  C   UNL     1      -8.592   6.855  67.286  1.00  0.00    -0.120 A  
HETATM   12 CL   UNL     1      -7.598   3.932  70.558  1.00  0.00    -0.044 Cl 
HETATM   13  C   UNL     1      -7.308   6.355  67.408  1.00  0.00    -0.087 A  
ENDBRANCH   6   7
ENDBRANCH   3   6
BRANCH   3  14
HETATM   14  C   UNL     1      -9.616   7.252  71.922  1.00  0.00    -0.148 C  
BRANCH  14  15
HETATM   15  C   UNL     1      -9.876   8.788  71.744  1.00  0.00    -0.321 C  
BRANCH  15  16
HETATM   16  N   UNL     1      -9.386   9.428  70.532  1.00  0.00    -0.255 N  
HETATM   17  H   UNL     1     -10.033   9.665  69.779  1.00  0.00     0.000 HD 
HETATM   18  C   UNL     1      -8.030   9.716  70.406  1.00  0.00    -0.165 C  
HETATM   19  O   UNL     1      -7.235   9.642  71.327  1.00  0.00    -0.329 OA 
BRANCH  18  20
HETATM   20  C   UNL     1      -7.608  10.263  69.019  1.00  0.00    -0.102 C  
HETATM   21  N   UNL     1      -8.645  10.437  68.101  1.00  0.00    -0.122 N  
HETATM   22  O   UNL     1      -6.442  10.525  68.778  1.00  0.00    -0.050 OA 
HETATM   23  H   UNL     1      -9.531   9.943  68.212  1.00  0.00     0.000 HD 
BRANCH  21  24
HETATM   24  C   UNL     1      -8.433  11.343  66.979  1.00  0.00    -0.159 C  
BRANCH  24  25
HETATM   25  C   UNL     1      -9.691  11.637  66.117  1.00  0.00    -0.229 C  
BRANCH  25  26
HETATM   26  N   UNL     1     -10.590  12.779  66.651  1.00  0.00    -0.255 N  
BRANCH  26  27
HETATM   27  C   UNL     1     -11.134  13.637  65.470  1.00  0.00    -0.295 C  
HETATM   28  C   UNL     1     -12.529  13.266  64.986  1.00  0.00    -0.498 C  
ENDBRANCH  26  27
BRANCH  26  29
HETATM   29  C   UNL     1     -11.747  12.131  67.461  1.00  0.00    -0.315 C  
HETATM   30  C   UNL     1     -11.611  12.213  68.971  1.00  0.00    -0.374 C  
ENDBRANCH  26  29
BRANCH  26  31
HETATM   31  C   UNL     1      -9.759  13.737  67.582  1.00  0.00    -0.227 C  
BRANCH  31  32
HETATM   32  C   UNL     1      -9.688  15.217  67.245  1.00  0.00    -0.212 A  
HETATM   33  C   UNL     1      -8.619  15.726  66.478  1.00  0.00    -0.343 A  
HETATM   34  C   UNL     1      -8.461  17.100  66.265  1.00  0.00    -0.279 A  
HETATM   35  C   UNL     1      -9.356  17.998  66.830  1.00  0.00    -0.276 A  
HETATM   36  C   UNL     1     -10.430  17.523  67.575  1.00  0.00    -0.355 A  
HETATM   37  C   UNL     1     -10.603  16.149  67.774  1.00  0.00    -0.309 A  
HETATM   38 CL   UNL     1     -11.967  15.668  68.718  1.00  0.00    -0.325 Cl 
ENDBRANCH  31  32
ENDBRANCH  26  31
ENDBRANCH  25  26
ENDBRANCH  24  25
ENDBRANCH  21  24
ENDBRANCH  18  20
ENDBRANCH  15  16
ENDBRANCH  14  15
ENDBRANCH   3  14
ENDBRANCH   2   3
TORSDOF 15
ENDMDL
MODEL      224
REMARK 921   NORMALIZED FREE ENERGY PREDICTED BY IDOCK:   -4.18 KCAL/MOL
REMARK 922        TOTAL FREE ENERGY PREDICTED BY IDOCK:  -10.51 KCAL/MOL
REMARK 923 INTER-LIGAND FREE ENERGY PREDICTED BY IDOCK:   -8.36 KCAL/MOL
REMARK 924 INTRA-LIGAND FREE ENERGY PREDICTED BY IDOCK:   -2.15 KCAL/MOL
REMARK 927      BINDING AFFINITY PREDICTED BY RF-SCORE:    0.00 PKD
ROOT
HETATM    1  C   UNL     1     -10.958  10.283  70.071  1.00  0.00    -0.371 C  
HETATM    2  C   UNL     1      -9.656  10.132  69.299  1.00  0.00    -0.225 C  
ENDROOT
BRANCH   2   3
HETATM    3  N   UNL     1      -9.741  10.412  67.767  1.00  0.00    -0.158 N  
BRANCH   3   4
HETATM    4  C   UNL     1      -8.761  11.557  67.379  1.00  0.00    -0.147 C  
HETATM    5  C   UNL     1      -7.766  11.229  66.295  1.00  0.00    -0.053 C  
ENDBRANCH   3   4
BRANCH   3   6
HETATM    6  C   UNL     1     -11.142  10.953  67.397  1.00  0.00    -0.307 C  
BRANCH   6   7
HETATM    7  C   UNL     1     -11.364  11.965  66.277  1.00  0.00    -0.394 A  
HETATM    8  C   UNL     1     -12.135  14.209  65.636  1.00  0.00    -0.425 A  
HETATM    9  C   UNL     1     -11.184  11.716  64.907  1.00  0.00    -0.287 A  
HETATM   10  C   UNL     1     -11.801  13.264  66.615  1.00  0.00    -0.395 A  
HETATM   11  C   UNL     1     -11.457  12.675  63.929  1.00  0.00    -0.509 A  
HETATM   12 CL   UNL     1     -11.980  13.733  68.271  1.00  0.00    -0.405 Cl 
HETATM   13  C   UNL     1     -11.958  13.913  64.290  1.00  0.00    -0.477 A  
ENDBRANCH   6   7
ENDBRANCH   3   6
BRANCH   3  14
HETATM   14  C   UNL     1      -9.419   9.035  67.058  1.00  0.00    -0.163 C  
BRANCH  14  15
HETATM   15  C   UNL     1     -10.507   7.911  67.164  1.00  0.00    -0.344 C  
BRANCH  15  16
HETATM   16  N   UNL     1     -10.189   6.724  67.945  1.00  0.00    -0.159 N  
HETATM   17  H   UNL     1      -9.970   6.806  68.937  1.00  0.00     0.000 HD 
HETATM   18  C   UNL     1     -10.187   5.476  67.329  1.00  0.00    -0.212 C  
HETATM   19  O   UNL     1     -10.622   5.275  66.208  1.00  0.00    -0.283 OA 
BRANCH  18  20
HETATM   20  C   UNL     1      -9.695   4.311  68.224  1.00  0.00    -0.096 C  
HETATM   21  N   UNL     1      -9.698   4.565  69.597  1.00  0.00    -0.204 N  
HETATM   22  O   UNL     1      -9.346   3.249  67.735  1.00  0.00    -0.181 OA 
HETATM   23  H   UNL     1      -9.701   5.522  69.951  1.00  0.00     0.000 HD 
BRANCH  21  24
HETATM   24  C   UNL     1      -9.698   3.430  70.512  1.00  0.00    -0.091 C  
BRANCH  24  25
HETATM   25  C   UNL     1      -8.737   3.558  71.725  1.00  0.00    -0.089 C  
BRANCH  25  26
HETATM   26  N   UNL     1      -9.292   2.991  73.054  1.00  0.00    -0.090 N  
BRANCH  26  27
HETATM   27  C   UNL     1     -10.323   1.859  72.772  1.00  0.00    -0.144 C  
HETATM   28  C   UNL     1     -11.613   1.939  73.578  1.00  0.00    -0.300 C  
ENDBRANCH  26  27
BRANCH  26  29
HETATM   29  C   UNL     1      -8.088   2.467  73.885  1.00  0.00    -0.059 C  
HETATM   30  C   UNL     1      -6.719   2.908  73.397  1.00  0.00    -0.026 C  
ENDBRANCH  26  29
BRANCH  26  31
HETATM   31  C   UNL     1     -10.042   4.119  73.857  1.00  0.00    -0.149 C  
BRANCH  31  32
HETATM   32  C   UNL     1      -9.664   5.571  73.617  1.00  0.00    -0.153 A  
HETATM   33  C   UNL     1      -8.493   6.110  74.190  1.00  0.00    -0.112 A  
HETATM   34  C   UNL     1      -8.193   7.473  74.094  1.00  0.00    -0.230 A  
HETATM   35  C   UNL     1      -9.065   8.333  73.441  1.00  0.00    -0.244 A  
HETATM   36  C   UNL     1     -10.218   7.826  72.850  1.00  0.00    -0.377 A  
HETATM   37  C   UNL     1     -10.513   6.460  72.927  1.00  0.00    -0.220 A  
HETATM   38 CL   UNL     1     -11.971   5.937  72.164  1.00  0.00    -0.283 Cl 
ENDBRANCH  31  32
ENDBRANCH  26  31
ENDBRANCH  25  26
ENDBRANCH  24  25
ENDBRANCH  21  24
ENDBRANCH  18  20
ENDBRANCH  15  16
ENDBRANCH  14  15
ENDBRANCH   3  14
ENDBRANCH   2   3
TORSDOF 15
ENDMDL
MODEL      225
REMARK 921   NORMALIZED FREE ENERGY PREDICTED BY IDOCK:   -4.16 KCAL/MOL
REMARK 922        TOTAL FREE ENERGY PREDICTED BY IDOCK:  -10.47 KCAL/MOL
REMARK 923 INTER-LIGAND FREE ENERGY PREDICTED BY IDOCK:   -8.84 KCAL/MOL
REMARK 924 INTRA-LIGAND FREE ENERGY PREDICTED BY IDOCK:   -1.63 KCAL/MOL
REMARK 927      BINDING AFFINITY PREDICTED BY RF-SCORE:    0.00 PKD
ROOT
HETATM    1  C   UNL     1     -10.977   5.615  66.346  1.00  0.00    -0.083 C  
HETATM    2  C   UNL     1     -10.795   6.316  67.684  1.00  0.00    -0.346 C  
ENDROOT
BRANCH   2   3
HETATM    3  N   UNL     1      -9.539   5.889  68.505  1.00  0.00    -0.120 N  
BRANCH   3   4
HETATM    4  C   UNL     1      -9.675   4.405  68.954  1.00  0.00    -0.141 C  
HETATM    5  C   UNL     1      -8.600   3.469  68.462  1.00  0.00    -0.120 C  
ENDBRANCH   3   4
BRANCH   3   6
HETATM    6  C   UNL     1      -9.459   6.692  69.824  1.00  0.00    -0.147 C  
BRANCH   6   7
HETATM    7  C   UNL     1     -10.685   7.320  70.481  1.00  0.00    -0.249 A  
HETATM    8  C   UNL     1     -11.762   9.356  71.338  1.00  0.00    -0.448 A  
HETATM    9  C   UNL     1     -11.799   6.615  70.966  1.00  0.00    -0.427 A  
HETATM   10  C   UNL     1     -10.725   8.721  70.643  1.00  0.00    -0.225 A  
HETATM   11  C   UNL     1     -12.866   7.249  71.605  1.00  0.00    -0.415 A  
HETATM   12 CL   UNL     1      -9.459   9.719  70.013  1.00  0.00    -0.272 Cl 
HETATM   13  C   UNL     1     -12.837   8.616  71.816  1.00  0.00    -0.397 A  
ENDBRANCH   6   7
ENDBRANCH   3   6
BRANCH   3  14
HETATM   14  C   UNL     1      -8.296   6.153  67.561  1.00  0.00    -0.109 C  
BRANCH  14  15
HETATM   15  C   UNL     1      -7.725   7.613  67.533  1.00  0.00    -0.118 C  
BRANCH  15  16
HETATM   16  N   UNL     1      -8.369   8.582  66.657  1.00  0.00    -0.110 N  
HETATM   17  H   UNL     1      -9.085   9.209  67.024  1.00  0.00     0.000 HD 
HETATM   18  C   UNL     1      -8.002   8.647  65.316  1.00  0.00    -0.114 C  
HETATM   19  O   UNL     1      -7.032   8.072  64.852  1.00  0.00    -0.061 OA 
BRANCH  18  20
HETATM   20  C   UNL     1      -8.855   9.613  64.455  1.00  0.00    -0.223 C  
HETATM   21  N   UNL     1     -10.128   9.896  64.953  1.00  0.00    -0.352 N  
HETATM   22  O   UNL     1      -8.413  10.088  63.423  1.00  0.00    -0.154 OA 
HETATM   23  H   UNL     1     -10.575   9.275  65.628  1.00  0.00     0.000 HD 
BRANCH  21  24
HETATM   24  C   UNL     1     -10.803  11.101  64.486  1.00  0.00    -0.250 C  
BRANCH  24  25
HETATM   25  C   UNL     1     -10.269  12.432  65.081  1.00  0.00    -0.281 C  
BRANCH  25  26
HETATM   26  N   UNL     1     -10.888  12.828  66.444  1.00  0.00    -0.267 N  
BRANCH  26  27
HETATM   27  C   UNL     1     -11.941  13.959  66.252  1.00  0.00    -0.434 C  
HETATM   28  C   UNL     1     -12.084  14.480  64.829  1.00  0.00    -0.454 C  
ENDBRANCH  26  27
BRANCH  26  29
HETATM   29  C   UNL     1     -11.530  11.554  67.059  1.00  0.00    -0.214 C  
HETATM   30  C   UNL     1     -11.973  11.682  68.506  1.00  0.00    -0.284 C  
ENDBRANCH  26  29
BRANCH  26  31
HETATM   31  C   UNL     1      -9.774  13.382  67.407  1.00  0.00    -0.221 C  
BRANCH  31  32
HETATM   32  C   UNL     1      -9.963  14.748  68.047  1.00  0.00    -0.218 A  
HETATM   33  C   UNL     1     -10.717  14.884  69.232  1.00  0.00    -0.253 A  
HETATM   34  C   UNL     1     -11.016  16.141  69.768  1.00  0.00    -0.349 A  
HETATM   35  C   UNL     1     -10.586  17.292  69.121  1.00  0.00    -0.209 A  
HETATM   36  C   UNL     1      -9.825  17.187  67.961  1.00  0.00    -0.283 A  
HETATM   37  C   UNL     1      -9.507  15.931  67.433  1.00  0.00    -0.219 A  
HETATM   38 CL   UNL     1      -8.562  15.914  65.988  1.00  0.00    -0.273 Cl 
ENDBRANCH  31  32
ENDBRANCH  26  31
ENDBRANCH  25  26
ENDBRANCH  24  25
ENDBRANCH  21  24
ENDBRANCH  18  20
ENDBRANCH  15  16
ENDBRANCH  14  15
ENDBRANCH   3  14
ENDBRANCH   2   3
TORSDOF 15
ENDMDL
MODEL      226
REMARK 921   NORMALIZED FREE ENERGY PREDICTED BY IDOCK:   -4.16 KCAL/MOL
REMARK 922        TOTAL FREE ENERGY PREDICTED BY IDOCK:  -10.46 KCAL/MOL
REMARK 923 INTER-LIGAND FREE ENERGY PREDICTED BY IDOCK:   -8.69 KCAL/MOL
REMARK 924 INTRA-LIGAND FREE ENERGY PREDICTED BY IDOCK:   -1.77 KCAL/MOL
REMARK 927      BINDING AFFINITY PREDICTED BY RF-SCORE:    0.00 PKD
ROOT
HETATM    1  C   UNL     1     -11.807  11.190  68.739  1.00  0.00    -0.388 C  
HETATM    2  C   UNL     1     -11.343  12.566  68.284  1.00  0.00    -0.286 C  
ENDROOT
BRANCH   2   3
HETATM    3  N   UNL     1     -10.589  12.608  66.919  1.00  0.00    -0.239 N  
BRANCH   3   4
HETATM    4  C   UNL     1     -11.328  13.558  65.932  1.00  0.00    -0.308 C  
HETATM    5  C   UNL     1     -11.950  14.787  66.546  1.00  0.00    -0.193 C  
ENDBRANCH   3   4
BRANCH   3   6
HETATM    6  C   UNL     1     -10.634  11.221  66.237  1.00  0.00    -0.263 C  
BRANCH   6   7
HETATM    7  C   UNL     1      -9.770  10.870  65.029  1.00  0.00    -0.319 A  
HETATM    8  C   UNL     1      -9.602  10.692  62.583  1.00  0.00    -0.293 A  
HETATM    9  C   UNL     1      -8.480  10.316  65.084  1.00  0.00    -0.173 A  
HETATM   10  C   UNL     1     -10.289  11.095  63.736  1.00  0.00    -0.386 A  
HETATM   11  C   UNL     1      -7.765   9.969  63.937  1.00  0.00    -0.145 A  
HETATM   12 CL   UNL     1     -11.829  11.853  63.522  1.00  0.00    -0.581 Cl 
HETATM   13  C   UNL     1      -8.335  10.132  62.686  1.00  0.00    -0.167 A  
ENDBRANCH   6   7
ENDBRANCH   3   6
BRANCH   3  14
HETATM   14  C   UNL     1      -9.113  13.068  67.256  1.00  0.00    -0.209 C  
BRANCH  14  15
HETATM   15  C   UNL     1      -8.101  11.949  67.681  1.00  0.00    -0.148 C  
BRANCH  15  16
HETATM   16  N   UNL     1      -8.299  11.302  68.970  1.00  0.00    -0.355 N  
HETATM   17  H   UNL     1      -8.912  11.725  69.667  1.00  0.00     0.000 HD 
HETATM   18  C   UNL     1      -7.647  10.104  69.245  1.00  0.00    -0.117 C  
HETATM   19  O   UNL     1      -7.059   9.446  68.404  1.00  0.00    -0.070 OA 
BRANCH  18  20
HETATM   20  C   UNL     1      -7.822   9.588  70.696  1.00  0.00    -0.117 C  
HETATM   21  N   UNL     1      -9.141   9.461  71.133  1.00  0.00    -0.159 N  
HETATM   22  O   UNL     1      -6.852   9.309  71.382  1.00  0.00    -0.227 OA 
HETATM   23  H   UNL     1      -9.896   9.970  70.673  1.00  0.00     0.000 HD 
BRANCH  21  24
HETATM   24  C   UNL     1      -9.414   8.583  72.265  1.00  0.00    -0.295 C  
BRANCH  24  25
HETATM   25  C   UNL     1      -9.705   7.102  71.898  1.00  0.00    -0.156 C  
BRANCH  25  26
HETATM   26  N   UNL     1     -11.203   6.710  71.924  1.00  0.00    -0.252 N  
BRANCH  26  27
HETATM   27  C   UNL     1     -11.406   5.400  72.741  1.00  0.00    -0.296 C  
HETATM   28  C   UNL     1     -10.155   4.855  73.416  1.00  0.00    -0.199 C  
ENDBRANCH  26  27
BRANCH  26  29
HETATM   29  C   UNL     1     -11.992   7.895  72.546  1.00  0.00    -0.295 C  
HETATM   30  C   UNL     1     -13.203   8.358  71.756  1.00  0.00    -0.376 C  
ENDBRANCH  26  29
BRANCH  26  31
HETATM   31  C   UNL     1     -11.719   6.435  70.462  1.00  0.00    -0.317 C  
BRANCH  31  32
HETATM   32  C   UNL     1     -10.735   6.502  69.306  1.00  0.00    -0.329 A  
HETATM   33  C   UNL     1     -10.699   7.631  68.461  1.00  0.00    -0.094 A  
HETATM   34  C   UNL     1      -9.897   7.661  67.315  1.00  0.00    -0.245 A  
HETATM   35  C   UNL     1      -9.126   6.557  66.977  1.00  0.00    -0.133 A  
HETATM   36  C   UNL     1      -9.128   5.437  67.803  1.00  0.00    -0.111 A  
HETATM   37  C   UNL     1      -9.914   5.410  68.960  1.00  0.00    -0.190 A  
HETATM   38 CL   UNL     1      -9.845   3.970  69.911  1.00  0.00    -0.258 Cl 
ENDBRANCH  31  32
ENDBRANCH  26  31
ENDBRANCH  25  26
ENDBRANCH  24  25
ENDBRANCH  21  24
ENDBRANCH  18  20
ENDBRANCH  15  16
ENDBRANCH  14  15
ENDBRANCH   3  14
ENDBRANCH   2   3
TORSDOF 15
ENDMDL
MODEL      227
REMARK 921   NORMALIZED FREE ENERGY PREDICTED BY IDOCK:   -4.15 KCAL/MOL
REMARK 922        TOTAL FREE ENERGY PREDICTED BY IDOCK:  -10.45 KCAL/MOL
REMARK 923 INTER-LIGAND FREE ENERGY PREDICTED BY IDOCK:   -8.44 KCAL/MOL
REMARK 924 INTRA-LIGAND FREE ENERGY PREDICTED BY IDOCK:   -2.00 KCAL/MOL
REMARK 927      BINDING AFFINITY PREDICTED BY RF-SCORE:    0.00 PKD
ROOT
HETATM    1  C   UNL     1      -9.780   7.930  73.552  1.00  0.00    -0.248 C  
HETATM    2  C   UNL     1      -9.263   7.928  72.121  1.00  0.00    -0.158 C  
ENDROOT
BRANCH   2   3
HETATM    3  N   UNL     1      -9.657   6.687  71.262  1.00  0.00    -0.169 N  
BRANCH   3   4
HETATM    4  C   UNL     1     -11.076   6.889  70.654  1.00  0.00    -0.278 C  
HETATM    5  C   UNL     1     -11.258   6.407  69.237  1.00  0.00    -0.440 C  
ENDBRANCH   3   4
BRANCH   3   6
HETATM    6  C   UNL     1      -9.789   5.432  72.158  1.00  0.00    -0.169 C  
BRANCH   6   7
HETATM    7  C   UNL     1      -8.597   4.553  72.524  1.00  0.00    -0.115 A  
HETATM    8  C   UNL     1      -7.379   2.452  72.146  1.00  0.00    -0.039 A  
HETATM    9  C   UNL     1      -7.678   4.815  73.554  1.00  0.00    -0.091 A  
HETATM   10  C   UNL     1      -8.382   3.365  71.795  1.00  0.00    -0.066 A  
HETATM   11  C   UNL     1      -6.639   3.939  73.870  1.00  0.00    -0.047 A  
HETATM   12 CL   UNL     1      -9.386   2.964  70.443  1.00  0.00    -0.216 Cl 
HETATM   13  C   UNL     1      -6.503   2.745  73.185  1.00  0.00    -0.017 A  
ENDBRANCH   6   7
ENDBRANCH   3   6
BRANCH   3  14
HETATM   14  C   UNL     1      -8.519   6.535  70.174  1.00  0.00    -0.135 C  
BRANCH  14  15
HETATM   15  C   UNL     1      -7.544   7.750  69.993  1.00  0.00    -0.085 C  
BRANCH  15  16
HETATM   16  N   UNL     1      -7.983   8.859  69.159  1.00  0.00    -0.103 N  
HETATM   17  H   UNL     1      -8.559   8.685  68.336  1.00  0.00     0.000 HD 
HETATM   18  C   UNL     1      -7.612  10.159  69.492  1.00  0.00    -0.139 C  
HETATM   19  O   UNL     1      -7.095  10.463  70.554  1.00  0.00    -0.301 OA 
BRANCH  18  20
HETATM   20  C   UNL     1      -8.016  11.236  68.454  1.00  0.00    -0.140 C  
HETATM   21  N   UNL     1      -8.470  12.443  68.988  1.00  0.00    -0.284 N  
HETATM   22  O   UNL     1      -7.921  11.019  67.258  1.00  0.00    -0.118 OA 
HETATM   23  H   UNL     1      -8.819  12.494  69.945  1.00  0.00     0.000 HD 
BRANCH  21  24
HETATM   24  C   UNL     1      -8.434  13.631  68.143  1.00  0.00    -0.175 C  
BRANCH  24  25
HETATM   25  C   UNL     1      -9.419  14.761  68.547  1.00  0.00    -0.214 C  
BRANCH  25  26
HETATM   26  N   UNL     1     -10.330  15.267  67.402  1.00  0.00    -0.252 N  
BRANCH  26  27
HETATM   27  C   UNL     1     -10.520  16.810  67.503  1.00  0.00    -0.319 C  
HETATM   28  C   UNL     1      -9.599  17.515  68.489  1.00  0.00    -0.305 C  
ENDBRANCH  26  27
BRANCH  26  29
HETATM   29  C   UNL     1      -9.666  14.865  66.056  1.00  0.00    -0.328 C  
HETATM   30  C   UNL     1     -10.624  14.431  64.961  1.00  0.00    -0.452 C  
ENDBRANCH  26  29
BRANCH  26  31
HETATM   31  C   UNL     1     -11.757  14.612  67.510  1.00  0.00    -0.379 C  
BRANCH  31  32
HETATM   32  C   UNL     1     -12.020  13.592  68.605  1.00  0.00    -0.378 A  
HETATM   33  C   UNL     1     -12.364  14.012  69.907  1.00  0.00    -0.367 A  
HETATM   34  C   UNL     1     -12.482  13.101  70.962  1.00  0.00    -0.406 A  
HETATM   35  C   UNL     1     -12.240  11.751  70.745  1.00  0.00    -0.424 A  
HETATM   36  C   UNL     1     -11.918  11.306  69.467  1.00  0.00    -0.421 A  
HETATM   37  C   UNL     1     -11.818  12.211  68.405  1.00  0.00    -0.303 A  
HETATM   38 CL   UNL     1     -11.409  11.554  66.862  1.00  0.00    -0.362 Cl 
ENDBRANCH  31  32
ENDBRANCH  26  31
ENDBRANCH  25  26
ENDBRANCH  24  25
ENDBRANCH  21  24
ENDBRANCH  18  20
ENDBRANCH  15  16
ENDBRANCH  14  15
ENDBRANCH   3  14
ENDBRANCH   2   3
TORSDOF 15
ENDMDL
MODEL      228
REMARK 921   NORMALIZED FREE ENERGY PREDICTED BY IDOCK:   -4.14 KCAL/MOL
REMARK 922        TOTAL FREE ENERGY PREDICTED BY IDOCK:  -10.42 KCAL/MOL
REMARK 923 INTER-LIGAND FREE ENERGY PREDICTED BY IDOCK:   -9.02 KCAL/MOL
REMARK 924 INTRA-LIGAND FREE ENERGY PREDICTED BY IDOCK:   -1.41 KCAL/MOL
REMARK 927      BINDING AFFINITY PREDICTED BY RF-SCORE:    0.00 PKD
ROOT
HETATM    1  C   UNL     1      -5.716  17.778  70.027  1.00  0.00    -0.240 C  
HETATM    2  C   UNL     1      -5.350  17.590  68.562  1.00  0.00    -0.151 C  
ENDROOT
BRANCH   2   3
HETATM    3  N   UNL     1      -6.442  16.915  67.674  1.00  0.00    -0.137 N  
BRANCH   3   4
HETATM    4  C   UNL     1      -6.439  17.549  66.253  1.00  0.00    -0.249 C  
HETATM    5  C   UNL     1      -5.507  18.719  66.058  1.00  0.00    -0.189 C  
ENDBRANCH   3   4
BRANCH   3   6
HETATM    6  C   UNL     1      -7.852  17.214  68.235  1.00  0.00    -0.227 C  
BRANCH   6   7
HETATM    7  C   UNL     1      -8.786  18.244  67.607  1.00  0.00    -0.261 A  
HETATM    8  C   UNL     1     -10.435  18.751  65.857  1.00  0.00    -0.424 A  
HETATM    9  C   UNL     1      -8.873  19.596  67.978  1.00  0.00    -0.371 A  
HETATM   10  C   UNL     1      -9.635  17.838  66.556  1.00  0.00    -0.308 A  
HETATM   11  C   UNL     1      -9.714  20.499  67.325  1.00  0.00    -0.600 A  
HETATM   12 CL   UNL     1      -9.693  16.182  66.058  1.00  0.00    -0.351 Cl 
HETATM   13  C   UNL     1     -10.476  20.084  66.247  1.00  0.00    -0.536 A  
ENDBRANCH   6   7
ENDBRANCH   3   6
BRANCH   3  14
HETATM   14  C   UNL     1      -6.106  15.369  67.678  1.00  0.00    -0.126 C  
BRANCH  14  15
HETATM   15  C   UNL     1      -7.225  14.401  68.196  1.00  0.00    -0.128 C  
BRANCH  15  16
HETATM   16  N   UNL     1      -6.981  12.969  68.115  1.00  0.00    -0.092 N  
HETATM   17  H   UNL     1      -7.178  12.463  67.251  1.00  0.00     0.000 HD 
HETATM   18  C   UNL     1      -6.478  12.293  69.222  1.00  0.00    -0.109 C  
HETATM   19  O   UNL     1      -6.042  12.852  70.214  1.00  0.00    -0.146 OA 
BRANCH  18  20
HETATM   20  C   UNL     1      -6.397  10.754  69.063  1.00  0.00    -0.048 C  
HETATM   21  N   UNL     1      -6.447  10.023  70.251  1.00  0.00    -0.102 N  
HETATM   22  O   UNL     1      -6.307  10.243  67.959  1.00  0.00    -0.056 OA 
HETATM   23  H   UNL     1      -6.220  10.461  71.145  1.00  0.00     0.000 HD 
BRANCH  21  24
HETATM   24  C   UNL     1      -6.831   8.618  70.186  1.00  0.00    -0.039 C  
BRANCH  24  25
HETATM   25  C   UNL     1      -8.290   8.351  69.728  1.00  0.00    -0.125 C  
BRANCH  25  26
HETATM   26  N   UNL     1      -9.237   7.842  70.842  1.00  0.00    -0.152 N  
BRANCH  26  27
HETATM   27  C   UNL     1      -9.002   6.324  71.100  1.00  0.00    -0.146 C  
HETATM   28  C   UNL     1      -9.757   5.383  70.171  1.00  0.00    -0.252 C  
ENDBRANCH  26  27
BRANCH  26  29
HETATM   29  C   UNL     1      -8.961   8.684  72.119  1.00  0.00    -0.200 C  
HETATM   30  C   UNL     1      -8.966   7.908  73.424  1.00  0.00    -0.339 C  
ENDBRANCH  26  29
BRANCH  26  31
HETATM   31  C   UNL     1     -10.738   8.016  70.403  1.00  0.00    -0.233 C  
BRANCH  31  32
HETATM   32  C   UNL     1     -11.546   9.169  70.974  1.00  0.00    -0.370 A  
HETATM   33  C   UNL     1     -12.515   8.939  71.974  1.00  0.00    -0.461 A  
HETATM   34  C   UNL     1     -13.361   9.960  72.421  1.00  0.00    -0.321 A  
HETATM   35  C   UNL     1     -13.272  11.229  71.865  1.00  0.00    -0.491 A  
HETATM   36  C   UNL     1     -12.314  11.489  70.891  1.00  0.00    -0.460 A  
HETATM   37  C   UNL     1     -11.452  10.476  70.455  1.00  0.00    -0.345 A  
HETATM   38 CL   UNL     1     -10.303  10.905  69.240  1.00  0.00    -0.234 Cl 
ENDBRANCH  31  32
ENDBRANCH  26  31
ENDBRANCH  25  26
ENDBRANCH  24  25
ENDBRANCH  21  24
ENDBRANCH  18  20
ENDBRANCH  15  16
ENDBRANCH  14  15
ENDBRANCH   3  14
ENDBRANCH   2   3
TORSDOF 15
ENDMDL
MODEL      229
REMARK 921   NORMALIZED FREE ENERGY PREDICTED BY IDOCK:   -4.12 KCAL/MOL
REMARK 922        TOTAL FREE ENERGY PREDICTED BY IDOCK:  -10.40 KCAL/MOL
REMARK 923 INTER-LIGAND FREE ENERGY PREDICTED BY IDOCK:   -8.84 KCAL/MOL
REMARK 924 INTRA-LIGAND FREE ENERGY PREDICTED BY IDOCK:   -1.56 KCAL/MOL
REMARK 927      BINDING AFFINITY PREDICTED BY RF-SCORE:    0.00 PKD
ROOT
HETATM    1  C   UNL     1      -6.756  18.541  69.299  1.00  0.00    -0.252 C  
HETATM    2  C   UNL     1      -7.036  17.084  68.961  1.00  0.00    -0.229 C  
ENDROOT
BRANCH   2   3
HETATM    3  N   UNL     1      -7.850  16.838  67.653  1.00  0.00    -0.172 N  
BRANCH   3   4
HETATM    4  C   UNL     1      -7.505  17.929  66.598  1.00  0.00    -0.227 C  
HETATM    5  C   UNL     1      -8.600  18.922  66.298  1.00  0.00    -0.267 C  
ENDBRANCH   3   4
BRANCH   3   6
HETATM    6  C   UNL     1      -9.363  17.014  67.920  1.00  0.00    -0.240 C  
BRANCH   6   7
HETATM    7  C   UNL     1     -10.400  15.980  67.492  1.00  0.00    -0.287 A  
HETATM    8  C   UNL     1     -12.070  14.313  68.179  1.00  0.00    -0.275 A  
HETATM    9  C   UNL     1     -10.648  15.576  66.170  1.00  0.00    -0.321 A  
HETATM   10  C   UNL     1     -11.180  15.351  68.485  1.00  0.00    -0.318 A  
HETATM   11  C   UNL     1     -11.578  14.584  65.852  1.00  0.00    -0.349 A  
HETATM   12 CL   UNL     1     -11.040  15.818  70.145  1.00  0.00    -0.325 Cl 
HETATM   13  C   UNL     1     -12.270  13.933  66.858  1.00  0.00    -0.415 A  
ENDBRANCH   6   7
ENDBRANCH   3   6
BRANCH   3  14
HETATM   14  C   UNL     1      -7.486  15.370  67.188  1.00  0.00    -0.189 C  
BRANCH  14  15
HETATM   15  C   UNL     1      -7.390  14.275  68.306  1.00  0.00    -0.124 C  
BRANCH  15  16
HETATM   16  N   UNL     1      -8.495  13.337  68.439  1.00  0.00    -0.249 N  
HETATM   17  H   UNL     1      -9.250  13.524  69.099  1.00  0.00     0.000 HD 
HETATM   18  C   UNL     1      -8.515  12.183  67.661  1.00  0.00    -0.163 C  
HETATM   19  O   UNL     1      -7.760  11.986  66.724  1.00  0.00    -0.117 OA 
BRANCH  18  20
HETATM   20  C   UNL     1      -9.661  11.195  67.994  1.00  0.00    -0.176 C  
HETATM   21  N   UNL     1      -9.789  10.110  67.125  1.00  0.00    -0.179 N  
HETATM   22  O   UNL     1     -10.379  11.373  68.963  1.00  0.00    -0.201 OA 
HETATM   23  H   UNL     1      -9.394  10.142  66.185  1.00  0.00     0.000 HD 
BRANCH  21  24
HETATM   24  C   UNL     1     -10.503   8.928  67.594  1.00  0.00    -0.255 C  
BRANCH  24  25
HETATM   25  C   UNL     1      -9.676   7.967  68.490  1.00  0.00    -0.161 C  
BRANCH  25  26
HETATM   26  N   UNL     1      -9.790   6.469  68.113  1.00  0.00    -0.129 N  
BRANCH  26  27
HETATM   27  C   UNL     1     -10.820   6.278  66.961  1.00  0.00    -0.383 C  
HETATM   28  C   UNL     1     -10.646   5.009  66.138  1.00  0.00    -0.321 C  
ENDBRANCH  26  27
BRANCH  26  29
HETATM   29  C   UNL     1      -8.376   5.977  67.698  1.00  0.00    -0.108 C  
HETATM   30  C   UNL     1      -7.444   7.049  67.162  1.00  0.00    -0.095 C  
ENDBRANCH  26  29
BRANCH  26  31
HETATM   31  C   UNL     1     -10.304   5.635  69.345  1.00  0.00    -0.273 C  
BRANCH  31  32
HETATM   32  C   UNL     1     -10.812   6.370  70.574  1.00  0.00    -0.335 A  
HETATM   33  C   UNL     1     -12.150   6.814  70.641  1.00  0.00    -0.371 A  
HETATM   34  C   UNL     1     -12.605   7.605  71.701  1.00  0.00    -0.365 A  
HETATM   35  C   UNL     1     -11.731   7.987  72.709  1.00  0.00    -0.352 A  
HETATM   36  C   UNL     1     -10.411   7.548  72.679  1.00  0.00    -0.322 A  
HETATM   37  C   UNL     1      -9.956   6.741  71.631  1.00  0.00    -0.172 A  
HETATM   38 CL   UNL     1      -8.300   6.255  71.688  1.00  0.00    -0.128 Cl 
ENDBRANCH  31  32
ENDBRANCH  26  31
ENDBRANCH  25  26
ENDBRANCH  24  25
ENDBRANCH  21  24
ENDBRANCH  18  20
ENDBRANCH  15  16
ENDBRANCH  14  15
ENDBRANCH   3  14
ENDBRANCH   2   3
TORSDOF 15
ENDMDL
MODEL      230
REMARK 921   NORMALIZED FREE ENERGY PREDICTED BY IDOCK:   -4.12 KCAL/MOL
REMARK 922        TOTAL FREE ENERGY PREDICTED BY IDOCK:  -10.40 KCAL/MOL
REMARK 923 INTER-LIGAND FREE ENERGY PREDICTED BY IDOCK:   -8.18 KCAL/MOL
REMARK 924 INTRA-LIGAND FREE ENERGY PREDICTED BY IDOCK:   -2.22 KCAL/MOL
REMARK 927      BINDING AFFINITY PREDICTED BY RF-SCORE:    0.00 PKD
ROOT
HETATM    1  C   UNL     1     -11.083  16.834  65.046  1.00  0.00    -0.063 C  
HETATM    2  C   UNL     1     -10.325  15.519  65.161  1.00  0.00    -0.356 C  
ENDROOT
BRANCH   2   3
HETATM    3  N   UNL     1     -10.121  14.982  66.612  1.00  0.00    -0.255 N  
BRANCH   3   4
HETATM    4  C   UNL     1      -9.613  16.126  67.537  1.00  0.00    -0.229 C  
HETATM    5  C   UNL     1      -8.153  16.478  67.403  1.00  0.00    -0.172 C  
ENDBRANCH   3   4
BRANCH   3   6
HETATM    6  C   UNL     1      -8.994  13.923  66.640  1.00  0.00    -0.134 C  
BRANCH   6   7
HETATM    7  C   UNL     1      -9.229  12.481  67.077  1.00  0.00    -0.214 A  
HETATM    8  C   UNL     1     -10.108  10.259  66.501  1.00  0.00    -0.290 A  
HETATM    9  C   UNL     1      -8.975  11.967  68.359  1.00  0.00    -0.163 A  
HETATM   10  C   UNL     1      -9.759  11.567  66.141  1.00  0.00    -0.223 A  
HETATM   11  C   UNL     1      -9.264  10.646  68.707  1.00  0.00    -0.182 A  
HETATM   12 CL   UNL     1     -10.037  12.044  64.501  1.00  0.00    -0.298 Cl 
HETATM   13  C   UNL     1      -9.855   9.798  67.787  1.00  0.00    -0.191 A  
ENDBRANCH   6   7
ENDBRANCH   3   6
BRANCH   3  14
HETATM   14  C   UNL     1     -11.519  14.386  67.052  1.00  0.00    -0.361 C  
BRANCH  14  15
HETATM   15  C   UNL     1     -11.919  14.554  68.559  1.00  0.00    -0.286 C  
BRANCH  15  16
HETATM   16  N   UNL     1     -12.206  13.351  69.328  1.00  0.00    -0.245 N  
HETATM   17  H   UNL     1     -12.316  12.454  68.855  1.00  0.00     0.000 HD 
HETATM   18  C   UNL     1     -12.329  13.433  70.712  1.00  0.00    -0.354 C  
HETATM   19  O   UNL     1     -12.024  14.420  71.360  1.00  0.00    -0.344 OA 
BRANCH  18  20
HETATM   20  C   UNL     1     -12.776  12.120  71.403  1.00  0.00    -0.263 C  
HETATM   21  N   UNL     1     -12.394  10.942  70.758  1.00  0.00    -0.357 N  
HETATM   22  O   UNL     1     -13.408  12.146  72.446  1.00  0.00    -0.427 OA 
HETATM   23  H   UNL     1     -12.144  10.945  69.769  1.00  0.00     0.000 HD 
BRANCH  21  24
HETATM   24  C   UNL     1     -12.361   9.708  71.533  1.00  0.00    -0.390 C  
BRANCH  24  25
HETATM   25  C   UNL     1     -11.947   8.439  70.740  1.00  0.00    -0.110 C  
BRANCH  25  26
HETATM   26  N   UNL     1     -10.704   7.703  71.297  1.00  0.00    -0.227 N  
BRANCH  26  27
HETATM   27  C   UNL     1     -11.087   6.868  72.554  1.00  0.00    -0.266 C  
HETATM   28  C   UNL     1     -12.405   6.113  72.456  1.00  0.00     0.025 C  
ENDBRANCH  26  27
BRANCH  26  29
HETATM   29  C   UNL     1     -10.142   6.799  70.165  1.00  0.00    -0.178 C  
HETATM   30  C   UNL     1     -11.134   6.423  69.079  1.00  0.00    -0.424 C  
ENDBRANCH  26  29
BRANCH  26  31
HETATM   31  C   UNL     1      -9.609   8.743  71.742  1.00  0.00    -0.301 C  
BRANCH  31  32
HETATM   32  C   UNL     1      -8.345   8.241  72.420  1.00  0.00    -0.231 A  
HETATM   33  C   UNL     1      -8.316   8.032  73.815  1.00  0.00    -0.311 A  
HETATM   34  C   UNL     1      -7.131   7.698  74.479  1.00  0.00    -0.140 A  
HETATM   35  C   UNL     1      -5.944   7.584  73.768  1.00  0.00    -0.063 A  
HETATM   36  C   UNL     1      -5.947   7.765  72.389  1.00  0.00    -0.040 A  
HETATM   37  C   UNL     1      -7.134   8.080  71.718  1.00  0.00    -0.075 A  
HETATM   38 CL   UNL     1      -7.025   8.289  70.007  1.00  0.00    -0.043 Cl 
ENDBRANCH  31  32
ENDBRANCH  26  31
ENDBRANCH  25  26
ENDBRANCH  24  25
ENDBRANCH  21  24
ENDBRANCH  18  20
ENDBRANCH  15  16
ENDBRANCH  14  15
ENDBRANCH   3  14
ENDBRANCH   2   3
TORSDOF 15
ENDMDL
MODEL      231
REMARK 921   NORMALIZED FREE ENERGY PREDICTED BY IDOCK:   -4.11 KCAL/MOL
REMARK 922        TOTAL FREE ENERGY PREDICTED BY IDOCK:  -10.37 KCAL/MOL
REMARK 923 INTER-LIGAND FREE ENERGY PREDICTED BY IDOCK:   -9.01 KCAL/MOL
REMARK 924 INTRA-LIGAND FREE ENERGY PREDICTED BY IDOCK:   -1.36 KCAL/MOL
REMARK 927      BINDING AFFINITY PREDICTED BY RF-SCORE:    0.00 PKD
ROOT
HETATM    1  C   UNL     1     -11.274   2.379  73.498  1.00  0.00    -0.313 C  
HETATM    2  C   UNL     1     -10.518   3.563  74.082  1.00  0.00    -0.198 C  
ENDROOT
BRANCH   2   3
HETATM    3  N   UNL     1      -9.647   4.373  73.073  1.00  0.00    -0.128 N  
BRANCH   3   4
HETATM    4  C   UNL     1      -8.138   4.085  73.319  1.00  0.00    -0.089 C  
HETATM    5  C   UNL     1      -7.210   5.262  73.159  1.00  0.00    -0.090 C  
ENDBRANCH   3   4
BRANCH   3   6
HETATM    6  C   UNL     1      -9.803   5.891  73.326  1.00  0.00    -0.170 C  
BRANCH   6   7
HETATM    7  C   UNL     1     -10.811   6.753  72.570  1.00  0.00    -0.271 A  
HETATM    8  C   UNL     1     -11.327   8.933  71.561  1.00  0.00    -0.395 A  
HETATM    9  C   UNL     1     -12.126   6.377  72.252  1.00  0.00    -0.252 A  
HETATM   10  C   UNL     1     -10.423   8.045  72.156  1.00  0.00    -0.265 A  
HETATM   11  C   UNL     1     -13.015   7.237  71.603  1.00  0.00    -0.417 A  
HETATM   12 CL   UNL     1      -8.803   8.602  72.405  1.00  0.00    -0.252 Cl 
HETATM   13  C   UNL     1     -12.625   8.524  71.281  1.00  0.00    -0.248 A  
ENDBRANCH   6   7
ENDBRANCH   3   6
BRANCH   3  14
HETATM   14  C   UNL     1     -10.146   3.947  71.633  1.00  0.00    -0.097 C  
BRANCH  14  15
HETATM   15  C   UNL     1      -9.356   4.525  70.408  1.00  0.00    -0.146 C  
BRANCH  15  16
HETATM   16  N   UNL     1      -9.953   5.626  69.667  1.00  0.00    -0.185 N  
HETATM   17  H   UNL     1     -10.943   5.844  69.782  1.00  0.00     0.000 HD 
HETATM   18  C   UNL     1      -9.166   6.379  68.800  1.00  0.00    -0.127 C  
HETATM   19  O   UNL     1      -7.950   6.304  68.754  1.00  0.00    -0.100 OA 
BRANCH  18  20
HETATM   20  C   UNL     1      -9.942   7.426  67.962  1.00  0.00    -0.164 C  
HETATM   21  N   UNL     1      -9.921   8.729  68.461  1.00  0.00    -0.177 N  
HETATM   22  O   UNL     1     -10.514   7.106  66.934  1.00  0.00    -0.281 OA 
HETATM   23  H   UNL     1      -9.706   8.910  69.442  1.00  0.00     0.000 HD 
BRANCH  21  24
HETATM   24  C   UNL     1     -10.212   9.826  67.546  1.00  0.00    -0.220 C  
BRANCH  24  25
HETATM   25  C   UNL     1     -11.203  10.893  68.085  1.00  0.00    -0.301 C  
BRANCH  25  26
HETATM   26  N   UNL     1     -10.945  12.333  67.580  1.00  0.00    -0.242 N  
BRANCH  26  27
HETATM   27  C   UNL     1      -9.666  12.920  68.247  1.00  0.00    -0.217 C  
HETATM   28  C   UNL     1      -8.879  13.903  67.391  1.00  0.00    -0.209 C  
ENDBRANCH  26  27
BRANCH  26  29
HETATM   29  C   UNL     1     -10.801  12.274  66.034  1.00  0.00    -0.275 C  
HETATM   30  C   UNL     1     -12.032  12.691  65.248  1.00  0.00    -0.487 C  
ENDBRANCH  26  29
BRANCH  26  31
HETATM   31  C   UNL     1     -12.148  13.271  67.968  1.00  0.00    -0.221 C  
BRANCH  31  32
HETATM   32  C   UNL     1     -12.026  14.162  69.192  1.00  0.00    -0.388 A  
HETATM   33  C   UNL     1     -11.605  15.503  69.062  1.00  0.00    -0.377 A  
HETATM   34  C   UNL     1     -11.358  16.303  70.183  1.00  0.00    -0.292 A  
HETATM   35  C   UNL     1     -11.507  15.777  71.459  1.00  0.00    -0.504 A  
HETATM   36  C   UNL     1     -11.938  14.464  71.617  1.00  0.00    -0.257 A  
HETATM   37  C   UNL     1     -12.205  13.666  70.499  1.00  0.00    -0.368 A  
HETATM   38 CL   UNL     1     -12.731  12.050  70.807  1.00  0.00    -0.288 Cl 
ENDBRANCH  31  32
ENDBRANCH  26  31
ENDBRANCH  25  26
ENDBRANCH  24  25
ENDBRANCH  21  24
ENDBRANCH  18  20
ENDBRANCH  15  16
ENDBRANCH  14  15
ENDBRANCH   3  14
ENDBRANCH   2   3
TORSDOF 15
ENDMDL
MODEL      232
REMARK 921   NORMALIZED FREE ENERGY PREDICTED BY IDOCK:   -4.10 KCAL/MOL
REMARK 922        TOTAL FREE ENERGY PREDICTED BY IDOCK:  -10.36 KCAL/MOL
REMARK 923 INTER-LIGAND FREE ENERGY PREDICTED BY IDOCK:   -8.78 KCAL/MOL
REMARK 924 INTRA-LIGAND FREE ENERGY PREDICTED BY IDOCK:   -1.58 KCAL/MOL
REMARK 927      BINDING AFFINITY PREDICTED BY RF-SCORE:    0.00 PKD
ROOT
HETATM    1  C   UNL     1     -12.785  13.947  65.380  1.00  0.00    -0.525 C  
HETATM    2  C   UNL     1     -11.614  14.696  66.000  1.00  0.00    -0.328 C  
ENDROOT
BRANCH   2   3
HETATM    3  N   UNL     1     -10.938  14.000  67.222  1.00  0.00    -0.290 N  
BRANCH   3   4
HETATM    4  C   UNL     1     -11.883  12.909  67.804  1.00  0.00    -0.339 C  
HETATM    5  C   UNL     1     -11.549  12.422  69.191  1.00  0.00    -0.369 C  
ENDBRANCH   3   4
BRANCH   3   6
HETATM    6  C   UNL     1     -10.745  15.009  68.378  1.00  0.00    -0.245 C  
BRANCH   6   7
HETATM    7  C   UNL     1      -9.436  15.758  68.607  1.00  0.00    -0.208 A  
HETATM    8  C   UNL     1      -8.120  17.798  68.221  1.00  0.00    -0.283 A  
HETATM    9  C   UNL     1      -8.296  15.230  69.236  1.00  0.00    -0.243 A  
HETATM   10  C   UNL     1      -9.326  17.088  68.148  1.00  0.00    -0.254 A  
HETATM   11  C   UNL     1      -7.110  15.955  69.366  1.00  0.00    -0.215 A  
HETATM   12 CL   UNL     1     -10.682  17.891  67.435  1.00  0.00    -0.351 Cl 
HETATM   13  C   UNL     1      -7.012  17.229  68.836  1.00  0.00    -0.233 A  
ENDBRANCH   6   7
ENDBRANCH   3   6
BRANCH   3  14
HETATM   14  C   UNL     1      -9.564  13.426  66.686  1.00  0.00    -0.270 C  
BRANCH  14  15
HETATM   15  C   UNL     1      -9.640  12.336  65.562  1.00  0.00    -0.099 C  
BRANCH  15  16
HETATM   16  N   UNL     1      -8.801  11.155  65.697  1.00  0.00    -0.277 N  
HETATM   17  H   UNL     1      -7.806  11.205  65.478  1.00  0.00     0.000 HD 
HETATM   18  C   UNL     1      -9.364   9.957  66.127  1.00  0.00    -0.181 C  
HETATM   19  O   UNL     1     -10.489   9.865  66.587  1.00  0.00    -0.221 OA 
BRANCH  18  20
HETATM   20  C   UNL     1      -8.405   8.740  66.093  1.00  0.00    -0.123 C  
HETATM   21  N   UNL     1      -7.905   8.335  67.332  1.00  0.00    -0.105 N  
HETATM   22  O   UNL     1      -8.133   8.186  65.041  1.00  0.00    -0.140 OA 
HETATM   23  H   UNL     1      -7.900   8.973  68.128  1.00  0.00     0.000 HD 
BRANCH  21  24
HETATM   24  C   UNL     1      -7.390   6.977  67.461  1.00  0.00    -0.092 C  
BRANCH  24  25
HETATM   25  C   UNL     1      -8.452   5.851  67.329  1.00  0.00    -0.103 C  
BRANCH  25  26
HETATM   26  N   UNL     1      -9.346   5.653  68.578  1.00  0.00    -0.120 N  
BRANCH  26  27
HETATM   27  C   UNL     1     -10.785   6.178  68.301  1.00  0.00    -0.290 C  
HETATM   28  C   UNL     1     -11.126   6.398  66.834  1.00  0.00    -0.346 C  
ENDBRANCH  26  27
BRANCH  26  29
HETATM   29  C   UNL     1      -9.350   4.138  68.921  1.00  0.00    -0.163 C  
HETATM   30  C   UNL     1      -9.381   3.199  67.728  1.00  0.00    -0.252 C  
ENDBRANCH  26  29
BRANCH  26  31
HETATM   31  C   UNL     1      -8.774   6.474  69.793  1.00  0.00    -0.143 C  
BRANCH  31  32
HETATM   32  C   UNL     1      -9.735   7.012  70.839  1.00  0.00    -0.176 A  
HETATM   33  C   UNL     1     -10.477   6.129  71.652  1.00  0.00    -0.267 A  
HETATM   34  C   UNL     1     -11.463   6.596  72.528  1.00  0.00    -0.269 A  
HETATM   35  C   UNL     1     -11.744   7.954  72.598  1.00  0.00    -0.398 A  
HETATM   36  C   UNL     1     -11.015   8.849  71.822  1.00  0.00    -0.431 A  
HETATM   37  C   UNL     1     -10.015   8.388  70.958  1.00  0.00    -0.190 A  
HETATM   38 CL   UNL     1      -9.175   9.583  70.037  1.00  0.00    -0.241 Cl 
ENDBRANCH  31  32
ENDBRANCH  26  31
ENDBRANCH  25  26
ENDBRANCH  24  25
ENDBRANCH  21  24
ENDBRANCH  18  20
ENDBRANCH  15  16
ENDBRANCH  14  15
ENDBRANCH   3  14
ENDBRANCH   2   3
TORSDOF 15
ENDMDL
MODEL      233
REMARK 921   NORMALIZED FREE ENERGY PREDICTED BY IDOCK:   -4.10 KCAL/MOL
REMARK 922        TOTAL FREE ENERGY PREDICTED BY IDOCK:  -10.35 KCAL/MOL
REMARK 923 INTER-LIGAND FREE ENERGY PREDICTED BY IDOCK:   -8.02 KCAL/MOL
REMARK 924 INTRA-LIGAND FREE ENERGY PREDICTED BY IDOCK:   -2.33 KCAL/MOL
REMARK 927      BINDING AFFINITY PREDICTED BY RF-SCORE:    0.00 PKD
ROOT
HETATM    1  C   UNL     1      -7.264   9.894  64.352  1.00  0.00    -0.134 C  
HETATM    2  C   UNL     1      -8.143   9.091  65.300  1.00  0.00    -0.126 C  
ENDROOT
BRANCH   2   3
HETATM    3  N   UNL     1      -8.859   9.912  66.416  1.00  0.00    -0.141 N  
BRANCH   3   4
HETATM    4  C   UNL     1     -10.334   9.438  66.563  1.00  0.00    -0.198 C  
HETATM    5  C   UNL     1     -10.535   8.135  67.295  1.00  0.00    -0.379 C  
ENDBRANCH   3   4
BRANCH   3   6
HETATM    6  C   UNL     1      -8.964  11.400  66.007  1.00  0.00    -0.197 C  
BRANCH   6   7
HETATM    7  C   UNL     1     -10.289  12.156  65.982  1.00  0.00    -0.268 A  
HETATM    8  C   UNL     1     -12.182  12.976  64.645  1.00  0.00    -0.477 A  
HETATM    9  C   UNL     1     -10.860  12.834  67.071  1.00  0.00    -0.282 A  
HETATM   10  C   UNL     1     -11.018  12.208  64.774  1.00  0.00    -0.310 A  
HETATM   11  C   UNL     1     -12.053  13.552  66.965  1.00  0.00    -0.401 A  
HETATM   12 CL   UNL     1     -10.474  11.343  63.378  1.00  0.00    -0.443 Cl 
HETATM   13  C   UNL     1     -12.701  13.646  65.746  1.00  0.00    -0.470 A  
ENDBRANCH   6   7
ENDBRANCH   3   6
BRANCH   3  14
HETATM   14  C   UNL     1      -7.995   9.706  67.726  1.00  0.00    -0.105 C  
BRANCH  14  15
HETATM   15  C   UNL     1      -7.033   8.469  67.753  1.00  0.00    -0.075 C  
BRANCH  15  16
HETATM   16  N   UNL     1      -7.393   7.341  68.600  1.00  0.00    -0.097 N  
HETATM   17  H   UNL     1      -7.465   7.462  69.611  1.00  0.00     0.000 HD 
HETATM   18  C   UNL     1      -7.639   6.098  68.024  1.00  0.00    -0.101 C  
HETATM   19  O   UNL     1      -7.760   5.922  66.824  1.00  0.00    -0.098 OA 
BRANCH  18  20
HETATM   20  C   UNL     1      -7.871   4.948  69.036  1.00  0.00    -0.076 C  
HETATM   21  N   UNL     1      -7.575   5.250  70.366  1.00  0.00    -0.073 N  
HETATM   22  O   UNL     1      -8.295   3.866  68.667  1.00  0.00    -0.076 OA 
HETATM   23  H   UNL     1      -6.956   6.026  70.602  1.00  0.00     0.000 HD 
BRANCH  21  24
HETATM   24  C   UNL     1      -8.173   4.428  71.412  1.00  0.00    -0.091 C  
BRANCH  24  25
HETATM   25  C   UNL     1      -9.410   5.049  72.116  1.00  0.00    -0.136 C  
BRANCH  25  26
HETATM   26  N   UNL     1      -9.241   5.285  73.637  1.00  0.00    -0.130 N  
BRANCH  26  27
HETATM   27  C   UNL     1     -10.389   4.586  74.424  1.00  0.00    -0.258 C  
HETATM   28  C   UNL     1     -11.332   3.738  73.582  1.00  0.00    -0.231 C  
ENDBRANCH  26  27
BRANCH  26  29
HETATM   29  C   UNL     1      -7.850   4.730  74.050  1.00  0.00    -0.101 C  
HETATM   30  C   UNL     1      -6.862   5.763  74.561  1.00  0.00    -0.080 C  
ENDBRANCH  26  29
BRANCH  26  31
HETATM   31  C   UNL     1      -9.319   6.823  73.961  1.00  0.00    -0.209 C  
BRANCH  31  32
HETATM   32  C   UNL     1      -9.941   7.763  72.942  1.00  0.00    -0.341 A  
HETATM   33  C   UNL     1     -11.343   7.898  72.855  1.00  0.00    -0.399 A  
HETATM   34  C   UNL     1     -11.942   8.654  71.841  1.00  0.00    -0.424 A  
HETATM   35  C   UNL     1     -11.157   9.275  70.880  1.00  0.00    -0.374 A  
HETATM   36  C   UNL     1      -9.772   9.173  70.952  1.00  0.00    -0.352 A  
HETATM   37  C   UNL     1      -9.167   8.435  71.975  1.00  0.00    -0.234 A  
HETATM   38 CL   UNL     1      -7.441   8.371  71.969  1.00  0.00    -0.129 Cl 
ENDBRANCH  31  32
ENDBRANCH  26  31
ENDBRANCH  25  26
ENDBRANCH  24  25
ENDBRANCH  21  24
ENDBRANCH  18  20
ENDBRANCH  15  16
ENDBRANCH  14  15
ENDBRANCH   3  14
ENDBRANCH   2   3
TORSDOF 15
ENDMDL
MODEL      234
REMARK 921   NORMALIZED FREE ENERGY PREDICTED BY IDOCK:   -4.10 KCAL/MOL
REMARK 922        TOTAL FREE ENERGY PREDICTED BY IDOCK:  -10.35 KCAL/MOL
REMARK 923 INTER-LIGAND FREE ENERGY PREDICTED BY IDOCK:   -8.75 KCAL/MOL
REMARK 924 INTRA-LIGAND FREE ENERGY PREDICTED BY IDOCK:   -1.60 KCAL/MOL
REMARK 927      BINDING AFFINITY PREDICTED BY RF-SCORE:    0.00 PKD
ROOT
HETATM    1  C   UNL     1     -10.598  16.256  65.671  1.00  0.00    -0.360 C  
HETATM    2  C   UNL     1     -10.651  16.671  67.134  1.00  0.00    -0.264 C  
ENDROOT
BRANCH   2   3
HETATM    3  N   UNL     1      -9.305  16.563  67.915  1.00  0.00    -0.214 N  
BRANCH   3   4
HETATM    4  C   UNL     1      -9.548  15.911  69.308  1.00  0.00    -0.266 C  
HETATM    5  C   UNL     1     -10.990  15.792  69.734  1.00  0.00    -0.316 C  
ENDBRANCH   3   4
BRANCH   3   6
HETATM    6  C   UNL     1      -8.752  17.972  68.232  1.00  0.00    -0.283 C  
BRANCH   6   7
HETATM    7  C   UNL     1      -7.707  18.662  67.361  1.00  0.00    -0.237 A  
HETATM    8  C   UNL     1      -7.248  20.094  65.417  1.00  0.00    -0.247 A  
HETATM    9  C   UNL     1      -6.316  18.511  67.485  1.00  0.00    -0.194 A  
HETATM   10  C   UNL     1      -8.143  19.518  66.327  1.00  0.00    -0.334 A  
HETATM   11  C   UNL     1      -5.415  19.132  66.618  1.00  0.00    -0.158 A  
HETATM   12 CL   UNL     1      -9.826  19.863  66.119  1.00  0.00    -0.542 Cl 
HETATM   13  C   UNL     1      -5.880  19.903  65.568  1.00  0.00    -0.206 A  
ENDBRANCH   6   7
ENDBRANCH   3   6
BRANCH   3  14
HETATM   14  C   UNL     1      -8.332  15.728  66.987  1.00  0.00    -0.226 C  
BRANCH  14  15
HETATM   15  C   UNL     1      -7.652  14.467  67.625  1.00  0.00    -0.182 C  
BRANCH  15  16
HETATM   16  N   UNL     1      -7.952  13.165  67.048  1.00  0.00    -0.391 N  
HETATM   17  H   UNL     1      -7.220  12.630  66.580  1.00  0.00     0.000 HD 
HETATM   18  C   UNL     1      -9.243  12.652  67.139  1.00  0.00    -0.214 C  
HETATM   19  O   UNL     1     -10.114  13.137  67.842  1.00  0.00    -0.220 OA 
BRANCH  18  20
HETATM   20  C   UNL     1      -9.473  11.330  66.366  1.00  0.00    -0.200 C  
HETATM   21  N   UNL     1      -8.715  10.241  66.800  1.00  0.00    -0.126 N  
HETATM   22  O   UNL     1     -10.278  11.271  65.452  1.00  0.00    -0.247 OA 
HETATM   23  H   UNL     1      -7.861  10.380  67.340  1.00  0.00     0.000 HD 
BRANCH  21  24
HETATM   24  C   UNL     1      -9.174   8.899  66.463  1.00  0.00    -0.183 C  
BRANCH  24  25
HETATM   25  C   UNL     1      -9.658   8.043  67.665  1.00  0.00    -0.151 C  
BRANCH  25  26
HETATM   26  N   UNL     1      -8.795   6.792  67.960  1.00  0.00    -0.121 N  
BRANCH  26  27
HETATM   27  C   UNL     1      -9.368   5.551  67.213  1.00  0.00    -0.114 C  
HETATM   28  C   UNL     1     -10.776   5.719  66.659  1.00  0.00    -0.333 C  
ENDBRANCH  26  27
BRANCH  26  29
HETATM   29  C   UNL     1      -7.341   7.103  67.511  1.00  0.00    -0.092 C  
HETATM   30  C   UNL     1      -6.373   7.449  68.628  1.00  0.00    -0.039 C  
ENDBRANCH  26  29
BRANCH  26  31
HETATM   31  C   UNL     1      -8.819   6.464  69.499  1.00  0.00    -0.136 C  
BRANCH  31  32
HETATM   32  C   UNL     1      -9.980   6.963  70.343  1.00  0.00    -0.190 A  
HETATM   33  C   UNL     1     -11.223   6.296  70.316  1.00  0.00    -0.455 A  
HETATM   34  C   UNL     1     -12.342   6.809  70.980  1.00  0.00    -0.370 A  
HETATM   35  C   UNL     1     -12.251   8.011  71.669  1.00  0.00    -0.340 A  
HETATM   36  C   UNL     1     -11.033   8.680  71.728  1.00  0.00    -0.396 A  
HETATM   37  C   UNL     1      -9.906   8.160  71.083  1.00  0.00    -0.169 A  
HETATM   38 CL   UNL     1      -8.446   9.073  71.216  1.00  0.00    -0.231 Cl 
ENDBRANCH  31  32
ENDBRANCH  26  31
ENDBRANCH  25  26
ENDBRANCH  24  25
ENDBRANCH  21  24
ENDBRANCH  18  20
ENDBRANCH  15  16
ENDBRANCH  14  15
ENDBRANCH   3  14
ENDBRANCH   2   3
TORSDOF 15
ENDMDL
MODEL      235
REMARK 921   NORMALIZED FREE ENERGY PREDICTED BY IDOCK:   -4.09 KCAL/MOL
REMARK 922        TOTAL FREE ENERGY PREDICTED BY IDOCK:  -10.34 KCAL/MOL
REMARK 923 INTER-LIGAND FREE ENERGY PREDICTED BY IDOCK:   -8.55 KCAL/MOL
REMARK 924 INTRA-LIGAND FREE ENERGY PREDICTED BY IDOCK:   -1.79 KCAL/MOL
REMARK 927      BINDING AFFINITY PREDICTED BY RF-SCORE:    0.00 PKD
ROOT
HETATM    1  C   UNL     1     -12.191  14.914  64.296  1.00  0.00    -0.365 C  
HETATM    2  C   UNL     1     -12.013  14.340  65.694  1.00  0.00    -0.386 C  
ENDROOT
BRANCH   2   3
HETATM    3  N   UNL     1     -10.788  14.881  66.494  1.00  0.00    -0.317 N  
BRANCH   3   4
HETATM    4  C   UNL     1     -11.196  15.157  67.971  1.00  0.00    -0.323 C  
HETATM    5  C   UNL     1     -10.305  14.549  69.023  1.00  0.00    -0.227 C  
ENDBRANCH   3   4
BRANCH   3   6
HETATM    6  C   UNL     1     -10.350  16.258  65.944  1.00  0.00    -0.365 C  
BRANCH   6   7
HETATM    7  C   UNL     1     -10.013  17.438  66.850  1.00  0.00    -0.300 A  
HETATM    8  C   UNL     1      -8.384  18.496  68.355  1.00  0.00    -0.355 A  
HETATM    9  C   UNL     1     -10.891  18.483  67.186  1.00  0.00    -0.304 A  
HETATM   10  C   UNL     1      -8.727  17.507  67.425  1.00  0.00    -0.228 A  
HETATM   11  C   UNL     1     -10.535  19.507  68.065  1.00  0.00    -0.528 A  
HETATM   12 CL   UNL     1      -7.519  16.334  67.027  1.00  0.00    -0.234 Cl 
HETATM   13  C   UNL     1      -9.291  19.501  68.671  1.00  0.00    -0.430 A  
ENDBRANCH   6   7
ENDBRANCH   3   6
BRANCH   3  14
HETATM   14  C   UNL     1      -9.657  13.784  66.346  1.00  0.00    -0.272 C  
BRANCH  14  15
HETATM   15  C   UNL     1     -10.127  12.310  66.093  1.00  0.00    -0.245 C  
BRANCH  15  16
HETATM   16  N   UNL     1      -9.835  11.315  67.114  1.00  0.00    -0.188 N  
HETATM   17  H   UNL     1      -8.891  10.938  67.208  1.00  0.00     0.000 HD 
HETATM   18  C   UNL     1     -10.849  10.880  67.963  1.00  0.00    -0.245 C  
HETATM   19  O   UNL     1     -11.942  11.416  68.039  1.00  0.00    -0.613 OA 
BRANCH  18  20
HETATM   20  C   UNL     1     -10.452   9.720  68.909  1.00  0.00    -0.214 C  
HETATM   21  N   UNL     1     -11.204   9.617  70.081  1.00  0.00    -0.253 N  
HETATM   22  O   UNL     1      -9.547   8.956  68.618  1.00  0.00    -0.150 OA 
HETATM   23  H   UNL     1     -11.729  10.415  70.437  1.00  0.00     0.000 HD 
BRANCH  21  24
HETATM   24  C   UNL     1     -11.220   8.339  70.784  1.00  0.00    -0.264 C  
BRANCH  24  25
HETATM   25  C   UNL     1     -10.248   8.236  71.991  1.00  0.00    -0.269 C  
BRANCH  25  26
HETATM   26  N   UNL     1      -9.437   6.919  72.059  1.00  0.00    -0.141 N  
BRANCH  26  27
HETATM   27  C   UNL     1     -10.343   5.705  71.699  1.00  0.00    -0.215 C  
HETATM   28  C   UNL     1     -11.229   5.198  72.828  1.00  0.00    -0.323 C  
ENDBRANCH  26  27
BRANCH  26  29
HETATM   29  C   UNL     1      -8.243   7.048  71.074  1.00  0.00    -0.117 C  
HETATM   30  C   UNL     1      -8.062   5.886  70.113  1.00  0.00    -0.110 C  
ENDBRANCH  26  29
BRANCH  26  31
HETATM   31  C   UNL     1      -8.900   6.685  73.520  1.00  0.00    -0.125 C  
BRANCH  31  32
HETATM   32  C   UNL     1      -7.647   5.849  73.722  1.00  0.00    -0.096 A  
HETATM   33  C   UNL     1      -7.703   4.442  73.630  1.00  0.00    -0.082 A  
HETATM   34  C   UNL     1      -6.596   3.645  73.940  1.00  0.00    -0.042 A  
HETATM   35  C   UNL     1      -5.414   4.233  74.369  1.00  0.00    -0.008 A  
HETATM   36  C   UNL     1      -5.325   5.619  74.450  1.00  0.00    -0.028 A  
HETATM   37  C   UNL     1      -6.423   6.421  74.122  1.00  0.00    -0.070 A  
HETATM   38 CL   UNL     1      -6.206   8.129  74.263  1.00  0.00    -0.113 Cl 
ENDBRANCH  31  32
ENDBRANCH  26  31
ENDBRANCH  25  26
ENDBRANCH  24  25
ENDBRANCH  21  24
ENDBRANCH  18  20
ENDBRANCH  15  16
ENDBRANCH  14  15
ENDBRANCH   3  14
ENDBRANCH   2   3
TORSDOF 15
ENDMDL
MODEL      236
REMARK 921   NORMALIZED FREE ENERGY PREDICTED BY IDOCK:   -4.08 KCAL/MOL
REMARK 922        TOTAL FREE ENERGY PREDICTED BY IDOCK:  -10.32 KCAL/MOL
REMARK 923 INTER-LIGAND FREE ENERGY PREDICTED BY IDOCK:   -9.41 KCAL/MOL
REMARK 924 INTRA-LIGAND FREE ENERGY PREDICTED BY IDOCK:   -0.92 KCAL/MOL
REMARK 927      BINDING AFFINITY PREDICTED BY RF-SCORE:    0.00 PKD
ROOT
HETATM    1  C   UNL     1      -9.995  19.083  67.161  1.00  0.00    -0.403 C  
HETATM    2  C   UNL     1     -10.240  17.832  67.992  1.00  0.00    -0.377 C  
ENDROOT
BRANCH   2   3
HETATM    3  N   UNL     1     -10.084  16.477  67.235  1.00  0.00    -0.267 N  
BRANCH   3   4
HETATM    4  C   UNL     1     -10.255  16.699  65.704  1.00  0.00    -0.262 C  
HETATM    5  C   UNL     1     -10.629  15.479  64.901  1.00  0.00    -0.370 C  
ENDBRANCH   3   4
BRANCH   3   6
HETATM    6  C   UNL     1     -11.227  15.510  67.622  1.00  0.00    -0.291 C  
BRANCH   6   7
HETATM    7  C   UNL     1     -11.611  15.226  69.071  1.00  0.00    -0.360 A  
HETATM    8  C   UNL     1     -12.368  13.577  70.728  1.00  0.00    -0.440 A  
HETATM    9  C   UNL     1     -11.720  16.189  70.088  1.00  0.00    -0.193 A  
HETATM   10  C   UNL     1     -11.900  13.897  69.448  1.00  0.00    -0.334 A  
HETATM   11  C   UNL     1     -12.128  15.866  71.383  1.00  0.00    -0.508 A  
HETATM   12 CL   UNL     1     -11.719  12.600  68.317  1.00  0.00    -0.371 Cl 
HETATM   13  C   UNL     1     -12.478  14.565  71.698  1.00  0.00    -0.422 A  
ENDBRANCH   6   7
ENDBRANCH   3   6
BRANCH   3  14
HETATM   14  C   UNL     1      -8.659  15.919  67.638  1.00  0.00    -0.163 C  
BRANCH  14  15
HETATM   15  C   UNL     1      -8.542  15.218  69.036  1.00  0.00    -0.226 C  
BRANCH  15  16
HETATM   16  N   UNL     1      -8.000  13.868  69.080  1.00  0.00    -0.330 N  
HETATM   17  H   UNL     1      -8.555  13.081  68.744  1.00  0.00     0.000 HD 
HETATM   18  C   UNL     1      -6.719  13.657  69.582  1.00  0.00     0.011 C  
HETATM   19  O   UNL     1      -5.930  14.556  69.820  1.00  0.00    -0.105 OA 
BRANCH  18  20
HETATM   20  C   UNL     1      -6.308  12.169  69.712  1.00  0.00    -0.102 C  
HETATM   21  N   UNL     1      -7.363  11.266  69.862  1.00  0.00    -0.306 N  
HETATM   22  O   UNL     1      -5.136  11.836  69.670  1.00  0.00    -0.059 OA 
HETATM   23  H   UNL     1      -8.276  11.579  70.191  1.00  0.00     0.000 HD 
BRANCH  21  24
HETATM   24  C   UNL     1      -7.126   9.864  69.539  1.00  0.00    -0.082 C  
BRANCH  24  25
HETATM   25  C   UNL     1      -8.390   9.055  69.139  1.00  0.00    -0.123 C  
BRANCH  25  26
HETATM   26  N   UNL     1      -8.721   7.865  70.074  1.00  0.00    -0.139 N  
BRANCH  26  27
HETATM   27  C   UNL     1      -7.851   6.628  69.704  1.00  0.00    -0.115 C  
HETATM   28  C   UNL     1      -8.629   5.361  69.376  1.00  0.00    -0.099 C  
ENDBRANCH  26  27
BRANCH  26  29
HETATM   29  C   UNL     1      -8.461   8.325  71.535  1.00  0.00    -0.140 C  
HETATM   30  C   UNL     1      -8.270   7.208  72.545  1.00  0.00    -0.118 C  
ENDBRANCH  26  29
BRANCH  26  31
HETATM   31  C   UNL     1     -10.228   7.445  69.907  1.00  0.00    -0.211 C  
BRANCH  31  32
HETATM   32  C   UNL     1     -11.308   8.293  70.558  1.00  0.00    -0.225 A  
HETATM   33  C   UNL     1     -11.578   9.595  70.085  1.00  0.00    -0.193 A  
HETATM   34  C   UNL     1     -12.472  10.442  70.748  1.00  0.00    -0.461 A  
HETATM   35  C   UNL     1     -13.103  10.016  71.909  1.00  0.00    -0.563 A  
HETATM   36  C   UNL     1     -12.871   8.731  72.386  1.00  0.00    -0.434 A  
HETATM   37  C   UNL     1     -11.992   7.873  71.716  1.00  0.00    -0.298 A  
HETATM   38 CL   UNL     1     -11.772   6.301  72.397  1.00  0.00    -0.326 Cl 
ENDBRANCH  31  32
ENDBRANCH  26  31
ENDBRANCH  25  26
ENDBRANCH  24  25
ENDBRANCH  21  24
ENDBRANCH  18  20
ENDBRANCH  15  16
ENDBRANCH  14  15
ENDBRANCH   3  14
ENDBRANCH   2   3
TORSDOF 15
ENDMDL
MODEL      237
REMARK 921   NORMALIZED FREE ENERGY PREDICTED BY IDOCK:   -4.08 KCAL/MOL
REMARK 922        TOTAL FREE ENERGY PREDICTED BY IDOCK:  -10.32 KCAL/MOL
REMARK 923 INTER-LIGAND FREE ENERGY PREDICTED BY IDOCK:   -8.65 KCAL/MOL
REMARK 924 INTRA-LIGAND FREE ENERGY PREDICTED BY IDOCK:   -1.67 KCAL/MOL
REMARK 927      BINDING AFFINITY PREDICTED BY RF-SCORE:    0.00 PKD
ROOT
HETATM    1  C   UNL     1     -12.258  15.600  64.297  1.00  0.00    -0.012 C  
HETATM    2  C   UNL     1     -11.758  14.202  64.631  1.00  0.00    -0.417 C  
ENDROOT
BRANCH   2   3
HETATM    3  N   UNL     1     -11.065  14.047  66.020  1.00  0.00    -0.300 N  
BRANCH   3   4
HETATM    4  C   UNL     1     -10.673  15.446  66.580  1.00  0.00    -0.308 C  
HETATM    5  C   UNL     1      -9.195  15.713  66.703  1.00  0.00    -0.294 C  
ENDBRANCH   3   4
BRANCH   3   6
HETATM    6  C   UNL     1      -9.722  13.294  65.871  1.00  0.00    -0.175 C  
BRANCH   6   7
HETATM    7  C   UNL     1      -9.432  11.978  66.585  1.00  0.00    -0.222 A  
HETATM    8  C   UNL     1      -9.740   9.540  66.644  1.00  0.00    -0.270 A  
HETATM    9  C   UNL     1      -8.766  11.849  67.816  1.00  0.00    -0.158 A  
HETATM   10  C   UNL     1      -9.869  10.774  65.994  1.00  0.00    -0.235 A  
HETATM   11  C   UNL     1      -8.580  10.615  68.441  1.00  0.00    -0.134 A  
HETATM   12 CL   UNL     1     -10.625  10.779  64.437  1.00  0.00    -0.359 Cl 
HETATM   13  C   UNL     1      -9.090   9.463  67.870  1.00  0.00    -0.136 A  
ENDBRANCH   6   7
ENDBRANCH   3   6
BRANCH   3  14
HETATM   14  C   UNL     1     -12.096  13.267  66.932  1.00  0.00    -0.332 C  
BRANCH  14  15
HETATM   15  C   UNL     1     -11.909  13.395  68.484  1.00  0.00    -0.366 C  
BRANCH  15  16
HETATM   16  N   UNL     1     -11.920  12.174  69.276  1.00  0.00    -0.289 N  
HETATM   17  H   UNL     1     -11.629  11.289  68.860  1.00  0.00     0.000 HD 
HETATM   18  C   UNL     1     -12.331  12.221  70.605  1.00  0.00    -0.286 C  
HETATM   19  O   UNL     1     -12.507  13.258  71.222  1.00  0.00    -0.343 OA 
BRANCH  18  20
HETATM   20  C   UNL     1     -12.438  10.841  71.301  1.00  0.00    -0.399 C  
HETATM   21  N   UNL     1     -11.406   9.944  71.018  1.00  0.00    -0.369 N  
HETATM   22  O   UNL     1     -13.366  10.587  72.050  1.00  0.00    -0.434 OA 
HETATM   23  H   UNL     1     -10.828  10.057  70.185  1.00  0.00     0.000 HD 
BRANCH  21  24
HETATM   24  C   UNL     1     -11.174   8.840  71.942  1.00  0.00    -0.368 C  
BRANCH  24  25
HETATM   25  C   UNL     1      -9.932   7.963  71.628  1.00  0.00    -0.181 C  
BRANCH  25  26
HETATM   26  N   UNL     1     -10.227   6.451  71.476  1.00  0.00    -0.192 N  
BRANCH  26  27
HETATM   27  C   UNL     1      -9.020   5.610  71.988  1.00  0.00    -0.138 C  
HETATM   28  C   UNL     1      -8.196   6.260  73.091  1.00  0.00    -0.116 C  
ENDBRANCH  26  27
BRANCH  26  29
HETATM   29  C   UNL     1     -11.518   6.138  72.281  1.00  0.00    -0.312 C  
HETATM   30  C   UNL     1     -11.494   4.843  73.074  1.00  0.00    -0.327 C  
ENDBRANCH  26  29
BRANCH  26  31
HETATM   31  C   UNL     1     -10.442   6.087  69.960  1.00  0.00    -0.250 C  
BRANCH  31  32
HETATM   32  C   UNL     1      -9.237   6.025  69.037  1.00  0.00    -0.125 A  
HETATM   33  C   UNL     1      -7.937   6.234  69.542  1.00  0.00    -0.108 A  
HETATM   34  C   UNL     1      -6.827   6.313  68.694  1.00  0.00    -0.074 A  
HETATM   35  C   UNL     1      -6.993   6.204  67.320  1.00  0.00    -0.069 A  
HETATM   36  C   UNL     1      -8.261   5.978  66.796  1.00  0.00    -0.106 A  
HETATM   37  C   UNL     1      -9.371   5.879  67.641  1.00  0.00    -0.107 A  
HETATM   38 CL   UNL     1     -10.900   5.602  66.887  1.00  0.00    -0.338 Cl 
ENDBRANCH  31  32
ENDBRANCH  26  31
ENDBRANCH  25  26
ENDBRANCH  24  25
ENDBRANCH  21  24
ENDBRANCH  18  20
ENDBRANCH  15  16
ENDBRANCH  14  15
ENDBRANCH   3  14
ENDBRANCH   2   3
TORSDOF 15
ENDMDL
MODEL      238
REMARK 921   NORMALIZED FREE ENERGY PREDICTED BY IDOCK:   -4.07 KCAL/MOL
REMARK 922        TOTAL FREE ENERGY PREDICTED BY IDOCK:  -10.29 KCAL/MOL
REMARK 923 INTER-LIGAND FREE ENERGY PREDICTED BY IDOCK:   -8.59 KCAL/MOL
REMARK 924 INTRA-LIGAND FREE ENERGY PREDICTED BY IDOCK:   -1.70 KCAL/MOL
REMARK 927      BINDING AFFINITY PREDICTED BY RF-SCORE:    0.00 PKD
ROOT
HETATM    1  C   UNL     1      -8.239  13.424  67.797  1.00  0.00    -0.172 C  
HETATM    2  C   UNL     1      -9.346  14.290  68.381  1.00  0.00    -0.208 C  
ENDROOT
BRANCH   2   3
HETATM    3  N   UNL     1     -10.438  14.762  67.372  1.00  0.00    -0.254 N  
BRANCH   3   4
HETATM    4  C   UNL     1     -10.416  16.314  67.251  1.00  0.00    -0.300 C  
HETATM    5  C   UNL     1     -10.091  16.861  65.884  1.00  0.00    -0.302 C  
ENDBRANCH   3   4
BRANCH   3   6
HETATM    6  C   UNL     1     -11.849  14.430  67.913  1.00  0.00    -0.349 C  
BRANCH   6   7
HETATM    7  C   UNL     1     -12.185  14.446  69.401  1.00  0.00    -0.305 A  
HETATM    8  C   UNL     1     -12.685  13.147  71.426  1.00  0.00    -0.390 A  
HETATM    9  C   UNL     1     -12.439  15.597  70.165  1.00  0.00    -0.311 A  
HETATM   10  C   UNL     1     -12.270  13.218  70.090  1.00  0.00    -0.306 A  
HETATM   11  C   UNL     1     -12.794  15.537  71.514  1.00  0.00    -0.519 A  
HETATM   12 CL   UNL     1     -11.895  11.730  69.291  1.00  0.00    -0.374 Cl 
HETATM   13  C   UNL     1     -12.943  14.311  72.139  1.00  0.00    -0.456 A  
ENDBRANCH   6   7
ENDBRANCH   3   6
BRANCH   3  14
HETATM   14  C   UNL     1     -10.122  14.017  66.013  1.00  0.00    -0.315 C  
BRANCH  14  15
HETATM   15  C   UNL     1     -11.152  12.933  65.542  1.00  0.00    -0.278 C  
BRANCH  15  16
HETATM   16  N   UNL     1     -10.957  11.563  65.994  1.00  0.00    -0.284 N  
HETATM   17  H   UNL     1     -11.505  11.197  66.773  1.00  0.00     0.000 HD 
HETATM   18  C   UNL     1     -10.019  10.755  65.357  1.00  0.00    -0.271 C  
HETATM   19  O   UNL     1      -9.471  11.053  64.310  1.00  0.00    -0.221 OA 
BRANCH  18  20
HETATM   20  C   UNL     1      -9.800   9.371  66.017  1.00  0.00    -0.296 C  
HETATM   21  N   UNL     1      -8.639   8.699  65.630  1.00  0.00    -0.159 N  
HETATM   22  O   UNL     1     -10.598   8.928  66.825  1.00  0.00    -0.243 OA 
HETATM   23  H   UNL     1      -8.162   8.936  64.760  1.00  0.00     0.000 HD 
BRANCH  21  24
HETATM   24  C   UNL     1      -8.124   7.648  66.499  1.00  0.00    -0.119 C  
BRANCH  24  25
HETATM   25  C   UNL     1      -8.199   6.210  65.918  1.00  0.00    -0.131 C  
BRANCH  25  26
HETATM   26  N   UNL     1      -8.263   5.084  66.978  1.00  0.00    -0.107 N  
BRANCH  26  27
HETATM   27  C   UNL     1      -9.723   4.564  67.129  1.00  0.00    -0.197 C  
HETATM   28  C   UNL     1     -10.606   4.743  65.902  1.00  0.00    -0.290 C  
ENDBRANCH  26  27
BRANCH  26  29
HETATM   29  C   UNL     1      -7.301   3.951  66.524  1.00  0.00    -0.072 C  
HETATM   30  C   UNL     1      -7.906   2.559  66.484  1.00  0.00    -0.076 C  
ENDBRANCH  26  29
BRANCH  26  31
HETATM   31  C   UNL     1      -7.814   5.633  68.384  1.00  0.00    -0.092 C  
BRANCH  31  32
HETATM   32  C   UNL     1      -8.532   5.146  69.631  1.00  0.00    -0.093 A  
HETATM   33  C   UNL     1      -8.339   3.830  70.100  1.00  0.00    -0.084 A  
HETATM   34  C   UNL     1      -9.086   3.317  71.166  1.00  0.00    -0.181 A  
HETATM   35  C   UNL     1     -10.058   4.100  71.775  1.00  0.00    -0.212 A  
HETATM   36  C   UNL     1     -10.256   5.408  71.345  1.00  0.00    -0.279 A  
HETATM   37  C   UNL     1      -9.497   5.932  70.292  1.00  0.00    -0.162 A  
HETATM   38 CL   UNL     1      -9.828   7.564  69.835  1.00  0.00    -0.185 Cl 
ENDBRANCH  31  32
ENDBRANCH  26  31
ENDBRANCH  25  26
ENDBRANCH  24  25
ENDBRANCH  21  24
ENDBRANCH  18  20
ENDBRANCH  15  16
ENDBRANCH  14  15
ENDBRANCH   3  14
ENDBRANCH   2   3
TORSDOF 15
ENDMDL
MODEL      239
REMARK 921   NORMALIZED FREE ENERGY PREDICTED BY IDOCK:   -4.04 KCAL/MOL
REMARK 922        TOTAL FREE ENERGY PREDICTED BY IDOCK:  -10.24 KCAL/MOL
REMARK 923 INTER-LIGAND FREE ENERGY PREDICTED BY IDOCK:   -8.68 KCAL/MOL
REMARK 924 INTRA-LIGAND FREE ENERGY PREDICTED BY IDOCK:   -1.55 KCAL/MOL
REMARK 927      BINDING AFFINITY PREDICTED BY RF-SCORE:    0.00 PKD
ROOT
HETATM    1  C   UNL     1     -11.694  14.667  69.362  1.00  0.00    -0.355 C  
HETATM    2  C   UNL     1     -10.472  15.111  68.571  1.00  0.00    -0.233 C  
ENDROOT
BRANCH   2   3
HETATM    3  N   UNL     1      -9.818  14.019  67.669  1.00  0.00    -0.229 N  
BRANCH   3   4
HETATM    4  C   UNL     1      -9.314  14.656  66.341  1.00  0.00    -0.284 C  
HETATM    5  C   UNL     1      -9.849  16.031  66.029  1.00  0.00    -0.365 C  
ENDBRANCH   3   4
BRANCH   3   6
HETATM    6  C   UNL     1     -10.875  12.979  67.230  1.00  0.00    -0.252 C  
BRANCH   6   7
HETATM    7  C   UNL     1     -10.978  12.465  65.797  1.00  0.00    -0.333 A  
HETATM    8  C   UNL     1     -12.221  12.476  63.677  1.00  0.00    -0.642 A  
HETATM    9  C   UNL     1     -10.146  11.491  65.220  1.00  0.00    -0.314 A  
HETATM   10  C   UNL     1     -11.993  12.981  64.963  1.00  0.00    -0.397 A  
HETATM   11  C   UNL     1     -10.330  11.027  63.916  1.00  0.00    -0.436 A  
HETATM   12 CL   UNL     1     -13.033  14.248  65.518  1.00  0.00    -0.386 Cl 
HETATM   13  C   UNL     1     -11.383  11.499  63.152  1.00  0.00    -0.068 A  
ENDBRANCH   6   7
ENDBRANCH   3   6
BRANCH   3  14
HETATM   14  C   UNL     1      -8.664  13.376  68.540  1.00  0.00    -0.071 C  
BRANCH  14  15
HETATM   15  C   UNL     1      -8.313  11.874  68.255  1.00  0.00    -0.159 C  
BRANCH  15  16
HETATM   16  N   UNL     1      -8.155  10.981  69.393  1.00  0.00    -0.379 N  
HETATM   17  H   UNL     1      -7.459  11.183  70.111  1.00  0.00     0.000 HD 
HETATM   18  C   UNL     1      -8.959   9.850  69.497  1.00  0.00    -0.211 C  
HETATM   19  O   UNL     1      -9.932   9.645  68.791  1.00  0.00    -0.163 OA 
BRANCH  18  20
HETATM   20  C   UNL     1      -8.602   8.904  70.671  1.00  0.00    -0.194 C  
HETATM   21  N   UNL     1      -7.812   7.803  70.335  1.00  0.00    -0.089 N  
HETATM   22  O   UNL     1      -8.988   9.138  71.804  1.00  0.00    -0.345 OA 
HETATM   23  H   UNL     1      -7.759   7.471  69.372  1.00  0.00     0.000 HD 
BRANCH  21  24
HETATM   24  C   UNL     1      -7.065   7.137  71.395  1.00  0.00    -0.065 C  
BRANCH  24  25
HETATM   25  C   UNL     1      -7.346   5.617  71.550  1.00  0.00    -0.087 C  
BRANCH  25  26
HETATM   26  N   UNL     1      -7.984   5.209  72.900  1.00  0.00    -0.101 N  
BRANCH  26  27
HETATM   27  C   UNL     1      -7.304   3.921  73.452  1.00  0.00    -0.069 C  
HETATM   28  C   UNL     1      -7.448   2.684  72.577  1.00  0.00    -0.047 C  
ENDBRANCH  26  27
BRANCH  26  29
HETATM   29  C   UNL     1      -7.820   6.403  73.881  1.00  0.00    -0.094 C  
HETATM   30  C   UNL     1      -6.453   6.529  74.531  1.00  0.00    -0.081 C  
ENDBRANCH  26  29
BRANCH  26  31
HETATM   31  C   UNL     1      -9.512   4.885  72.704  1.00  0.00    -0.137 C  
BRANCH  31  32
HETATM   32  C   UNL     1     -10.196   5.300  71.413  1.00  0.00    -0.279 A  
HETATM   33  C   UNL     1      -9.894   4.645  70.200  1.00  0.00    -0.306 A  
HETATM   34  C   UNL     1     -10.409   5.093  68.979  1.00  0.00    -0.205 A  
HETATM   35  C   UNL     1     -11.222   6.217  68.938  1.00  0.00    -0.387 A  
HETATM   36  C   UNL     1     -11.551   6.872  70.121  1.00  0.00    -0.340 A  
HETATM   37  C   UNL     1     -11.054   6.416  71.346  1.00  0.00    -0.277 A  
HETATM   38 CL   UNL     1     -11.521   7.305  72.752  1.00  0.00    -0.300 Cl 
ENDBRANCH  31  32
ENDBRANCH  26  31
ENDBRANCH  25  26
ENDBRANCH  24  25
ENDBRANCH  21  24
ENDBRANCH  18  20
ENDBRANCH  15  16
ENDBRANCH  14  15
ENDBRANCH   3  14
ENDBRANCH   2   3
TORSDOF 15
ENDMDL
MODEL      240
REMARK 921   NORMALIZED FREE ENERGY PREDICTED BY IDOCK:   -4.01 KCAL/MOL
REMARK 922        TOTAL FREE ENERGY PREDICTED BY IDOCK:  -10.18 KCAL/MOL
REMARK 923 INTER-LIGAND FREE ENERGY PREDICTED BY IDOCK:   -9.40 KCAL/MOL
REMARK 924 INTRA-LIGAND FREE ENERGY PREDICTED BY IDOCK:   -0.78 KCAL/MOL
REMARK 927      BINDING AFFINITY PREDICTED BY RF-SCORE:    0.00 PKD
ROOT
HETATM    1  C   UNL     1      -6.552   7.452  67.780  1.00  0.00    -0.057 C  
HETATM    2  C   UNL     1      -7.840   7.713  68.546  1.00  0.00    -0.121 C  
ENDROOT
BRANCH   2   3
HETATM    3  N   UNL     1      -8.613   9.008  68.146  1.00  0.00    -0.129 N  
BRANCH   3   4
HETATM    4  C   UNL     1      -8.214  10.180  69.090  1.00  0.00    -0.145 C  
HETATM    5  C   UNL     1      -7.581   9.782  70.399  1.00  0.00    -0.165 C  
ENDBRANCH   3   4
BRANCH   3   6
HETATM    6  C   UNL     1     -10.132   8.820  68.374  1.00  0.00    -0.190 C  
BRANCH   6   7
HETATM    7  C   UNL     1     -10.700   8.146  69.620  1.00  0.00    -0.196 A  
HETATM    8  C   UNL     1     -11.675   8.417  71.860  1.00  0.00    -0.398 A  
HETATM    9  C   UNL     1     -10.723   6.762  69.858  1.00  0.00    -0.290 A  
HETATM   10  C   UNL     1     -11.240   8.955  70.642  1.00  0.00    -0.266 A  
HETATM   11  C   UNL     1     -11.211   6.214  71.045  1.00  0.00    -0.361 A  
HETATM   12 CL   UNL     1     -11.355  10.670  70.442  1.00  0.00    -0.395 Cl 
HETATM   13  C   UNL     1     -11.663   7.041  72.058  1.00  0.00    -0.332 A  
ENDBRANCH   6   7
ENDBRANCH   3   6
BRANCH   3  14
HETATM   14  C   UNL     1      -8.260   9.270  66.626  1.00  0.00    -0.115 C  
BRANCH  14  15
HETATM   15  C   UNL     1      -9.451   9.249  65.607  1.00  0.00    -0.256 C  
BRANCH  15  16
HETATM   16  N   UNL     1     -10.308  10.423  65.534  1.00  0.00    -0.238 N  
HETATM   17  H   UNL     1     -10.863  10.704  66.342  1.00  0.00     0.000 HD 
HETATM   18  C   UNL     1     -10.365  11.161  64.355  1.00  0.00    -0.344 C  
HETATM   19  O   UNL     1      -9.595  11.004  63.422  1.00  0.00    -0.265 OA 
BRANCH  18  20
HETATM   20  C   UNL     1     -11.417  12.298  64.350  1.00  0.00    -0.354 C  
HETATM   21  N   UNL     1     -11.916  12.659  65.603  1.00  0.00    -0.440 N  
HETATM   22  O   UNL     1     -11.757  12.832  63.308  1.00  0.00    -0.515 OA 
HETATM   23  H   UNL     1     -11.852  12.020  66.395  1.00  0.00     0.000 HD 
BRANCH  21  24
HETATM   24  C   UNL     1     -12.533  13.972  65.751  1.00  0.00    -0.494 C  
BRANCH  24  25
HETATM   25  C   UNL     1     -11.594  15.179  65.483  1.00  0.00    -0.142 C  
BRANCH  25  26
HETATM   26  N   UNL     1     -10.505  15.405  66.560  1.00  0.00    -0.288 N  
BRANCH  26  27
HETATM   27  C   UNL     1      -9.088  15.367  65.914  1.00  0.00    -0.153 C  
HETATM   28  C   UNL     1      -7.925  15.462  66.893  1.00  0.00    -0.230 C  
ENDBRANCH  26  27
BRANCH  26  29
HETATM   29  C   UNL     1     -10.784  16.776  67.235  1.00  0.00    -0.213 C  
HETATM   30  C   UNL     1     -10.489  17.996  66.379  1.00  0.00    -0.345 C  
ENDBRANCH  26  29
BRANCH  26  31
HETATM   31  C   UNL     1     -10.559  14.260  67.639  1.00  0.00    -0.253 C  
BRANCH  31  32
HETATM   32  C   UNL     1     -11.111  14.571  69.020  1.00  0.00    -0.279 A  
HETATM   33  C   UNL     1     -12.458  14.291  69.332  1.00  0.00    -0.112 A  
HETATM   34  C   UNL     1     -13.024  14.687  70.548  1.00  0.00    -0.319 A  
HETATM   35  C   UNL     1     -12.263  15.390  71.473  1.00  0.00    -0.433 A  
HETATM   36  C   UNL     1     -10.926  15.662  71.199  1.00  0.00    -0.245 A  
HETATM   37  C   UNL     1     -10.351  15.251  69.992  1.00  0.00    -0.221 A  
HETATM   38 CL   UNL     1      -8.687  15.645  69.752  1.00  0.00    -0.100 Cl 
ENDBRANCH  31  32
ENDBRANCH  26  31
ENDBRANCH  25  26
ENDBRANCH  24  25
ENDBRANCH  21  24
ENDBRANCH  18  20
ENDBRANCH  15  16
ENDBRANCH  14  15
ENDBRANCH   3  14
ENDBRANCH   2   3
TORSDOF 15
ENDMDL
MODEL      241
REMARK 921   NORMALIZED FREE ENERGY PREDICTED BY IDOCK:   -4.00 KCAL/MOL
REMARK 922        TOTAL FREE ENERGY PREDICTED BY IDOCK:  -10.17 KCAL/MOL
REMARK 923 INTER-LIGAND FREE ENERGY PREDICTED BY IDOCK:   -8.19 KCAL/MOL
REMARK 924 INTRA-LIGAND FREE ENERGY PREDICTED BY IDOCK:   -1.99 KCAL/MOL
REMARK 927      BINDING AFFINITY PREDICTED BY RF-SCORE:    0.00 PKD
ROOT
HETATM    1  C   UNL     1     -11.454  15.400  64.531  1.00  0.00    -0.314 C  
HETATM    2  C   UNL     1     -10.379  14.324  64.502  1.00  0.00    -0.038 C  
ENDROOT
BRANCH   2   3
HETATM    3  N   UNL     1     -10.893  12.859  64.354  1.00  0.00    -0.356 N  
BRANCH   3   4
HETATM    4  C   UNL     1     -12.189  12.834  63.493  1.00  0.00    -0.525 C  
HETATM    5  C   UNL     1     -13.160  11.722  63.800  1.00  0.00    -0.063 C  
ENDBRANCH   3   4
BRANCH   3   6
HETATM    6  C   UNL     1     -11.325  12.299  65.730  1.00  0.00    -0.355 C  
BRANCH   6   7
HETATM    7  C   UNL     1     -11.247  13.119  67.014  1.00  0.00    -0.325 A  
HETATM    8  C   UNL     1      -9.854  13.955  68.857  1.00  0.00    -0.041 A  
HETATM    9  C   UNL     1     -12.342  13.701  67.675  1.00  0.00    -0.054 A  
HETATM   10  C   UNL     1      -9.988  13.313  67.620  1.00  0.00    -0.229 A  
HETATM   11  C   UNL     1     -12.207  14.396  68.878  1.00  0.00    -0.214 A  
HETATM   12 CL   UNL     1      -8.546  12.724  66.867  1.00  0.00    -0.176 Cl 
HETATM   13  C   UNL     1     -10.967  14.502  69.484  1.00  0.00    -0.253 A  
ENDBRANCH   6   7
ENDBRANCH   3   6
BRANCH   3  14
HETATM   14  C   UNL     1      -9.695  12.043  63.719  1.00  0.00    -0.173 C  
BRANCH  14  15
HETATM   15  C   UNL     1      -9.771  10.480  63.816  1.00  0.00    -0.326 C  
BRANCH  15  16
HETATM   16  N   UNL     1      -9.131   9.834  64.953  1.00  0.00    -0.214 N  
HETATM   17  H   UNL     1      -9.648   9.689  65.819  1.00  0.00     0.000 HD 
HETATM   18  C   UNL     1      -7.808   9.414  64.849  1.00  0.00    -0.117 C  
HETATM   19  O   UNL     1      -7.191   9.377  63.798  1.00  0.00    -0.097 OA 
BRANCH  18  20
HETATM   20  C   UNL     1      -7.193   8.873  66.164  1.00  0.00    -0.090 C  
HETATM   21  N   UNL     1      -8.106   8.585  67.180  1.00  0.00    -0.104 N  
HETATM   22  O   UNL     1      -5.989   8.711  66.272  1.00  0.00    -0.049 OA 
HETATM   23  H   UNL     1      -9.038   9.000  67.179  1.00  0.00     0.000 HD 
BRANCH  21  24
HETATM   24  C   UNL     1      -7.697   7.674  68.242  1.00  0.00    -0.120 C  
BRANCH  24  25
HETATM   25  C   UNL     1      -8.542   6.377  68.365  1.00  0.00    -0.115 C  
BRANCH  25  26
HETATM   26  N   UNL     1      -9.553   6.370  69.537  1.00  0.00    -0.144 N  
BRANCH  26  27
HETATM   27  C   UNL     1     -11.008   6.504  68.998  1.00  0.00    -0.321 C  
HETATM   28  C   UNL     1     -11.138   6.548  67.482  1.00  0.00    -0.396 C  
ENDBRANCH  26  27
BRANCH  26  29
HETATM   29  C   UNL     1      -9.359   5.044  70.323  1.00  0.00    -0.154 C  
HETATM   30  C   UNL     1      -8.790   5.193  71.723  1.00  0.00    -0.144 C  
ENDBRANCH  26  29
BRANCH  26  31
HETATM   31  C   UNL     1      -9.292   7.597  70.489  1.00  0.00    -0.163 C  
BRANCH  31  32
HETATM   32  C   UNL     1     -10.469   8.447  70.937  1.00  0.00    -0.235 A  
HETATM   33  C   UNL     1     -11.363   7.971  71.919  1.00  0.00    -0.336 A  
HETATM   34  C   UNL     1     -12.525   8.676  72.253  1.00  0.00    -0.460 A  
HETATM   35  C   UNL     1     -12.830   9.863  71.601  1.00  0.00    -0.537 A  
HETATM   36  C   UNL     1     -11.956  10.366  70.643  1.00  0.00    -0.448 A  
HETATM   37  C   UNL     1     -10.783   9.674  70.319  1.00  0.00    -0.281 A  
HETATM   38 CL   UNL     1      -9.772  10.384  69.113  1.00  0.00    -0.222 Cl 
ENDBRANCH  31  32
ENDBRANCH  26  31
ENDBRANCH  25  26
ENDBRANCH  24  25
ENDBRANCH  21  24
ENDBRANCH  18  20
ENDBRANCH  15  16
ENDBRANCH  14  15
ENDBRANCH   3  14
ENDBRANCH   2   3
TORSDOF 15
ENDMDL
MODEL      242
REMARK 921   NORMALIZED FREE ENERGY PREDICTED BY IDOCK:   -3.99 KCAL/MOL
REMARK 922        TOTAL FREE ENERGY PREDICTED BY IDOCK:  -10.15 KCAL/MOL
REMARK 923 INTER-LIGAND FREE ENERGY PREDICTED BY IDOCK:   -8.10 KCAL/MOL
REMARK 924 INTRA-LIGAND FREE ENERGY PREDICTED BY IDOCK:   -2.06 KCAL/MOL
REMARK 927      BINDING AFFINITY PREDICTED BY RF-SCORE:    0.00 PKD
ROOT
HETATM    1  C   UNL     1      -9.717  10.789  64.551  1.00  0.00    -0.351 C  
HETATM    2  C   UNL     1     -10.173  10.513  65.976  1.00  0.00    -0.245 C  
ENDROOT
BRANCH   2   3
HETATM    3  N   UNL     1      -9.409  11.288  67.093  1.00  0.00    -0.162 N  
BRANCH   3   4
HETATM    4  C   UNL     1     -10.382  11.643  68.255  1.00  0.00    -0.200 C  
HETATM    5  C   UNL     1     -11.851  11.570  67.927  1.00  0.00    -0.255 C  
ENDBRANCH   3   4
BRANCH   3   6
HETATM    6  C   UNL     1      -8.918  12.654  66.560  1.00  0.00    -0.112 C  
BRANCH   6   7
HETATM    7  C   UNL     1      -9.172  13.966  67.298  1.00  0.00    -0.235 A  
HETATM    8  C   UNL     1      -8.527  15.469  69.132  1.00  0.00    -0.248 A  
HETATM    9  C   UNL     1     -10.233  14.850  67.045  1.00  0.00    -0.256 A  
HETATM   10  C   UNL     1      -8.293  14.340  68.336  1.00  0.00    -0.164 A  
HETATM   11  C   UNL     1     -10.437  16.009  67.795  1.00  0.00    -0.298 A  
HETATM   12 CL   UNL     1      -6.894  13.388  68.696  1.00  0.00    -0.092 Cl 
HETATM   13  C   UNL     1      -9.601  16.307  68.856  1.00  0.00    -0.243 A  
ENDBRANCH   6   7
ENDBRANCH   3   6
BRANCH   3  14
HETATM   14  C   UNL     1      -8.215  10.347  67.532  1.00  0.00    -0.114 C  
BRANCH  14  15
HETATM   15  C   UNL     1      -8.356   8.821  67.200  1.00  0.00    -0.103 C  
BRANCH  15  16
HETATM   16  N   UNL     1      -8.915   7.948  68.222  1.00  0.00    -0.133 N  
HETATM   17  H   UNL     1      -8.445   7.845  69.121  1.00  0.00     0.000 HD 
HETATM   18  C   UNL     1     -10.094   7.255  67.964  1.00  0.00    -0.172 C  
HETATM   19  O   UNL     1     -10.808   7.472  67.000  1.00  0.00    -0.348 OA 
BRANCH  18  20
HETATM   20  C   UNL     1     -10.511   6.251  69.067  1.00  0.00    -0.237 C  
HETATM   21  N   UNL     1      -9.519   5.355  69.471  1.00  0.00    -0.126 N  
HETATM   22  O   UNL     1     -11.635   6.272  69.541  1.00  0.00    -0.423 OA 
HETATM   23  H   UNL     1      -8.717   5.159  68.872  1.00  0.00     0.000 HD 
BRANCH  21  24
HETATM   24  C   UNL     1      -9.657   4.707  70.769  1.00  0.00    -0.181 C  
BRANCH  24  25
HETATM   25  C   UNL     1      -8.949   5.428  71.948  1.00  0.00    -0.135 C  
BRANCH  25  26
HETATM   26  N   UNL     1      -9.623   5.232  73.328  1.00  0.00    -0.141 N  
BRANCH  26  27
HETATM   27  C   UNL     1     -10.909   4.365  73.184  1.00  0.00    -0.240 C  
HETATM   28  C   UNL     1     -10.993   3.167  74.120  1.00  0.00    -0.140 C  
ENDBRANCH  26  27
BRANCH  26  29
HETATM   29  C   UNL     1      -8.588   4.558  74.270  1.00  0.00    -0.103 C  
HETATM   30  C   UNL     1      -7.145   4.984  74.063  1.00  0.00    -0.082 C  
ENDBRANCH  26  29
BRANCH  26  31
HETATM   31  C   UNL     1     -10.060   6.622  73.923  1.00  0.00    -0.324 C  
BRANCH  31  32
HETATM   32  C   UNL     1     -10.596   7.692  72.986  1.00  0.00    -0.433 A  
HETATM   33  C   UNL     1     -11.980   7.791  72.731  1.00  0.00    -0.183 A  
HETATM   34  C   UNL     1     -12.484   8.679  71.774  1.00  0.00    -0.397 A  
HETATM   35  C   UNL     1     -11.616   9.473  71.037  1.00  0.00    -0.419 A  
HETATM   36  C   UNL     1     -10.248   9.409  71.282  1.00  0.00    -0.340 A  
HETATM   37  C   UNL     1      -9.741   8.537  72.251  1.00  0.00    -0.310 A  
HETATM   38 CL   UNL     1      -8.028   8.534  72.472  1.00  0.00    -0.151 Cl 
ENDBRANCH  31  32
ENDBRANCH  26  31
ENDBRANCH  25  26
ENDBRANCH  24  25
ENDBRANCH  21  24
ENDBRANCH  18  20
ENDBRANCH  15  16
ENDBRANCH  14  15
ENDBRANCH   3  14
ENDBRANCH   2   3
TORSDOF 15
ENDMDL
MODEL      243
REMARK 921   NORMALIZED FREE ENERGY PREDICTED BY IDOCK:   -3.98 KCAL/MOL
REMARK 922        TOTAL FREE ENERGY PREDICTED BY IDOCK:  -10.12 KCAL/MOL
REMARK 923 INTER-LIGAND FREE ENERGY PREDICTED BY IDOCK:   -9.19 KCAL/MOL
REMARK 924 INTRA-LIGAND FREE ENERGY PREDICTED BY IDOCK:   -0.94 KCAL/MOL
REMARK 927      BINDING AFFINITY PREDICTED BY RF-SCORE:    0.00 PKD
ROOT
HETATM    1  C   UNL     1      -5.765  19.967  69.526  1.00  0.00    -0.307 C  
HETATM    2  C   UNL     1      -5.867  18.470  69.777  1.00  0.00    -0.254 C  
ENDROOT
BRANCH   2   3
HETATM    3  N   UNL     1      -6.283  17.606  68.546  1.00  0.00    -0.177 N  
BRANCH   3   4
HETATM    4  C   UNL     1      -6.092  18.421  67.234  1.00  0.00    -0.161 C  
HETATM    5  C   UNL     1      -5.752  17.616  66.005  1.00  0.00    -0.222 C  
ENDBRANCH   3   4
BRANCH   3   6
HETATM    6  C   UNL     1      -7.797  17.291  68.596  1.00  0.00    -0.272 C  
BRANCH   6   7
HETATM    7  C   UNL     1      -8.846  18.189  67.949  1.00  0.00    -0.273 A  
HETATM    8  C   UNL     1     -10.446  18.514  66.112  1.00  0.00    -0.447 A  
HETATM    9  C   UNL     1      -9.174  19.489  68.367  1.00  0.00    -0.412 A  
HETATM   10  C   UNL     1      -9.552  17.707  66.826  1.00  0.00    -0.294 A  
HETATM   11  C   UNL     1     -10.110  20.278  67.695  1.00  0.00    -0.515 A  
HETATM   12 CL   UNL     1      -9.311  16.090  66.259  1.00  0.00    -0.325 Cl 
HETATM   13  C   UNL     1     -10.727  19.802  66.552  1.00  0.00    -0.508 A  
ENDBRANCH   6   7
ENDBRANCH   3   6
BRANCH   3  14
HETATM   14  C   UNL     1      -5.392  16.300  68.615  1.00  0.00    -0.101 C  
BRANCH  14  15
HETATM   15  C   UNL     1      -5.980  15.082  69.408  1.00  0.00    -0.106 C  
BRANCH  15  16
HETATM   16  N   UNL     1      -6.991  14.264  68.754  1.00  0.00    -0.096 N  
HETATM   17  H   UNL     1      -7.978  14.389  68.982  1.00  0.00     0.000 HD 
HETATM   18  C   UNL     1      -6.605  13.311  67.816  1.00  0.00    -0.155 C  
HETATM   19  O   UNL     1      -5.479  13.236  67.354  1.00  0.00    -0.334 OA 
BRANCH  18  20
HETATM   20  C   UNL     1      -7.751  12.408  67.297  1.00  0.00    -0.158 C  
HETATM   21  N   UNL     1      -7.450  11.048  67.206  1.00  0.00    -0.102 N  
HETATM   22  O   UNL     1      -8.838  12.880  67.007  1.00  0.00    -0.205 OA 
HETATM   23  H   UNL     1      -6.482  10.729  67.162  1.00  0.00     0.000 HD 
BRANCH  21  24
HETATM   24  C   UNL     1      -8.552  10.094  67.176  1.00  0.00    -0.125 C  
BRANCH  24  25
HETATM   25  C   UNL     1      -9.525  10.168  68.384  1.00  0.00    -0.143 C  
BRANCH  25  26
HETATM   26  N   UNL     1      -9.476   8.945  69.332  1.00  0.00    -0.160 N  
BRANCH  26  27
HETATM   27  C   UNL     1     -10.628   7.952  68.996  1.00  0.00    -0.162 C  
HETATM   28  C   UNL     1     -10.317   6.485  69.257  1.00  0.00    -0.237 C  
ENDBRANCH  26  27
BRANCH  26  29
HETATM   29  C   UNL     1      -8.084   8.276  69.169  1.00  0.00    -0.120 C  
HETATM   30  C   UNL     1      -7.084   8.573  70.272  1.00  0.00    -0.043 C  
ENDBRANCH  26  29
BRANCH  26  31
HETATM   31  C   UNL     1      -9.675   9.405  70.824  1.00  0.00    -0.264 C  
BRANCH  31  32
HETATM   32  C   UNL     1     -11.076   9.421  71.412  1.00  0.00    -0.450 A  
HETATM   33  C   UNL     1     -11.559   8.314  72.140  1.00  0.00    -0.428 A  
HETATM   34  C   UNL     1     -12.887   8.250  72.577  1.00  0.00    -0.191 A  
HETATM   35  C   UNL     1     -13.767   9.281  72.280  1.00  0.00    -0.527 A  
HETATM   36  C   UNL     1     -13.313  10.394  71.580  1.00  0.00    -0.405 A  
HETATM   37  C   UNL     1     -11.981  10.471  71.158  1.00  0.00    -0.336 A  
HETATM   38 CL   UNL     1     -11.523  11.893  70.292  1.00  0.00    -0.167 Cl 
ENDBRANCH  31  32
ENDBRANCH  26  31
ENDBRANCH  25  26
ENDBRANCH  24  25
ENDBRANCH  21  24
ENDBRANCH  18  20
ENDBRANCH  15  16
ENDBRANCH  14  15
ENDBRANCH   3  14
ENDBRANCH   2   3
TORSDOF 15
ENDMDL
MODEL      244
REMARK 921   NORMALIZED FREE ENERGY PREDICTED BY IDOCK:   -3.97 KCAL/MOL
REMARK 922        TOTAL FREE ENERGY PREDICTED BY IDOCK:  -10.12 KCAL/MOL
REMARK 923 INTER-LIGAND FREE ENERGY PREDICTED BY IDOCK:   -8.26 KCAL/MOL
REMARK 924 INTRA-LIGAND FREE ENERGY PREDICTED BY IDOCK:   -1.86 KCAL/MOL
REMARK 927      BINDING AFFINITY PREDICTED BY RF-SCORE:    0.00 PKD
ROOT
HETATM    1  C   UNL     1      -8.744   6.542  67.790  1.00  0.00    -0.115 C  
HETATM    2  C   UNL     1      -8.899   6.962  66.336  1.00  0.00    -0.145 C  
ENDROOT
BRANCH   2   3
HETATM    3  N   UNL     1      -8.338   8.371  65.975  1.00  0.00    -0.118 N  
BRANCH   3   4
HETATM    4  C   UNL     1      -7.211   8.239  64.910  1.00  0.00    -0.081 C  
HETATM    5  C   UNL     1      -5.903   7.675  65.404  1.00  0.00    -0.038 C  
ENDBRANCH   3   4
BRANCH   3   6
HETATM    6  C   UNL     1      -7.644   9.005  67.204  1.00  0.00    -0.091 C  
BRANCH   6   7
HETATM    7  C   UNL     1      -7.640  10.508  67.463  1.00  0.00    -0.093 A  
HETATM    8  C   UNL     1      -8.858  12.469  68.307  1.00  0.00    -0.171 A  
HETATM    9  C   UNL     1      -6.625  11.399  67.072  1.00  0.00    -0.125 A  
HETATM   10  C   UNL     1      -8.738  11.084  68.135  1.00  0.00    -0.141 A  
HETATM   11  C   UNL     1      -6.710  12.774  67.295  1.00  0.00    -0.089 A  
HETATM   12 CL   UNL     1     -10.016  10.091  68.749  1.00  0.00    -0.170 Cl 
HETATM   13  C   UNL     1      -7.837  13.314  67.889  1.00  0.00    -0.152 A  
ENDBRANCH   6   7
ENDBRANCH   3   6
BRANCH   3  14
HETATM   14  C   UNL     1      -9.580   9.218  65.481  1.00  0.00    -0.220 C  
BRANCH  14  15
HETATM   15  C   UNL     1      -9.295  10.351  64.435  1.00  0.00    -0.272 C  
BRANCH  15  16
HETATM   16  N   UNL     1      -9.828  11.678  64.704  1.00  0.00    -0.293 N  
HETATM   17  H   UNL     1      -9.370  12.287  65.382  1.00  0.00     0.000 HD 
HETATM   18  C   UNL     1     -10.965  12.113  64.028  1.00  0.00    -0.380 C  
HETATM   19  O   UNL     1     -11.449  11.528  63.075  1.00  0.00    -0.100 OA 
BRANCH  18  20
HETATM   20  C   UNL     1     -11.518  13.480  64.502  1.00  0.00    -0.381 C  
HETATM   21  N   UNL     1     -10.567  14.374  64.998  1.00  0.00    -0.408 N  
HETATM   22  O   UNL     1     -12.708  13.735  64.423  1.00  0.00    -0.649 OA 
HETATM   23  H   UNL     1      -9.661  14.043  65.329  1.00  0.00     0.000 HD 
BRANCH  21  24
HETATM   24  C   UNL     1     -10.901  15.793  65.033  1.00  0.00    -0.443 C  
BRANCH  24  25
HETATM   25  C   UNL     1      -9.898  16.691  65.807  1.00  0.00    -0.211 C  
BRANCH  25  26
HETATM   26  N   UNL     1     -10.143  16.770  67.334  1.00  0.00    -0.270 N  
BRANCH  26  27
HETATM   27  C   UNL     1     -10.786  18.137  67.709  1.00  0.00    -0.335 C  
HETATM   28  C   UNL     1     -10.829  19.165  66.586  1.00  0.00    -0.369 C  
ENDBRANCH  26  27
BRANCH  26  29
HETATM   29  C   UNL     1     -11.065  15.583  67.727  1.00  0.00    -0.315 C  
HETATM   30  C   UNL     1     -11.682  15.668  69.112  1.00  0.00    -0.402 C  
ENDBRANCH  26  29
BRANCH  26  31
HETATM   31  C   UNL     1      -8.778  16.665  68.110  1.00  0.00    -0.201 C  
BRANCH  31  32
HETATM   32  C   UNL     1      -7.559  17.388  67.563  1.00  0.00    -0.201 A  
HETATM   33  C   UNL     1      -6.689  16.741  66.660  1.00  0.00    -0.241 A  
HETATM   34  C   UNL     1      -5.493  17.336  66.245  1.00  0.00    -0.161 A  
HETATM   35  C   UNL     1      -5.128  18.582  66.737  1.00  0.00    -0.141 A  
HETATM   36  C   UNL     1      -5.976  19.250  67.614  1.00  0.00    -0.211 A  
HETATM   37  C   UNL     1      -7.183  18.668  68.017  1.00  0.00    -0.246 A  
HETATM   38 CL   UNL     1      -8.158  19.582  69.111  1.00  0.00    -0.283 Cl 
ENDBRANCH  31  32
ENDBRANCH  26  31
ENDBRANCH  25  26
ENDBRANCH  24  25
ENDBRANCH  21  24
ENDBRANCH  18  20
ENDBRANCH  15  16
ENDBRANCH  14  15
ENDBRANCH   3  14
ENDBRANCH   2   3
TORSDOF 15
ENDMDL
MODEL      245
REMARK 921   NORMALIZED FREE ENERGY PREDICTED BY IDOCK:   -3.96 KCAL/MOL
REMARK 922        TOTAL FREE ENERGY PREDICTED BY IDOCK:  -10.10 KCAL/MOL
REMARK 923 INTER-LIGAND FREE ENERGY PREDICTED BY IDOCK:   -8.64 KCAL/MOL
REMARK 924 INTRA-LIGAND FREE ENERGY PREDICTED BY IDOCK:   -1.46 KCAL/MOL
REMARK 927      BINDING AFFINITY PREDICTED BY RF-SCORE:    0.00 PKD
ROOT
HETATM    1  C   UNL     1     -10.576   6.251  67.835  1.00  0.00    -0.327 C  
HETATM    2  C   UNL     1      -9.278   6.800  68.408  1.00  0.00    -0.123 C  
ENDROOT
BRANCH   2   3
HETATM    3  N   UNL     1      -9.318   8.291  68.866  1.00  0.00    -0.147 N  
BRANCH   3   4
HETATM    4  C   UNL     1      -7.992   9.005  68.473  1.00  0.00    -0.103 C  
HETATM    5  C   UNL     1      -7.738  10.333  69.140  1.00  0.00    -0.119 C  
ENDBRANCH   3   4
BRANCH   3   6
HETATM    6  C   UNL     1      -9.369   8.379  70.409  1.00  0.00    -0.161 C  
BRANCH   6   7
HETATM    7  C   UNL     1     -10.086   7.343  71.270  1.00  0.00    -0.195 A  
HETATM    8  C   UNL     1      -9.899   5.370  72.723  1.00  0.00    -0.180 A  
HETATM    9  C   UNL     1     -11.479   7.210  71.393  1.00  0.00    -0.303 A  
HETATM   10  C   UNL     1      -9.312   6.419  72.003  1.00  0.00    -0.151 A  
HETATM   11  C   UNL     1     -12.070   6.204  72.158  1.00  0.00    -0.263 A  
HETATM   12 CL   UNL     1      -7.585   6.524  72.012  1.00  0.00    -0.093 Cl 
HETATM   13  C   UNL     1     -11.282   5.267  72.803  1.00  0.00    -0.347 A  
ENDBRANCH   6   7
ENDBRANCH   3   6
BRANCH   3  14
HETATM   14  C   UNL     1     -10.600   8.918  68.183  1.00  0.00    -0.157 C  
BRANCH  14  15
HETATM   15  C   UNL     1     -10.406   9.564  66.768  1.00  0.00    -0.228 C  
BRANCH  15  16
HETATM   16  N   UNL     1     -10.610  11.000  66.638  1.00  0.00    -0.257 N  
HETATM   17  H   UNL     1     -11.453  11.434  67.015  1.00  0.00     0.000 HD 
HETATM   18  C   UNL     1      -9.649  11.777  65.999  1.00  0.00    -0.230 C  
HETATM   19  O   UNL     1      -8.540  11.367  65.698  1.00  0.00    -0.097 OA 
BRANCH  18  20
HETATM   20  C   UNL     1     -10.043  13.261  65.796  1.00  0.00    -0.286 C  
HETATM   21  N   UNL     1      -9.533  14.153  66.741  1.00  0.00    -0.269 N  
HETATM   22  O   UNL     1     -10.744  13.600  64.857  1.00  0.00    -0.343 OA 
HETATM   23  H   UNL     1      -9.218  13.823  67.654  1.00  0.00     0.000 HD 
BRANCH  21  24
HETATM   24  C   UNL     1      -9.462  15.566  66.392  1.00  0.00    -0.291 C  
BRANCH  24  25
HETATM   25  C   UNL     1     -10.345  16.507  67.256  1.00  0.00    -0.296 C  
BRANCH  25  26
HETATM   26  N   UNL     1      -9.779  17.935  67.446  1.00  0.00    -0.281 N  
BRANCH  26  27
HETATM   27  C   UNL     1     -10.484  18.931  66.479  1.00  0.00    -0.432 C  
HETATM   28  C   UNL     1      -9.595  20.035  65.922  1.00  0.00    -0.326 C  
ENDBRANCH  26  27
BRANCH  26  29
HETATM   29  C   UNL     1      -9.997  18.337  68.931  1.00  0.00    -0.339 C  
HETATM   30  C   UNL     1     -10.239  19.815  69.178  1.00  0.00    -0.299 C  
ENDBRANCH  26  29
BRANCH  26  31
HETATM   31  C   UNL     1      -8.242  17.961  67.108  1.00  0.00    -0.216 C  
BRANCH  31  32
HETATM   32  C   UNL     1      -7.257  18.404  68.177  1.00  0.00    -0.270 A  
HETATM   33  C   UNL     1      -6.732  19.714  68.168  1.00  0.00    -0.299 A  
HETATM   34  C   UNL     1      -5.728  20.105  69.059  1.00  0.00    -0.305 A  
HETATM   35  C   UNL     1      -5.211  19.191  69.968  1.00  0.00    -0.213 A  
HETATM   36  C   UNL     1      -5.723  17.899  70.012  1.00  0.00    -0.241 A  
HETATM   37  C   UNL     1      -6.741  17.509  69.135  1.00  0.00    -0.243 A  
HETATM   38 CL   UNL     1      -7.301  15.881  69.271  1.00  0.00    -0.211 Cl 
ENDBRANCH  31  32
ENDBRANCH  26  31
ENDBRANCH  25  26
ENDBRANCH  24  25
ENDBRANCH  21  24
ENDBRANCH  18  20
ENDBRANCH  15  16
ENDBRANCH  14  15
ENDBRANCH   3  14
ENDBRANCH   2   3
TORSDOF 15
ENDMDL
MODEL      246
REMARK 921   NORMALIZED FREE ENERGY PREDICTED BY IDOCK:   -3.96 KCAL/MOL
REMARK 922        TOTAL FREE ENERGY PREDICTED BY IDOCK:  -10.10 KCAL/MOL
REMARK 923 INTER-LIGAND FREE ENERGY PREDICTED BY IDOCK:   -8.80 KCAL/MOL
REMARK 924 INTRA-LIGAND FREE ENERGY PREDICTED BY IDOCK:   -1.30 KCAL/MOL
REMARK 927      BINDING AFFINITY PREDICTED BY RF-SCORE:    0.00 PKD
ROOT
HETATM    1  C   UNL     1      -8.161   8.293  73.570  1.00  0.00    -0.237 C  
HETATM    2  C   UNL     1      -9.338   8.353  72.607  1.00  0.00    -0.264 C  
ENDROOT
BRANCH   2   3
HETATM    3  N   UNL     1      -9.918   6.975  72.163  1.00  0.00    -0.165 N  
BRANCH   3   4
HETATM    4  C   UNL     1     -11.408   6.859  72.597  1.00  0.00    -0.235 C  
HETATM    5  C   UNL     1     -12.427   7.019  71.497  1.00  0.00    -0.426 C  
ENDBRANCH   3   4
BRANCH   3   6
HETATM    6  C   UNL     1      -9.202   5.824  72.907  1.00  0.00    -0.134 C  
BRANCH   6   7
HETATM    7  C   UNL     1      -9.689   4.379  72.853  1.00  0.00    -0.176 A  
HETATM    8  C   UNL     1      -9.616   2.210  71.700  1.00  0.00    -0.209 A  
HETATM    9  C   UNL     1     -10.669   3.819  73.689  1.00  0.00    -0.308 A  
HETATM   10  C   UNL     1      -9.138   3.514  71.884  1.00  0.00    -0.110 A  
HETATM   11  C   UNL     1     -11.107   2.500  73.550  1.00  0.00    -0.315 A  
HETATM   12 CL   UNL     1      -7.859   4.048  70.848  1.00  0.00    -0.055 Cl 
HETATM   13  C   UNL     1     -10.600   1.703  72.539  1.00  0.00    -0.224 A  
ENDBRANCH   6   7
ENDBRANCH   3   6
BRANCH   3  14
HETATM   14  C   UNL     1      -9.708   6.903  70.596  1.00  0.00    -0.175 C  
BRANCH  14  15
HETATM   15  C   UNL     1      -8.448   7.634  70.015  1.00  0.00    -0.136 C  
BRANCH  15  16
HETATM   16  N   UNL     1      -8.663   8.805  69.177  1.00  0.00    -0.134 N  
HETATM   17  H   UNL     1      -9.317   8.763  68.396  1.00  0.00     0.000 HD 
HETATM   18  C   UNL     1      -7.972   9.982  69.450  1.00  0.00    -0.145 C  
HETATM   19  O   UNL     1      -7.329  10.167  70.468  1.00  0.00    -0.292 OA 
BRANCH  18  20
HETATM   20  C   UNL     1      -8.175  11.110  68.407  1.00  0.00    -0.144 C  
HETATM   21  N   UNL     1      -8.578  12.342  68.926  1.00  0.00    -0.358 N  
HETATM   22  O   UNL     1      -7.976  10.909  67.221  1.00  0.00    -0.117 OA 
HETATM   23  H   UNL     1      -9.019  12.404  69.844  1.00  0.00     0.000 HD 
BRANCH  21  24
HETATM   24  C   UNL     1      -8.355  13.538  68.123  1.00  0.00    -0.167 C  
BRANCH  24  25
HETATM   25  C   UNL     1      -9.604  14.074  67.371  1.00  0.00    -0.227 C  
BRANCH  25  26
HETATM   26  N   UNL     1      -9.965  15.547  67.681  1.00  0.00    -0.232 N  
BRANCH  26  27
HETATM   27  C   UNL     1     -10.542  16.242  66.412  1.00  0.00    -0.253 C  
HETATM   28  C   UNL     1     -10.436  15.435  65.125  1.00  0.00    -0.439 C  
ENDBRANCH  26  27
BRANCH  26  29
HETATM   29  C   UNL     1     -10.995  15.547  68.845  1.00  0.00    -0.266 C  
HETATM   30  C   UNL     1     -11.877  14.315  68.935  1.00  0.00    -0.372 C  
ENDBRANCH  26  29
BRANCH  26  31
HETATM   31  C   UNL     1      -8.678  16.345  68.108  1.00  0.00    -0.191 C  
BRANCH  31  32
HETATM   32  C   UNL     1      -8.273  17.575  67.312  1.00  0.00    -0.222 A  
HETATM   33  C   UNL     1      -7.242  17.497  66.351  1.00  0.00    -0.326 A  
HETATM   34  C   UNL     1      -6.762  18.639  65.701  1.00  0.00    -0.309 A  
HETATM   35  C   UNL     1      -7.287  19.887  66.010  1.00  0.00    -0.324 A  
HETATM   36  C   UNL     1      -8.316  19.990  66.940  1.00  0.00    -0.376 A  
HETATM   37  C   UNL     1      -8.813  18.849  67.578  1.00  0.00    -0.278 A  
HETATM   38 CL   UNL     1     -10.088  19.090  68.718  1.00  0.00    -0.457 Cl 
ENDBRANCH  31  32
ENDBRANCH  26  31
ENDBRANCH  25  26
ENDBRANCH  24  25
ENDBRANCH  21  24
ENDBRANCH  18  20
ENDBRANCH  15  16
ENDBRANCH  14  15
ENDBRANCH   3  14
ENDBRANCH   2   3
TORSDOF 15
ENDMDL
MODEL      247
REMARK 921   NORMALIZED FREE ENERGY PREDICTED BY IDOCK:   -3.96 KCAL/MOL
REMARK 922        TOTAL FREE ENERGY PREDICTED BY IDOCK:  -10.10 KCAL/MOL
REMARK 923 INTER-LIGAND FREE ENERGY PREDICTED BY IDOCK:   -8.47 KCAL/MOL
REMARK 924 INTRA-LIGAND FREE ENERGY PREDICTED BY IDOCK:   -1.63 KCAL/MOL
REMARK 927      BINDING AFFINITY PREDICTED BY RF-SCORE:    0.00 PKD
ROOT
HETATM    1  C   UNL     1      -5.912  14.868  70.484  1.00  0.00    -0.134 C  
HETATM    2  C   UNL     1      -5.787  15.576  69.143  1.00  0.00    -0.106 C  
ENDROOT
BRANCH   2   3
HETATM    3  N   UNL     1      -7.128  16.038  68.495  1.00  0.00    -0.128 N  
BRANCH   3   4
HETATM    4  C   UNL     1      -6.951  16.191  66.956  1.00  0.00    -0.199 C  
HETATM    5  C   UNL     1      -5.743  16.975  66.509  1.00  0.00    -0.144 C  
ENDBRANCH   3   4
BRANCH   3   6
HETATM    6  C   UNL     1      -7.505  17.454  68.990  1.00  0.00    -0.185 C  
BRANCH   6   7
HETATM    7  C   UNL     1      -8.580  18.303  68.317  1.00  0.00    -0.299 A  
HETATM    8  C   UNL     1      -9.193  20.470  67.332  1.00  0.00    -0.481 A  
HETATM    9  C   UNL     1      -9.916  17.919  68.121  1.00  0.00    -0.350 A  
HETATM   10  C   UNL     1      -8.236  19.591  67.855  1.00  0.00    -0.310 A  
HETATM   11  C   UNL     1     -10.863  18.767  67.544  1.00  0.00    -0.396 A  
HETATM   12 CL   UNL     1      -6.603  20.158  67.952  1.00  0.00    -0.286 Cl 
HETATM   13  C   UNL     1     -10.509  20.052  67.173  1.00  0.00    -0.513 A  
ENDBRANCH   6   7
ENDBRANCH   3   6
BRANCH   3  14
HETATM   14  C   UNL     1      -8.202  14.951  68.903  1.00  0.00    -0.171 C  
BRANCH  14  15
HETATM   15  C   UNL     1      -8.902  14.171  67.736  1.00  0.00    -0.185 C  
BRANCH  15  16
HETATM   16  N   UNL     1      -9.382  12.824  68.006  1.00  0.00    -0.207 N  
HETATM   17  H   UNL     1      -8.923  12.247  68.711  1.00  0.00     0.000 HD 
HETATM   18  C   UNL     1     -10.471  12.327  67.296  1.00  0.00    -0.218 C  
HETATM   19  O   UNL     1     -11.184  13.014  66.584  1.00  0.00    -0.288 OA 
BRANCH  18  20
HETATM   20  C   UNL     1     -10.798  10.837  67.567  1.00  0.00    -0.288 C  
HETATM   21  N   UNL     1     -10.443   9.950  66.549  1.00  0.00    -0.181 N  
HETATM   22  O   UNL     1     -11.319  10.490  68.613  1.00  0.00    -0.263 OA 
HETATM   23  H   UNL     1     -10.297  10.280  65.595  1.00  0.00     0.000 HD 
BRANCH  21  24
HETATM   24  C   UNL     1     -10.287   8.539  66.882  1.00  0.00    -0.297 C  
BRANCH  24  25
HETATM   25  C   UNL     1      -8.828   8.079  67.149  1.00  0.00    -0.131 C  
BRANCH  25  26
HETATM   26  N   UNL     1      -8.637   7.247  68.441  1.00  0.00    -0.124 N  
BRANCH  26  27
HETATM   27  C   UNL     1      -7.272   6.498  68.406  1.00  0.00    -0.085 C  
HETATM   28  C   UNL     1      -7.231   5.263  67.516  1.00  0.00    -0.071 C  
ENDBRANCH  26  27
BRANCH  26  29
HETATM   29  C   UNL     1      -8.718   8.221  69.648  1.00  0.00    -0.138 C  
HETATM   30  C   UNL     1      -7.819   9.442  69.562  1.00  0.00    -0.091 C  
ENDBRANCH  26  29
BRANCH  26  31
HETATM   31  C   UNL     1      -9.766   6.157  68.559  1.00  0.00    -0.127 C  
BRANCH  31  32
HETATM   32  C   UNL     1     -10.459   5.952  69.896  1.00  0.00    -0.337 A  
HETATM   33  C   UNL     1     -11.616   6.691  70.223  1.00  0.00    -0.454 A  
HETATM   34  C   UNL     1     -12.194   6.618  71.494  1.00  0.00    -0.391 A  
HETATM   35  C   UNL     1     -11.620   5.821  72.475  1.00  0.00    -0.321 A  
HETATM   36  C   UNL     1     -10.490   5.067  72.174  1.00  0.00    -0.274 A  
HETATM   37  C   UNL     1      -9.919   5.122  70.898  1.00  0.00    -0.210 A  
HETATM   38 CL   UNL     1      -8.516   4.150  70.633  1.00  0.00    -0.087 Cl 
ENDBRANCH  31  32
ENDBRANCH  26  31
ENDBRANCH  25  26
ENDBRANCH  24  25
ENDBRANCH  21  24
ENDBRANCH  18  20
ENDBRANCH  15  16
ENDBRANCH  14  15
ENDBRANCH   3  14
ENDBRANCH   2   3
TORSDOF 15
ENDMDL
MODEL      248
REMARK 921   NORMALIZED FREE ENERGY PREDICTED BY IDOCK:   -3.96 KCAL/MOL
REMARK 922        TOTAL FREE ENERGY PREDICTED BY IDOCK:  -10.09 KCAL/MOL
REMARK 923 INTER-LIGAND FREE ENERGY PREDICTED BY IDOCK:   -7.41 KCAL/MOL
REMARK 924 INTRA-LIGAND FREE ENERGY PREDICTED BY IDOCK:   -2.67 KCAL/MOL
REMARK 927      BINDING AFFINITY PREDICTED BY RF-SCORE:    0.00 PKD
ROOT
HETATM    1  C   UNL     1      -8.335   9.320  62.475  1.00  0.00    -0.185 C  
HETATM    2  C   UNL     1      -8.961   9.980  63.695  1.00  0.00    -0.255 C  
ENDROOT
BRANCH   2   3
HETATM    3  N   UNL     1      -8.485   9.434  65.077  1.00  0.00    -0.148 N  
BRANCH   3   4
HETATM    4  C   UNL     1      -9.686   9.369  66.065  1.00  0.00    -0.275 C  
HETATM    5  C   UNL     1     -10.549  10.603  66.131  1.00  0.00    -0.211 C  
ENDBRANCH   3   4
BRANCH   3   6
HETATM    6  C   UNL     1      -7.490  10.420  65.731  1.00  0.00    -0.147 C  
BRANCH   6   7
HETATM    7  C   UNL     1      -7.123  10.360  67.211  1.00  0.00    -0.088 A  
HETATM    8  C   UNL     1      -6.850  11.575  69.329  1.00  0.00    -0.114 A  
HETATM    9  C   UNL     1      -6.626   9.229  67.881  1.00  0.00    -0.063 A  
HETATM   10  C   UNL     1      -7.272  11.523  67.995  1.00  0.00    -0.085 A  
HETATM   11  C   UNL     1      -6.260   9.258  69.228  1.00  0.00    -0.041 A  
HETATM   12 CL   UNL     1      -7.957  12.962  67.318  1.00  0.00    -0.170 Cl 
HETATM   13  C   UNL     1      -6.346  10.437  69.946  1.00  0.00    -0.095 A  
ENDBRANCH   6   7
ENDBRANCH   3   6
BRANCH   3  14
HETATM   14  C   UNL     1      -7.831   8.023  64.782  1.00  0.00    -0.131 C  
BRANCH  14  15
HETATM   15  C   UNL     1      -8.692   6.758  65.123  1.00  0.00     0.136 C  
BRANCH  15  16
HETATM   16  N   UNL     1      -8.594   6.207  66.466  1.00  0.00    -0.122 N  
HETATM   17  H   UNL     1      -7.756   6.363  67.026  1.00  0.00     0.000 HD 
HETATM   18  C   UNL     1      -9.653   5.466  66.984  1.00  0.00    -0.139 C  
HETATM   19  O   UNL     1     -10.752   5.399  66.460  1.00  0.00    -0.301 OA 
BRANCH  18  20
HETATM   20  C   UNL     1      -9.376   4.813  68.362  1.00  0.00    -0.132 C  
HETATM   21  N   UNL     1      -8.840   5.662  69.332  1.00  0.00    -0.111 N  
HETATM   22  O   UNL     1      -9.630   3.637  68.559  1.00  0.00    -0.162 OA 
HETATM   23  H   UNL     1      -8.367   6.526  69.067  1.00  0.00     0.000 HD 
BRANCH  21  24
HETATM   24  C   UNL     1      -8.972   5.283  70.733  1.00  0.00    -0.136 C  
BRANCH  24  25
HETATM   25  C   UNL     1     -10.215   5.862  71.462  1.00  0.00    -0.205 C  
BRANCH  25  26
HETATM   26  N   UNL     1      -9.934   6.428  72.875  1.00  0.00    -0.171 N  
BRANCH  26  27
HETATM   27  C   UNL     1     -10.463   5.451  73.965  1.00  0.00    -0.284 C  
HETATM   28  C   UNL     1     -11.193   4.223  73.438  1.00  0.00    -0.361 C  
ENDBRANCH  26  27
BRANCH  26  29
HETATM   29  C   UNL     1      -8.400   6.642  73.002  1.00  0.00    -0.117 C  
HETATM   30  C   UNL     1      -7.970   7.695  74.009  1.00  0.00    -0.207 C  
ENDBRANCH  26  29
BRANCH  26  31
HETATM   31  C   UNL     1     -10.681   7.799  73.072  1.00  0.00    -0.384 C  
BRANCH  31  32
HETATM   32  C   UNL     1     -10.910   8.696  71.867  1.00  0.00    -0.419 A  
HETATM   33  C   UNL     1      -9.847   9.001  70.990  1.00  0.00    -0.352 A  
HETATM   34  C   UNL     1      -9.999   9.927  69.952  1.00  0.00    -0.292 A  
HETATM   35  C   UNL     1     -11.210  10.583  69.777  1.00  0.00    -0.361 A  
HETATM   36  C   UNL     1     -12.280  10.287  70.615  1.00  0.00    -0.422 A  
HETATM   37  C   UNL     1     -12.139   9.348  71.642  1.00  0.00    -0.388 A  
HETATM   38 CL   UNL     1     -13.528   9.059  72.626  1.00  0.00    -0.477 Cl 
ENDBRANCH  31  32
ENDBRANCH  26  31
ENDBRANCH  25  26
ENDBRANCH  24  25
ENDBRANCH  21  24
ENDBRANCH  18  20
ENDBRANCH  15  16
ENDBRANCH  14  15
ENDBRANCH   3  14
ENDBRANCH   2   3
TORSDOF 15
ENDMDL
MODEL      249
REMARK 921   NORMALIZED FREE ENERGY PREDICTED BY IDOCK:   -3.95 KCAL/MOL
REMARK 922        TOTAL FREE ENERGY PREDICTED BY IDOCK:  -10.08 KCAL/MOL
REMARK 923 INTER-LIGAND FREE ENERGY PREDICTED BY IDOCK:   -8.25 KCAL/MOL
REMARK 924 INTRA-LIGAND FREE ENERGY PREDICTED BY IDOCK:   -1.83 KCAL/MOL
REMARK 927      BINDING AFFINITY PREDICTED BY RF-SCORE:    0.00 PKD
ROOT
HETATM    1  C   UNL     1      -9.625   4.136  72.440  1.00  0.00    -0.193 C  
HETATM    2  C   UNL     1     -10.182   5.306  71.642  1.00  0.00    -0.212 C  
ENDROOT
BRANCH   2   3
HETATM    3  N   UNL     1      -9.164   6.036  70.713  1.00  0.00    -0.153 N  
BRANCH   3   4
HETATM    4  C   UNL     1      -9.893   6.588  69.454  1.00  0.00    -0.146 C  
HETATM    5  C   UNL     1     -11.359   6.251  69.343  1.00  0.00    -0.448 C  
ENDBRANCH   3   4
BRANCH   3   6
HETATM    6  C   UNL     1      -8.126   5.033  70.158  1.00  0.00    -0.081 C  
BRANCH   6   7
HETATM    7  C   UNL     1      -7.851   4.875  68.665  1.00  0.00    -0.077 A  
HETATM    8  C   UNL     1      -8.168   3.534  66.630  1.00  0.00    -0.099 A  
HETATM    9  C   UNL     1      -7.012   5.702  67.900  1.00  0.00    -0.066 A  
HETATM   10  C   UNL     1      -8.463   3.810  67.972  1.00  0.00    -0.094 A  
HETATM   11  C   UNL     1      -6.761   5.469  66.547  1.00  0.00    -0.058 A  
HETATM   12 CL   UNL     1      -9.588   2.766  68.772  1.00  0.00    -0.164 Cl 
HETATM   13  C   UNL     1      -7.318   4.370  65.917  1.00  0.00    -0.077 A  
ENDBRANCH   6   7
ENDBRANCH   3   6
BRANCH   3  14
HETATM   14  C   UNL     1      -8.498   7.163  71.603  1.00  0.00    -0.114 C  
BRANCH  14  15
HETATM   15  C   UNL     1      -9.468   8.111  72.390  1.00  0.00    -0.251 C  
BRANCH  15  16
HETATM   16  N   UNL     1     -10.151   9.160  71.646  1.00  0.00    -0.324 N  
HETATM   17  H   UNL     1      -9.616   9.820  71.082  1.00  0.00     0.000 HD 
HETATM   18  C   UNL     1     -11.538   9.256  71.709  1.00  0.00    -0.388 C  
HETATM   19  O   UNL     1     -12.253   8.399  72.199  1.00  0.00    -0.330 OA 
BRANCH  18  20
HETATM   20  C   UNL     1     -12.136  10.494  70.995  1.00  0.00    -0.387 C  
HETATM   21  N   UNL     1     -11.243  11.222  70.206  1.00  0.00    -0.479 N  
HETATM   22  O   UNL     1     -13.314  10.782  71.122  1.00  0.00    -0.247 OA 
HETATM   23  H   UNL     1     -10.236  11.148  70.352  1.00  0.00     0.000 HD 
BRANCH  21  24
HETATM   24  C   UNL     1     -11.784  12.092  69.169  1.00  0.00    -0.328 C  
BRANCH  24  25
HETATM   25  C   UNL     1     -10.743  12.992  68.449  1.00  0.00    -0.256 C  
BRANCH  25  26
HETATM   26  N   UNL     1     -10.541  12.675  66.947  1.00  0.00    -0.239 N  
BRANCH  26  27
HETATM   27  C   UNL     1      -9.767  11.335  66.775  1.00  0.00    -0.193 C  
HETATM   28  C   UNL     1      -9.301  11.031  65.358  1.00  0.00    -0.244 C  
ENDBRANCH  26  27
BRANCH  26  29
HETATM   29  C   UNL     1     -11.945  12.608  66.285  1.00  0.00    -0.374 C  
HETATM   30  C   UNL     1     -12.317  13.801  65.422  1.00  0.00    -0.504 C  
ENDBRANCH  26  29
BRANCH  26  31
HETATM   31  C   UNL     1      -9.683  13.803  66.263  1.00  0.00    -0.284 C  
BRANCH  31  32
HETATM   32  C   UNL     1      -8.873  14.747  67.136  1.00  0.00    -0.234 A  
HETATM   33  C   UNL     1      -7.730  14.285  67.822  1.00  0.00    -0.172 A  
HETATM   34  C   UNL     1      -7.046  15.097  68.733  1.00  0.00    -0.117 A  
HETATM   35  C   UNL     1      -7.499  16.383  68.994  1.00  0.00    -0.227 A  
HETATM   36  C   UNL     1      -8.612  16.871  68.317  1.00  0.00    -0.230 A  
HETATM   37  C   UNL     1      -9.288  16.069  67.391  1.00  0.00    -0.217 A  
HETATM   38 CL   UNL     1     -10.659  16.772  66.612  1.00  0.00    -0.250 Cl 
ENDBRANCH  31  32
ENDBRANCH  26  31
ENDBRANCH  25  26
ENDBRANCH  24  25
ENDBRANCH  21  24
ENDBRANCH  18  20
ENDBRANCH  15  16
ENDBRANCH  14  15
ENDBRANCH   3  14
ENDBRANCH   2   3
TORSDOF 15
ENDMDL
MODEL      250
REMARK 921   NORMALIZED FREE ENERGY PREDICTED BY IDOCK:   -3.95 KCAL/MOL
REMARK 922        TOTAL FREE ENERGY PREDICTED BY IDOCK:  -10.07 KCAL/MOL
REMARK 923 INTER-LIGAND FREE ENERGY PREDICTED BY IDOCK:   -9.22 KCAL/MOL
REMARK 924 INTRA-LIGAND FREE ENERGY PREDICTED BY IDOCK:   -0.85 KCAL/MOL
REMARK 927      BINDING AFFINITY PREDICTED BY RF-SCORE:    0.00 PKD
ROOT
HETATM    1  C   UNL     1      -7.079  14.723  69.998  1.00  0.00    -0.030 C  
HETATM    2  C   UNL     1      -6.727  14.743  68.517  1.00  0.00    -0.097 C  
ENDROOT
BRANCH   2   3
HETATM    3  N   UNL     1      -6.989  16.092  67.779  1.00  0.00    -0.130 N  
BRANCH   3   4
HETATM    4  C   UNL     1      -5.637  16.742  67.363  1.00  0.00    -0.153 C  
HETATM    5  C   UNL     1      -5.641  17.482  66.049  1.00  0.00    -0.176 C  
ENDBRANCH   3   4
BRANCH   3   6
HETATM    6  C   UNL     1      -7.637  17.115  68.741  1.00  0.00    -0.259 C  
BRANCH   6   7
HETATM    7  C   UNL     1      -8.443  18.313  68.247  1.00  0.00    -0.309 A  
HETATM    8  C   UNL     1     -10.656  19.335  67.936  1.00  0.00    -0.478 A  
HETATM    9  C   UNL     1      -7.915  19.426  67.571  1.00  0.00    -0.302 A  
HETATM   10  C   UNL     1      -9.837  18.327  68.460  1.00  0.00    -0.381 A  
HETATM   11  C   UNL     1      -8.719  20.465  67.099  1.00  0.00    -0.413 A  
HETATM   12 CL   UNL     1     -10.606  17.062  69.357  1.00  0.00    -0.310 Cl 
HETATM   13  C   UNL     1     -10.092  20.409  67.258  1.00  0.00    -0.504 A  
ENDBRANCH   6   7
ENDBRANCH   3   6
BRANCH   3  14
HETATM   14  C   UNL     1      -7.925  15.739  66.553  1.00  0.00    -0.137 C  
BRANCH  14  15
HETATM   15  C   UNL     1      -9.432  15.448  66.872  1.00  0.00    -0.230 C  
BRANCH  15  16
HETATM   16  N   UNL     1      -9.788  14.112  67.327  1.00  0.00    -0.235 N  
HETATM   17  H   UNL     1      -9.067  13.401  67.448  1.00  0.00     0.000 HD 
HETATM   18  C   UNL     1     -11.120  13.810  67.598  1.00  0.00    -0.273 C  
HETATM   19  O   UNL     1     -12.003  14.649  67.664  1.00  0.00    -0.362 OA 
BRANCH  18  20
HETATM   20  C   UNL     1     -11.394  12.323  67.935  1.00  0.00    -0.298 C  
HETATM   21  N   UNL     1     -11.213  11.968  69.273  1.00  0.00    -0.341 N  
HETATM   22  O   UNL     1     -11.753  11.541  67.071  1.00  0.00    -0.556 OA 
HETATM   23  H   UNL     1     -10.639  12.539  69.894  1.00  0.00     0.000 HD 
BRANCH  21  24
HETATM   24  C   UNL     1     -11.864  10.758  69.763  1.00  0.00    -0.335 C  
BRANCH  24  25
HETATM   25  C   UNL     1     -10.979   9.843  70.651  1.00  0.00    -0.337 C  
BRANCH  25  26
HETATM   26  N   UNL     1     -10.762   8.414  70.097  1.00  0.00    -0.234 N  
BRANCH  26  27
HETATM   27  C   UNL     1     -11.954   7.493  70.492  1.00  0.00    -0.061 C  
HETATM   28  C   UNL     1     -12.665   7.869  71.784  1.00  0.00    -0.353 C  
ENDBRANCH  26  27
BRANCH  26  29
HETATM   29  C   UNL     1     -10.616   8.522  68.554  1.00  0.00    -0.111 C  
HETATM   30  C   UNL     1      -9.193   8.650  68.041  1.00  0.00    -0.147 C  
ENDBRANCH  26  29
BRANCH  26  31
HETATM   31  C   UNL     1      -9.458   7.782  70.712  1.00  0.00    -0.161 C  
BRANCH  31  32
HETATM   32  C   UNL     1      -9.492   6.342  71.195  1.00  0.00    -0.183 A  
HETATM   33  C   UNL     1      -9.512   5.277  70.269  1.00  0.00    -0.225 A  
HETATM   34  C   UNL     1      -9.676   3.951  70.685  1.00  0.00    -0.248 A  
HETATM   35  C   UNL     1      -9.842   3.660  72.032  1.00  0.00    -0.244 A  
HETATM   36  C   UNL     1      -9.807   4.688  72.968  1.00  0.00    -0.175 A  
HETATM   37  C   UNL     1      -9.625   6.014  72.559  1.00  0.00    -0.153 A  
HETATM   38 CL   UNL     1      -9.601   7.213  73.802  1.00  0.00    -0.280 Cl 
ENDBRANCH  31  32
ENDBRANCH  26  31
ENDBRANCH  25  26
ENDBRANCH  24  25
ENDBRANCH  21  24
ENDBRANCH  18  20
ENDBRANCH  15  16
ENDBRANCH  14  15
ENDBRANCH   3  14
ENDBRANCH   2   3
TORSDOF 15
ENDMDL
MODEL      251
REMARK 921   NORMALIZED FREE ENERGY PREDICTED BY IDOCK:   -3.95 KCAL/MOL
REMARK 922        TOTAL FREE ENERGY PREDICTED BY IDOCK:  -10.07 KCAL/MOL
REMARK 923 INTER-LIGAND FREE ENERGY PREDICTED BY IDOCK:   -8.66 KCAL/MOL
REMARK 924 INTRA-LIGAND FREE ENERGY PREDICTED BY IDOCK:   -1.41 KCAL/MOL
REMARK 927      BINDING AFFINITY PREDICTED BY RF-SCORE:    0.00 PKD
ROOT
HETATM    1  C   UNL     1      -9.692   5.701  70.785  1.00  0.00    -0.228 C  
HETATM    2  C   UNL     1      -8.781   6.692  70.075  1.00  0.00    -0.141 C  
ENDROOT
BRANCH   2   3
HETATM    3  N   UNL     1      -9.445   8.039  69.655  1.00  0.00    -0.163 N  
BRANCH   3   4
HETATM    4  C   UNL     1     -10.883   8.130  70.242  1.00  0.00    -0.244 C  
HETATM    5  C   UNL     1     -11.118   9.240  71.235  1.00  0.00    -0.427 C  
ENDBRANCH   3   4
BRANCH   3   6
HETATM    6  C   UNL     1      -9.643   8.086  68.121  1.00  0.00    -0.153 C  
BRANCH   6   7
HETATM    7  C   UNL     1      -9.607   6.835  67.248  1.00  0.00    -0.165 A  
HETATM    8  C   UNL     1      -8.323   5.431  65.692  1.00  0.00    -0.130 A  
HETATM    9  C   UNL     1     -10.692   5.975  67.013  1.00  0.00    -0.412 A  
HETATM   10  C   UNL     1      -8.401   6.497  66.598  1.00  0.00    -0.113 A  
HETATM   11  C   UNL     1     -10.604   4.875  66.158  1.00  0.00    -0.322 A  
HETATM   12 CL   UNL     1      -6.963   7.419  66.869  1.00  0.00    -0.079 Cl 
HETATM   13  C   UNL     1      -9.429   4.616  65.477  1.00  0.00    -0.178 A  
ENDBRANCH   6   7
ENDBRANCH   3   6
BRANCH   3  14
HETATM   14  C   UNL     1      -8.476   9.178  70.173  1.00  0.00    -0.176 C  
BRANCH  14  15
HETATM   15  C   UNL     1      -7.840  10.116  69.089  1.00  0.00    -0.120 C  
BRANCH  15  16
HETATM   16  N   UNL     1      -7.699  11.529  69.406  1.00  0.00    -0.362 N  
HETATM   17  H   UNL     1      -8.526  12.117  69.511  1.00  0.00     0.000 HD 
HETATM   18  C   UNL     1      -6.428  12.074  69.566  1.00  0.00    -0.109 C  
HETATM   19  O   UNL     1      -5.411  11.406  69.647  1.00  0.00    -0.052 OA 
BRANCH  18  20
HETATM   20  C   UNL     1      -6.400  13.611  69.758  1.00  0.00    -0.096 C  
HETATM   21  N   UNL     1      -7.410  14.317  69.102  1.00  0.00    -0.209 N  
HETATM   22  O   UNL     1      -5.548  14.141  70.451  1.00  0.00    -0.109 OA 
HETATM   23  H   UNL     1      -7.907  13.905  68.312  1.00  0.00     0.000 HD 
BRANCH  21  24
HETATM   24  C   UNL     1      -7.738  15.657  69.573  1.00  0.00    -0.185 C  
BRANCH  24  25
HETATM   25  C   UNL     1      -8.321  16.613  68.497  1.00  0.00    -0.228 C  
BRANCH  25  26
HETATM   26  N   UNL     1      -9.697  16.188  67.928  1.00  0.00    -0.224 N  
BRANCH  26  27
HETATM   27  C   UNL     1     -10.452  15.289  68.952  1.00  0.00    -0.241 C  
HETATM   28  C   UNL     1     -11.305  16.037  69.968  1.00  0.00    -0.353 C  
ENDBRANCH  26  27
BRANCH  26  29
HETATM   29  C   UNL     1     -10.498  17.480  67.609  1.00  0.00    -0.370 C  
HETATM   30  C   UNL     1      -9.739  18.542  66.834  1.00  0.00    -0.334 C  
ENDBRANCH  26  29
BRANCH  26  31
HETATM   31  C   UNL     1      -9.505  15.342  66.615  1.00  0.00    -0.259 C  
BRANCH  31  32
HETATM   32  C   UNL     1     -10.643  14.456  66.134  1.00  0.00    -0.298 A  
HETATM   33  C   UNL     1     -10.789  13.145  66.633  1.00  0.00    -0.292 A  
HETATM   34  C   UNL     1     -11.745  12.267  66.112  1.00  0.00    -0.440 A  
HETATM   35  C   UNL     1     -12.564  12.672  65.066  1.00  0.00    -0.504 A  
HETATM   36  C   UNL     1     -12.455  13.965  64.568  1.00  0.00    -0.336 A  
HETATM   37  C   UNL     1     -11.513  14.853  65.099  1.00  0.00    -0.357 A  
HETATM   38 CL   UNL     1     -11.458  16.433  64.404  1.00  0.00    -0.251 Cl 
ENDBRANCH  31  32
ENDBRANCH  26  31
ENDBRANCH  25  26
ENDBRANCH  24  25
ENDBRANCH  21  24
ENDBRANCH  18  20
ENDBRANCH  15  16
ENDBRANCH  14  15
ENDBRANCH   3  14
ENDBRANCH   2   3
TORSDOF 15
ENDMDL
MODEL      252
REMARK 921   NORMALIZED FREE ENERGY PREDICTED BY IDOCK:   -3.95 KCAL/MOL
REMARK 922        TOTAL FREE ENERGY PREDICTED BY IDOCK:  -10.06 KCAL/MOL
REMARK 923 INTER-LIGAND FREE ENERGY PREDICTED BY IDOCK:   -8.17 KCAL/MOL
REMARK 924 INTRA-LIGAND FREE ENERGY PREDICTED BY IDOCK:   -1.89 KCAL/MOL
REMARK 927      BINDING AFFINITY PREDICTED BY RF-SCORE:    0.00 PKD
ROOT
HETATM    1  C   UNL     1      -8.751   6.523  67.731  1.00  0.00    -0.115 C  
HETATM    2  C   UNL     1      -8.693   6.793  66.235  1.00  0.00    -0.146 C  
ENDROOT
BRANCH   2   3
HETATM    3  N   UNL     1      -8.028   8.141  65.816  1.00  0.00    -0.099 N  
BRANCH   3   4
HETATM    4  C   UNL     1      -6.994   7.894  64.679  1.00  0.00    -0.067 C  
HETATM    5  C   UNL     1      -5.552   7.811  65.109  1.00  0.00    -0.037 C  
ENDBRANCH   3   4
BRANCH   3   6
HETATM    6  C   UNL     1      -7.195   8.715  66.986  1.00  0.00    -0.076 C  
BRANCH   6   7
HETATM    7  C   UNL     1      -7.063  10.213  67.245  1.00  0.00    -0.088 A  
HETATM    8  C   UNL     1      -8.000  12.223  68.303  1.00  0.00    -0.163 A  
HETATM    9  C   UNL     1      -6.090  11.054  66.679  1.00  0.00    -0.124 A  
HETATM   10  C   UNL     1      -7.989  10.836  68.108  1.00  0.00    -0.114 A  
HETATM   11  C   UNL     1      -6.059  12.429  66.918  1.00  0.00     0.181 A  
HETATM   12 CL   UNL     1      -9.185   9.904  68.941  1.00  0.00    -0.153 Cl 
HETATM   13  C   UNL     1      -7.029  13.019  67.709  1.00  0.00    -0.143 A  
ENDBRANCH   6   7
ENDBRANCH   3   6
BRANCH   3  14
HETATM   14  C   UNL     1      -9.216   9.096  65.395  1.00  0.00    -0.202 C  
BRANCH  14  15
HETATM   15  C   UNL     1      -8.865  10.283  64.433  1.00  0.00    -0.209 C  
BRANCH  15  16
HETATM   16  N   UNL     1      -9.217  11.632  64.854  1.00  0.00    -0.420 N  
HETATM   17  H   UNL     1      -8.675  12.100  65.580  1.00  0.00     0.000 HD 
HETATM   18  C   UNL     1     -10.297  12.278  64.260  1.00  0.00    -0.348 C  
HETATM   19  O   UNL     1     -10.866  11.866  63.264  1.00  0.00    -0.385 OA 
BRANCH  18  20
HETATM   20  C   UNL     1     -10.661  13.646  64.889  1.00  0.00    -0.391 C  
HETATM   21  N   UNL     1      -9.597  14.347  65.460  1.00  0.00    -0.545 N  
HETATM   22  O   UNL     1     -11.807  14.062  64.862  1.00  0.00    -0.355 OA 
HETATM   23  H   UNL     1      -8.741  13.866  65.734  1.00  0.00     0.000 HD 
BRANCH  21  24
HETATM   24  C   UNL     1      -9.740  15.785  65.654  1.00  0.00    -0.297 C  
BRANCH  24  25
HETATM   25  C   UNL     1      -8.580  16.466  66.431  1.00  0.00    -0.323 C  
BRANCH  25  26
HETATM   26  N   UNL     1      -8.888  17.899  66.931  1.00  0.00    -0.247 N  
BRANCH  26  27
HETATM   27  C   UNL     1      -7.956  18.930  66.228  1.00  0.00    -0.273 C  
HETATM   28  C   UNL     1      -6.660  18.359  65.670  1.00  0.00    -0.313 C  
ENDBRANCH  26  27
BRANCH  26  29
HETATM   29  C   UNL     1     -10.385  18.192  66.634  1.00  0.00    -0.376 C  
HETATM   30  C   UNL     1     -10.772  19.660  66.627  1.00  0.00    -0.552 C  
ENDBRANCH  26  29
BRANCH  26  31
HETATM   31  C   UNL     1      -8.621  18.005  68.478  1.00  0.00    -0.297 C  
BRANCH  31  32
HETATM   32  C   UNL     1      -7.391  17.333  69.064  1.00  0.00    -0.209 A  
HETATM   33  C   UNL     1      -7.396  15.950  69.345  1.00  0.00    -0.217 A  
HETATM   34  C   UNL     1      -6.326  15.335  70.004  1.00  0.00    -0.147 A  
HETATM   35  C   UNL     1      -5.235  16.089  70.414  1.00  0.00    -0.169 A  
HETATM   36  C   UNL     1      -5.195  17.451  70.133  1.00  0.00    -0.214 A  
HETATM   37  C   UNL     1      -6.254  18.067  69.457  1.00  0.00    -0.237 A  
HETATM   38 CL   UNL     1      -6.104  19.762  69.163  1.00  0.00    -0.302 Cl 
ENDBRANCH  31  32
ENDBRANCH  26  31
ENDBRANCH  25  26
ENDBRANCH  24  25
ENDBRANCH  21  24
ENDBRANCH  18  20
ENDBRANCH  15  16
ENDBRANCH  14  15
ENDBRANCH   3  14
ENDBRANCH   2   3
TORSDOF 15
ENDMDL
MODEL      253
REMARK 921   NORMALIZED FREE ENERGY PREDICTED BY IDOCK:   -3.94 KCAL/MOL
REMARK 922        TOTAL FREE ENERGY PREDICTED BY IDOCK:  -10.06 KCAL/MOL
REMARK 923 INTER-LIGAND FREE ENERGY PREDICTED BY IDOCK:   -8.69 KCAL/MOL
REMARK 924 INTRA-LIGAND FREE ENERGY PREDICTED BY IDOCK:   -1.37 KCAL/MOL
REMARK 927      BINDING AFFINITY PREDICTED BY RF-SCORE:    0.00 PKD
ROOT
HETATM    1  C   UNL     1     -11.835  15.301  64.578  1.00  0.00    -0.298 C  
HETATM    2  C   UNL     1     -10.661  14.412  64.957  1.00  0.00    -0.432 C  
ENDROOT
BRANCH   2   3
HETATM    3  N   UNL     1     -11.012  12.924  65.270  1.00  0.00    -0.279 N  
BRANCH   3   4
HETATM    4  C   UNL     1     -12.487  12.630  64.870  1.00  0.00    -0.494 C  
HETATM    5  C   UNL     1     -12.713  12.246  63.429  1.00  0.00    -0.461 C  
ENDBRANCH   3   4
BRANCH   3   6
HETATM    6  C   UNL     1     -10.960  12.668  66.794  1.00  0.00    -0.262 C  
BRANCH   6   7
HETATM    7  C   UNL     1     -10.951  13.798  67.819  1.00  0.00    -0.272 A  
HETATM    8  C   UNL     1      -9.626  15.221  69.323  1.00  0.00    -0.249 A  
HETATM    9  C   UNL     1     -12.090  14.421  68.354  1.00  0.00    -0.278 A  
HETATM   10  C   UNL     1      -9.710  14.268  68.300  1.00  0.00    -0.221 A  
HETATM   11  C   UNL     1     -12.011  15.415  69.331  1.00  0.00    -0.351 A  
HETATM   12 CL   UNL     1      -8.225  13.650  67.661  1.00  0.00    -0.164 Cl 
HETATM   13  C   UNL     1     -10.781  15.798  69.835  1.00  0.00    -0.332 A  
ENDBRANCH   6   7
ENDBRANCH   3   6
BRANCH   3  14
HETATM   14  C   UNL     1      -9.956  12.055  64.475  1.00  0.00    -0.213 C  
BRANCH  14  15
HETATM   15  C   UNL     1     -10.224  10.512  64.395  1.00  0.00    -0.267 C  
BRANCH  15  16
HETATM   16  N   UNL     1      -9.425   9.635  65.238  1.00  0.00    -0.268 N  
HETATM   17  H   UNL     1      -9.634   9.548  66.233  1.00  0.00     0.000 HD 
HETATM   18  C   UNL     1      -8.373   8.914  64.680  1.00  0.00    -0.170 C  
HETATM   19  O   UNL     1      -8.183   8.816  63.479  1.00  0.00    -0.164 OA 
BRANCH  18  20
HETATM   20  C   UNL     1      -7.509   8.130  65.699  1.00  0.00    -0.081 C  
HETATM   21  N   UNL     1      -7.710   8.465  67.040  1.00  0.00    -0.092 N  
HETATM   22  O   UNL     1      -6.723   7.275  65.327  1.00  0.00    -0.046 OA 
HETATM   23  H   UNL     1      -8.129   9.358  67.299  1.00  0.00     0.000 HD 
BRANCH  21  24
HETATM   24  C   UNL     1      -7.307   7.506  68.061  1.00  0.00    -0.096 C  
BRANCH  24  25
HETATM   25  C   UNL     1      -8.292   6.327  68.288  1.00  0.00    -0.115 C  
BRANCH  25  26
HETATM   26  N   UNL     1      -9.513   6.663  69.178  1.00  0.00    -0.137 N  
BRANCH  26  27
HETATM   27  C   UNL     1      -9.079   7.554  70.379  1.00  0.00    -0.153 C  
HETATM   28  C   UNL     1      -9.800   8.891  70.491  1.00  0.00    -0.242 C  
ENDBRANCH  26  27
BRANCH  26  29
HETATM   29  C   UNL     1     -10.563   7.383  68.288  1.00  0.00    -0.157 C  
HETATM   30  C   UNL     1     -11.068   6.585  67.099  1.00  0.00    -0.434 C  
ENDBRANCH  26  29
BRANCH  26  31
HETATM   31  C   UNL     1     -10.133   5.345  69.773  1.00  0.00    -0.249 C  
BRANCH  31  32
HETATM   32  C   UNL     1     -10.042   5.095  71.270  1.00  0.00    -0.278 A  
HETATM   33  C   UNL     1      -9.012   4.289  71.799  1.00  0.00    -0.156 A  
HETATM   34  C   UNL     1      -8.983   3.937  73.153  1.00  0.00    -0.114 A  
HETATM   35  C   UNL     1      -9.991   4.367  74.005  1.00  0.00    -0.194 A  
HETATM   36  C   UNL     1     -11.008   5.179  73.514  1.00  0.00    -0.370 A  
HETATM   37  C   UNL     1     -11.031   5.549  72.165  1.00  0.00    -0.231 A  
HETATM   38 CL   UNL     1     -12.340   6.556  71.659  1.00  0.00    -0.371 Cl 
ENDBRANCH  31  32
ENDBRANCH  26  31
ENDBRANCH  25  26
ENDBRANCH  24  25
ENDBRANCH  21  24
ENDBRANCH  18  20
ENDBRANCH  15  16
ENDBRANCH  14  15
ENDBRANCH   3  14
ENDBRANCH   2   3
TORSDOF 15
ENDMDL
MODEL      254
REMARK 921   NORMALIZED FREE ENERGY PREDICTED BY IDOCK:   -3.94 KCAL/MOL
REMARK 922        TOTAL FREE ENERGY PREDICTED BY IDOCK:  -10.06 KCAL/MOL
REMARK 923 INTER-LIGAND FREE ENERGY PREDICTED BY IDOCK:   -9.28 KCAL/MOL
REMARK 924 INTRA-LIGAND FREE ENERGY PREDICTED BY IDOCK:   -0.78 KCAL/MOL
REMARK 927      BINDING AFFINITY PREDICTED BY RF-SCORE:    0.00 PKD
ROOT
HETATM    1  C   UNL     1     -10.030   5.835  66.582  1.00  0.00    -0.212 C  
HETATM    2  C   UNL     1      -8.922   6.843  66.850  1.00  0.00    -0.122 C  
ENDROOT
BRANCH   2   3
HETATM    3  N   UNL     1      -8.969   7.545  68.242  1.00  0.00    -0.131 N  
BRANCH   3   4
HETATM    4  C   UNL     1      -7.623   8.278  68.514  1.00  0.00    -0.100 C  
HETATM    5  C   UNL     1      -7.727   9.753  68.807  1.00  0.00    -0.081 C  
ENDBRANCH   3   4
BRANCH   3   6
HETATM    6  C   UNL     1      -9.078   6.493  69.372  1.00  0.00    -0.141 C  
BRANCH   6   7
HETATM    7  C   UNL     1      -9.260   6.875  70.837  1.00  0.00    -0.157 A  
HETATM    8  C   UNL     1     -10.820   7.380  72.668  1.00  0.00    -0.349 A  
HETATM    9  C   UNL     1      -8.225   7.201  71.729  1.00  0.00    -0.105 A  
HETATM   10  C   UNL     1     -10.567   6.928  71.367  1.00  0.00    -0.219 A  
HETATM   11  C   UNL     1      -8.466   7.594  73.046  1.00  0.00    -0.191 A  
HETATM   12 CL   UNL     1     -11.929   6.465  70.404  1.00  0.00    -0.334 Cl 
HETATM   13  C   UNL     1      -9.765   7.709  73.510  1.00  0.00    -0.358 A  
ENDBRANCH   6   7
ENDBRANCH   3   6
BRANCH   3  14
HETATM   14  C   UNL     1     -10.219   8.513  68.196  1.00  0.00    -0.208 C  
BRANCH  14  15
HETATM   15  C   UNL     1     -10.483   9.266  66.847  1.00  0.00    -0.214 C  
BRANCH  15  16
HETATM   16  N   UNL     1     -10.668  10.709  66.895  1.00  0.00    -0.255 N  
HETATM   17  H   UNL     1     -11.155  11.138  67.681  1.00  0.00     0.000 HD 
HETATM   18  C   UNL     1     -10.175  11.500  65.861  1.00  0.00    -0.244 C  
HETATM   19  O   UNL     1      -9.423  11.088  64.994  1.00  0.00    -0.216 OA 
BRANCH  18  20
HETATM   20  C   UNL     1     -10.557  12.999  65.951  1.00  0.00    -0.275 C  
HETATM   21  N   UNL     1      -9.485  13.893  65.950  1.00  0.00    -0.511 N  
HETATM   22  O   UNL     1     -11.726  13.345  66.006  1.00  0.00    -0.333 OA 
HETATM   23  H   UNL     1      -8.547  13.585  66.203  1.00  0.00     0.000 HD 
BRANCH  21  24
HETATM   24  C   UNL     1      -9.740  15.280  65.577  1.00  0.00    -0.278 C  
BRANCH  24  25
HETATM   25  C   UNL     1     -10.470  16.131  66.651  1.00  0.00    -0.300 C  
BRANCH  25  26
HETATM   26  N   UNL     1      -9.833  17.515  66.925  1.00  0.00    -0.289 N  
BRANCH  26  27
HETATM   27  C   UNL     1     -10.443  18.589  65.977  1.00  0.00    -0.400 C  
HETATM   28  C   UNL     1     -10.898  19.873  66.658  1.00  0.00    -0.341 C  
ENDBRANCH  26  27
BRANCH  26  29
HETATM   29  C   UNL     1     -10.086  17.865  68.417  1.00  0.00    -0.383 C  
HETATM   30  C   UNL     1     -10.620  16.730  69.272  1.00  0.00    -0.336 C  
ENDBRANCH  26  29
BRANCH  26  31
HETATM   31  C   UNL     1      -8.285  17.468  66.643  1.00  0.00    -0.256 C  
BRANCH  31  32
HETATM   32  C   UNL     1      -7.365  18.397  67.416  1.00  0.00    -0.221 A  
HETATM   33  C   UNL     1      -7.065  18.143  68.771  1.00  0.00    -0.287 A  
HETATM   34  C   UNL     1      -6.329  19.052  69.540  1.00  0.00    -0.299 A  
HETATM   35  C   UNL     1      -5.892  20.244  68.978  1.00  0.00    -0.344 A  
HETATM   36  C   UNL     1      -6.158  20.512  67.639  1.00  0.00    -0.290 A  
HETATM   37  C   UNL     1      -6.876  19.597  66.861  1.00  0.00    -0.196 A  
HETATM   38 CL   UNL     1      -7.154  20.030  65.213  1.00  0.00    -0.310 Cl 
ENDBRANCH  31  32
ENDBRANCH  26  31
ENDBRANCH  25  26
ENDBRANCH  24  25
ENDBRANCH  21  24
ENDBRANCH  18  20
ENDBRANCH  15  16
ENDBRANCH  14  15
ENDBRANCH   3  14
ENDBRANCH   2   3
TORSDOF 15
ENDMDL
MODEL      255
REMARK 921   NORMALIZED FREE ENERGY PREDICTED BY IDOCK:   -3.94 KCAL/MOL
REMARK 922        TOTAL FREE ENERGY PREDICTED BY IDOCK:  -10.05 KCAL/MOL
REMARK 923 INTER-LIGAND FREE ENERGY PREDICTED BY IDOCK:   -8.33 KCAL/MOL
REMARK 924 INTRA-LIGAND FREE ENERGY PREDICTED BY IDOCK:   -1.72 KCAL/MOL
REMARK 927      BINDING AFFINITY PREDICTED BY RF-SCORE:    0.00 PKD
ROOT
HETATM    1  C   UNL     1      -6.739   6.380  70.677  1.00  0.00    -0.057 C  
HETATM    2  C   UNL     1      -7.906   6.981  69.907  1.00  0.00    -0.114 C  
ENDROOT
BRANCH   2   3
HETATM    3  N   UNL     1      -9.222   7.180  70.722  1.00  0.00    -0.157 N  
BRANCH   3   4
HETATM    4  C   UNL     1      -8.946   6.965  72.239  1.00  0.00    -0.134 C  
HETATM    5  C   UNL     1      -8.874   8.216  73.077  1.00  0.00    -0.316 C  
ENDBRANCH   3   4
BRANCH   3   6
HETATM    6  C   UNL     1     -10.254   6.090  70.352  1.00  0.00    -0.204 C  
BRANCH   6   7
HETATM    7  C   UNL     1      -9.933   4.940  69.401  1.00  0.00    -0.282 A  
HETATM    8  C   UNL     1      -9.174   2.617  69.140  1.00  0.00    -0.209 A  
HETATM    9  C   UNL     1      -9.932   5.021  67.999  1.00  0.00    -0.189 A  
HETATM   10  C   UNL     1      -9.591   3.685  69.946  1.00  0.00    -0.168 A  
HETATM   11  C   UNL     1      -9.576   3.942  67.187  1.00  0.00    -0.226 A  
HETATM   12 CL   UNL     1      -9.639   3.422  71.656  1.00  0.00    -0.219 Cl 
HETATM   13  C   UNL     1      -9.172   2.748  67.757  1.00  0.00    -0.246 A  
ENDBRANCH   6   7
ENDBRANCH   3   6
BRANCH   3  14
HETATM   14  C   UNL     1      -9.730   8.637  70.372  1.00  0.00    -0.176 C  
BRANCH  14  15
HETATM   15  C   UNL     1     -10.690   8.776  69.140  1.00  0.00    -0.131 C  
BRANCH  15  16
HETATM   16  N   UNL     1     -10.323   9.714  68.090  1.00  0.00    -0.198 N  
HETATM   17  H   UNL     1     -10.423  10.718  68.241  1.00  0.00     0.000 HD 
HETATM   18  C   UNL     1      -9.835   9.235  66.878  1.00  0.00    -0.214 C  
HETATM   19  O   UNL     1      -9.509   8.074  66.692  1.00  0.00    -0.183 OA 
BRANCH  18  20
HETATM   20  C   UNL     1      -9.616  10.317  65.791  1.00  0.00    -0.224 C  
HETATM   21  N   UNL     1     -10.595  11.310  65.727  1.00  0.00    -0.260 N  
HETATM   22  O   UNL     1      -8.638  10.284  65.063  1.00  0.00    -0.165 OA 
HETATM   23  H   UNL     1     -11.523  11.156  66.121  1.00  0.00     0.000 HD 
BRANCH  21  24
HETATM   24  C   UNL     1     -10.258  12.574  65.084  1.00  0.00    -0.279 C  
BRANCH  24  25
HETATM   25  C   UNL     1     -11.146  13.782  65.490  1.00  0.00    -0.298 C  
BRANCH  25  26
HETATM   26  N   UNL     1     -10.578  14.646  66.643  1.00  0.00    -0.284 N  
BRANCH  26  27
HETATM   27  C   UNL     1     -10.529  13.822  67.963  1.00  0.00    -0.244 C  
HETATM   28  C   UNL     1     -11.880  13.367  68.496  1.00  0.00    -0.401 C  
ENDBRANCH  26  27
BRANCH  26  29
HETATM   29  C   UNL     1      -9.163  15.126  66.220  1.00  0.00    -0.301 C  
HETATM   30  C   UNL     1      -8.092  15.019  67.291  1.00  0.00    -0.237 C  
ENDBRANCH  26  29
BRANCH  26  31
HETATM   31  C   UNL     1     -11.508  15.889  66.901  1.00  0.00     0.249 C  
BRANCH  31  32
HETATM   32  C   UNL     1     -10.874  17.234  67.211  1.00  0.00    -0.124 A  
HETATM   33  C   UNL     1     -10.523  18.118  66.168  1.00  0.00    -0.377 A  
HETATM   34  C   UNL     1      -9.820  19.301  66.419  1.00  0.00    -0.455 A  
HETATM   35  C   UNL     1      -9.435  19.620  67.714  1.00  0.00    -0.446 A  
HETATM   36  C   UNL     1      -9.784  18.777  68.763  1.00  0.00    -0.432 A  
HETATM   37  C   UNL     1     -10.504  17.602  68.520  1.00  0.00    -0.337 A  
HETATM   38 CL   UNL     1     -10.881  16.625  69.893  1.00  0.00    -0.296 Cl 
ENDBRANCH  31  32
ENDBRANCH  26  31
ENDBRANCH  25  26
ENDBRANCH  24  25
ENDBRANCH  21  24
ENDBRANCH  18  20
ENDBRANCH  15  16
ENDBRANCH  14  15
ENDBRANCH   3  14
ENDBRANCH   2   3
TORSDOF 15
ENDMDL
MODEL      256
REMARK 921   NORMALIZED FREE ENERGY PREDICTED BY IDOCK:   -3.94 KCAL/MOL
REMARK 922        TOTAL FREE ENERGY PREDICTED BY IDOCK:  -10.05 KCAL/MOL
REMARK 923 INTER-LIGAND FREE ENERGY PREDICTED BY IDOCK:   -8.33 KCAL/MOL
REMARK 924 INTRA-LIGAND FREE ENERGY PREDICTED BY IDOCK:   -1.72 KCAL/MOL
REMARK 927      BINDING AFFINITY PREDICTED BY RF-SCORE:    0.00 PKD
ROOT
HETATM    1  C   UNL     1     -11.795  15.503  69.335  1.00  0.00    -0.392 C  
HETATM    2  C   UNL     1     -11.150  15.937  68.027  1.00  0.00    -0.334 C  
ENDROOT
BRANCH   2   3
HETATM    3  N   UNL     1     -10.063  14.975  67.457  1.00  0.00    -0.228 N  
BRANCH   3   4
HETATM    4  C   UNL     1      -9.641  15.433  66.031  1.00  0.00    -0.347 C  
HETATM    5  C   UNL     1     -10.562  16.421  65.360  1.00  0.00    -0.338 C  
ENDBRANCH   3   4
BRANCH   3   6
HETATM    6  C   UNL     1     -10.651  13.558  67.257  1.00  0.00    -0.263 C  
BRANCH   6   7
HETATM    7  C   UNL     1     -10.663  12.856  65.902  1.00  0.00    -0.291 A  
HETATM    8  C   UNL     1     -11.944  12.251  63.894  1.00  0.00    -0.582 A  
HETATM    9  C   UNL     1      -9.614  12.084  65.376  1.00  0.00    -0.148 A  
HETATM   10  C   UNL     1     -11.816  12.960  65.095  1.00  0.00    -0.380 A  
HETATM   11  C   UNL     1      -9.712  11.423  64.150  1.00  0.00    -0.267 A  
HETATM   12 CL   UNL     1     -13.148  13.952  65.582  1.00  0.00    -0.386 Cl 
HETATM   13  C   UNL     1     -10.886  11.484  63.420  1.00  0.00    -0.423 A  
ENDBRANCH   6   7
ENDBRANCH   3   6
BRANCH   3  14
HETATM   14  C   UNL     1      -8.877  14.994  68.504  1.00  0.00    -0.181 C  
BRANCH  14  15
HETATM   15  C   UNL     1      -7.945  13.734  68.544  1.00  0.00    -0.131 C  
BRANCH  15  16
HETATM   16  N   UNL     1      -8.546  12.449  68.873  1.00  0.00    -0.349 N  
HETATM   17  H   UNL     1      -9.527  12.397  69.149  1.00  0.00     0.000 HD 
HETATM   18  C   UNL     1      -7.775  11.292  68.809  1.00  0.00    -0.138 C  
HETATM   19  O   UNL     1      -6.664  11.248  68.309  1.00  0.00    -0.057 OA 
BRANCH  18  20
HETATM   20  C   UNL     1      -8.482  10.012  69.320  1.00  0.00    -0.163 C  
HETATM   21  N   UNL     1      -7.677   8.873  69.400  1.00  0.00    -0.091 N  
HETATM   22  O   UNL     1      -9.660  10.030  69.634  1.00  0.00    -0.214 OA 
HETATM   23  H   UNL     1      -6.812   8.806  68.864  1.00  0.00     0.000 HD 
BRANCH  21  24
HETATM   24  C   UNL     1      -8.104   7.783  70.269  1.00  0.00    -0.113 C  
BRANCH  24  25
HETATM   25  C   UNL     1      -8.252   6.402  69.575  1.00  0.00    -0.118 C  
BRANCH  25  26
HETATM   26  N   UNL     1      -9.706   5.882  69.467  1.00  0.00    -0.144 N  
BRANCH  26  27
HETATM   27  C   UNL     1      -9.847   4.513  70.195  1.00  0.00    -0.226 C  
HETATM   28  C   UNL     1      -9.296   3.314  69.435  1.00  0.00    -0.232 C  
ENDBRANCH  26  27
BRANCH  26  29
HETATM   29  C   UNL     1     -10.640   6.955  70.092  1.00  0.00    -0.220 C  
HETATM   30  C   UNL     1     -11.251   6.587  71.432  1.00  0.00    -0.331 C  
ENDBRANCH  26  29
BRANCH  26  31
HETATM   31  C   UNL     1     -10.093   5.653  67.959  1.00  0.00    -0.171 C  
BRANCH  31  32
HETATM   32  C   UNL     1      -9.310   6.378  66.877  1.00  0.00    -0.150 A  
HETATM   33  C   UNL     1      -9.489   7.762  66.670  1.00  0.00    -0.263 A  
HETATM   34  C   UNL     1      -8.881   8.426  65.599  1.00  0.00    -0.196 A  
HETATM   35  C   UNL     1      -8.096   7.718  64.698  1.00  0.00    -0.123 A  
HETATM   36  C   UNL     1      -7.887   6.356  64.889  1.00  0.00    -0.113 A  
HETATM   37  C   UNL     1      -8.477   5.693  65.970  1.00  0.00    -0.132 A  
HETATM   38 CL   UNL     1      -8.156   4.001  66.111  1.00  0.00    -0.098 Cl 
ENDBRANCH  31  32
ENDBRANCH  26  31
ENDBRANCH  25  26
ENDBRANCH  24  25
ENDBRANCH  21  24
ENDBRANCH  18  20
ENDBRANCH  15  16
ENDBRANCH  14  15
ENDBRANCH   3  14
ENDBRANCH   2   3
TORSDOF 15
ENDMDL
MODEL      257
REMARK 921   NORMALIZED FREE ENERGY PREDICTED BY IDOCK:   -3.93 KCAL/MOL
REMARK 922        TOTAL FREE ENERGY PREDICTED BY IDOCK:  -10.04 KCAL/MOL
REMARK 923 INTER-LIGAND FREE ENERGY PREDICTED BY IDOCK:   -8.33 KCAL/MOL
REMARK 924 INTRA-LIGAND FREE ENERGY PREDICTED BY IDOCK:   -1.71 KCAL/MOL
REMARK 927      BINDING AFFINITY PREDICTED BY RF-SCORE:    0.00 PKD
ROOT
HETATM    1  C   UNL     1      -8.670   5.095  70.724  1.00  0.00    -0.142 C  
HETATM    2  C   UNL     1      -8.517   5.612  72.147  1.00  0.00    -0.126 C  
ENDROOT
BRANCH   2   3
HETATM    3  N   UNL     1      -9.570   6.670  72.600  1.00  0.00    -0.147 N  
BRANCH   3   4
HETATM    4  C   UNL     1     -10.583   6.023  73.590  1.00  0.00    -0.264 C  
HETATM    5  C   UNL     1     -11.270   4.773  73.102  1.00  0.00    -0.390 C  
ENDBRANCH   3   4
BRANCH   3   6
HETATM    6  C   UNL     1     -10.431   7.121  71.397  1.00  0.00    -0.204 C  
BRANCH   6   7
HETATM    7  C   UNL     1     -11.488   8.216  71.505  1.00  0.00    -0.310 A  
HETATM    8  C   UNL     1     -12.072  10.575  71.137  1.00  0.00    -0.473 A  
HETATM    9  C   UNL     1     -12.747   8.075  72.111  1.00  0.00    -0.293 A  
HETATM   10  C   UNL     1     -11.199   9.491  70.974  1.00  0.00    -0.362 A  
HETATM   11  C   UNL     1     -13.648   9.136  72.222  1.00  0.00    -0.548 A  
HETATM   12 CL   UNL     1      -9.721   9.780  70.123  1.00  0.00    -0.298 Cl 
HETATM   13  C   UNL     1     -13.301  10.393  71.759  1.00  0.00    -0.456 A  
ENDBRANCH   6   7
ENDBRANCH   3   6
BRANCH   3  14
HETATM   14  C   UNL     1      -8.742   7.861  73.231  1.00  0.00    -0.236 C  
BRANCH  14  15
HETATM   15  C   UNL     1      -7.321   8.135  72.627  1.00  0.00    -0.111 C  
BRANCH  15  16
HETATM   16  N   UNL     1      -7.236   8.943  71.419  1.00  0.00    -0.097 N  
HETATM   17  H   UNL     1      -7.913   8.815  70.667  1.00  0.00     0.000 HD 
HETATM   18  C   UNL     1      -6.225   9.892  71.296  1.00  0.00     0.079 C  
HETATM   19  O   UNL     1      -5.504  10.234  72.218  1.00  0.00    -0.305 OA 
BRANCH  18  20
HETATM   20  C   UNL     1      -6.150  10.586  69.913  1.00  0.00    -0.079 C  
HETATM   21  N   UNL     1      -5.973   9.733  68.822  1.00  0.00    -0.039 N  
HETATM   22  O   UNL     1      -6.253  11.797  69.814  1.00  0.00    -0.115 OA 
HETATM   23  H   UNL     1      -5.596   8.794  68.948  1.00  0.00     0.000 HD 
BRANCH  21  24
HETATM   24  C   UNL     1      -6.341  10.218  67.497  1.00  0.00    -0.058 C  
BRANCH  24  25
HETATM   25  C   UNL     1      -7.850  10.108  67.147  1.00  0.00    -0.099 C  
BRANCH  25  26
HETATM   26  N   UNL     1      -8.271   8.761  66.511  1.00  0.00    -0.109 N  
BRANCH  26  27
HETATM   27  C   UNL     1      -7.278   8.360  65.381  1.00  0.00    -0.082 C  
HETATM   28  C   UNL     1      -7.871   7.512  64.265  1.00  0.00    -0.133 C  
ENDBRANCH  26  27
BRANCH  26  29
HETATM   29  C   UNL     1      -8.305   7.695  67.641  1.00  0.00    -0.118 C  
HETATM   30  C   UNL     1      -7.323   6.547  67.484  1.00  0.00    -0.095 C  
ENDBRANCH  26  29
BRANCH  26  31
HETATM   31  C   UNL     1      -9.697   8.889  65.857  1.00  0.00    -0.189 C  
BRANCH  31  32
HETATM   32  C   UNL     1     -10.097  10.204  65.209  1.00  0.00    -0.344 A  
HETATM   33  C   UNL     1      -9.705  10.497  63.885  1.00  0.00    -0.384 A  
HETATM   34  C   UNL     1      -9.947  11.751  63.312  1.00  0.00    -0.435 A  
HETATM   35  C   UNL     1     -10.567  12.747  64.055  1.00  0.00    -0.446 A  
HETATM   36  C   UNL     1     -10.980  12.479  65.356  1.00  0.00    -0.329 A  
HETATM   37  C   UNL     1     -10.759  11.221  65.926  1.00  0.00    -0.232 A  
HETATM   38 CL   UNL     1     -11.308  10.997  67.548  1.00  0.00    -0.365 Cl 
ENDBRANCH  31  32
ENDBRANCH  26  31
ENDBRANCH  25  26
ENDBRANCH  24  25
ENDBRANCH  21  24
ENDBRANCH  18  20
ENDBRANCH  15  16
ENDBRANCH  14  15
ENDBRANCH   3  14
ENDBRANCH   2   3
TORSDOF 15
ENDMDL
MODEL      258
REMARK 921   NORMALIZED FREE ENERGY PREDICTED BY IDOCK:   -3.93 KCAL/MOL
REMARK 922        TOTAL FREE ENERGY PREDICTED BY IDOCK:  -10.04 KCAL/MOL
REMARK 923 INTER-LIGAND FREE ENERGY PREDICTED BY IDOCK:   -8.60 KCAL/MOL
REMARK 924 INTRA-LIGAND FREE ENERGY PREDICTED BY IDOCK:   -1.44 KCAL/MOL
REMARK 927      BINDING AFFINITY PREDICTED BY RF-SCORE:    0.00 PKD
ROOT
HETATM    1  C   UNL     1      -5.875  17.144  70.057  1.00  0.00    -0.225 C  
HETATM    2  C   UNL     1      -5.469  16.996  68.598  1.00  0.00    -0.133 C  
ENDROOT
BRANCH   2   3
HETATM    3  N   UNL     1      -6.578  16.464  67.638  1.00  0.00    -0.135 N  
BRANCH   3   4
HETATM    4  C   UNL     1      -6.511  17.218  66.278  1.00  0.00    -0.197 C  
HETATM    5  C   UNL     1      -5.478  18.311  66.183  1.00  0.00    -0.201 C  
ENDBRANCH   3   4
BRANCH   3   6
HETATM    6  C   UNL     1      -7.980  16.795  68.202  1.00  0.00    -0.181 C  
BRANCH   6   7
HETATM    7  C   UNL     1      -8.825  17.953  67.681  1.00  0.00    -0.250 A  
HETATM    8  C   UNL     1     -10.406  18.766  65.984  1.00  0.00    -0.467 A  
HETATM    9  C   UNL     1      -8.814  19.262  68.191  1.00  0.00    -0.373 A  
HETATM   10  C   UNL     1      -9.687  17.726  66.587  1.00  0.00    -0.313 A  
HETATM   11  C   UNL     1      -9.575  20.290  67.632  1.00  0.00    -0.530 A  
HETATM   12 CL   UNL     1      -9.864  16.140  65.918  1.00  0.00    -0.368 Cl 
HETATM   13  C   UNL     1     -10.351  20.050  66.512  1.00  0.00    -0.572 A  
ENDBRANCH   6   7
ENDBRANCH   3   6
BRANCH   3  14
HETATM   14  C   UNL     1      -6.330  14.907  67.513  1.00  0.00    -0.043 C  
BRANCH  14  15
HETATM   15  C   UNL     1      -7.549  13.968  67.811  1.00  0.00    -0.170 C  
BRANCH  15  16
HETATM   16  N   UNL     1      -7.781  12.844  66.915  1.00  0.00    -0.391 N  
HETATM   17  H   UNL     1      -8.452  12.927  66.151  1.00  0.00     0.000 HD 
HETATM   18  C   UNL     1      -7.083  11.656  67.107  1.00  0.00    -0.143 C  
HETATM   19  O   UNL     1      -6.137  11.543  67.869  1.00  0.00    -0.046 OA 
BRANCH  18  20
HETATM   20  C   UNL     1      -7.519  10.490  66.185  1.00  0.00    -0.136 C  
HETATM   21  N   UNL     1      -7.122   9.217  66.598  1.00  0.00    -0.081 N  
HETATM   22  O   UNL     1      -8.174  10.699  65.178  1.00  0.00    -0.159 OA 
HETATM   23  H   UNL     1      -6.345   9.096  67.248  1.00  0.00     0.000 HD 
BRANCH  21  24
HETATM   24  C   UNL     1      -7.844   8.062  66.076  1.00  0.00    -0.094 C  
BRANCH  24  25
HETATM   25  C   UNL     1      -9.279   7.871  66.636  1.00  0.00    -0.177 C  
BRANCH  25  26
HETATM   26  N   UNL     1      -9.427   6.722  67.664  1.00  0.00    -0.119 N  
BRANCH  26  27
HETATM   27  C   UNL     1      -9.411   5.343  66.941  1.00  0.00    -0.135 C  
HETATM   28  C   UNL     1     -10.649   5.031  66.111  1.00  0.00    -0.321 C  
ENDBRANCH  26  27
BRANCH  26  29
HETATM   29  C   UNL     1      -8.257   6.844  68.680  1.00  0.00    -0.121 C  
HETATM   30  C   UNL     1      -7.474   5.567  68.928  1.00  0.00    -0.082 C  
ENDBRANCH  26  29
BRANCH  26  31
HETATM   31  C   UNL     1     -10.803   6.840  68.419  1.00  0.00    -0.223 C  
BRANCH  31  32
HETATM   32  C   UNL     1     -10.805   7.136  69.909  1.00  0.00    -0.276 A  
HETATM   33  C   UNL     1     -10.905   6.087  70.847  1.00  0.00    -0.349 A  
HETATM   34  C   UNL     1     -11.041   6.342  72.216  1.00  0.00    -0.311 A  
HETATM   35  C   UNL     1     -11.101   7.649  72.678  1.00  0.00    -0.412 A  
HETATM   36  C   UNL     1     -10.986   8.703  71.777  1.00  0.00    -0.396 A  
HETATM   37  C   UNL     1     -10.830   8.454  70.409  1.00  0.00    -0.235 A  
HETATM   38 CL   UNL     1     -10.701   9.833  69.379  1.00  0.00    -0.235 Cl 
ENDBRANCH  31  32
ENDBRANCH  26  31
ENDBRANCH  25  26
ENDBRANCH  24  25
ENDBRANCH  21  24
ENDBRANCH  18  20
ENDBRANCH  15  16
ENDBRANCH  14  15
ENDBRANCH   3  14
ENDBRANCH   2   3
TORSDOF 15
ENDMDL
MODEL      259
REMARK 921   NORMALIZED FREE ENERGY PREDICTED BY IDOCK:   -3.92 KCAL/MOL
REMARK 922        TOTAL FREE ENERGY PREDICTED BY IDOCK:  -10.03 KCAL/MOL
REMARK 923 INTER-LIGAND FREE ENERGY PREDICTED BY IDOCK:   -7.76 KCAL/MOL
REMARK 924 INTRA-LIGAND FREE ENERGY PREDICTED BY IDOCK:   -2.26 KCAL/MOL
REMARK 927      BINDING AFFINITY PREDICTED BY RF-SCORE:    0.00 PKD
ROOT
HETATM    1  C   UNL     1     -10.551  16.907  67.844  1.00  0.00    -0.361 C  
HETATM    2  C   UNL     1     -11.209  15.564  67.566  1.00  0.00    -0.272 C  
ENDROOT
BRANCH   2   3
HETATM    3  N   UNL     1     -10.651  14.779  66.338  1.00  0.00    -0.293 N  
BRANCH   3   4
HETATM    4  C   UNL     1     -11.187  15.405  65.018  1.00  0.00    -0.387 C  
HETATM    5  C   UNL     1     -12.535  14.911  64.558  1.00  0.00    -0.223 C  
ENDBRANCH   3   4
BRANCH   3   6
HETATM    6  C   UNL     1     -11.192  13.330  66.335  1.00  0.00    -0.302 C  
BRANCH   6   7
HETATM    7  C   UNL     1     -10.632  12.244  65.421  1.00  0.00    -0.309 A  
HETATM    8  C   UNL     1      -9.795   9.944  65.210  1.00  0.00    -0.373 A  
HETATM    9  C   UNL     1     -10.294  12.414  64.069  1.00  0.00    -0.435 A  
HETATM   10  C   UNL     1     -10.411  10.957  65.955  1.00  0.00    -0.221 A  
HETATM   11  C   UNL     1      -9.735  11.389  63.303  1.00  0.00    -0.413 A  
HETATM   12 CL   UNL     1     -10.866  10.586  67.583  1.00  0.00    -0.327 Cl 
HETATM   13  C   UNL     1      -9.461  10.162  63.879  1.00  0.00    -0.332 A  
ENDBRANCH   6   7
ENDBRANCH   3   6
BRANCH   3  14
HETATM   14  C   UNL     1      -9.075  14.835  66.471  1.00  0.00    -0.260 C  
BRANCH  14  15
HETATM   15  C   UNL     1      -8.411  13.822  67.467  1.00  0.00    -0.196 C  
BRANCH  15  16
HETATM   16  N   UNL     1      -7.545  12.790  66.916  1.00  0.00    -0.386 N  
HETATM   17  H   UNL     1      -7.164  12.889  65.975  1.00  0.00     0.000 HD 
HETATM   18  C   UNL     1      -7.237  11.669  67.681  1.00  0.00    -0.107 C  
HETATM   19  O   UNL     1      -7.492  11.572  68.870  1.00  0.00    -0.115 OA 
BRANCH  18  20
HETATM   20  C   UNL     1      -6.428  10.577  66.938  1.00  0.00    -0.080 C  
HETATM   21  N   UNL     1      -5.848   9.601  67.751  1.00  0.00    -0.044 N  
HETATM   22  O   UNL     1      -6.330  10.589  65.722  1.00  0.00    -0.113 OA 
HETATM   23  H   UNL     1      -5.690   9.775  68.744  1.00  0.00     0.000 HD 
BRANCH  21  24
HETATM   24  C   UNL     1      -5.476   8.328  67.147  1.00  0.00    -0.037 C  
BRANCH  24  25
HETATM   25  C   UNL     1      -5.606   7.091  68.076  1.00  0.00    -0.021 C  
BRANCH  25  26
HETATM   26  N   UNL     1      -6.995   6.406  68.054  1.00  0.00    -0.074 N  
BRANCH  26  27
HETATM   27  C   UNL     1      -7.992   7.233  67.189  1.00  0.00    -0.110 C  
HETATM   28  C   UNL     1      -8.763   6.436  66.146  1.00  0.00    -0.151 C  
ENDBRANCH  26  27
BRANCH  26  29
HETATM   29  C   UNL     1      -6.806   4.972  67.487  1.00  0.00    -0.060 C  
HETATM   30  C   UNL     1      -7.324   3.849  68.368  1.00  0.00    -0.055 C  
ENDBRANCH  26  29
BRANCH  26  31
HETATM   31  C   UNL     1      -7.588   6.330  69.509  1.00  0.00    -0.094 C  
BRANCH  31  32
HETATM   32  C   UNL     1      -8.743   7.244  69.885  1.00  0.00    -0.141 A  
HETATM   33  C   UNL     1      -8.497   8.543  70.377  1.00  0.00    -0.138 A  
HETATM   34  C   UNL     1      -9.534   9.353  70.853  1.00  0.00    -0.279 A  
HETATM   35  C   UNL     1     -10.838   8.876  70.866  1.00  0.00    -0.308 A  
HETATM   36  C   UNL     1     -11.112   7.606  70.369  1.00  0.00    -0.270 A  
HETATM   37  C   UNL     1     -10.081   6.800  69.875  1.00  0.00    -0.180 A  
HETATM   38 CL   UNL     1     -10.530   5.240  69.286  1.00  0.00    -0.293 Cl 
ENDBRANCH  31  32
ENDBRANCH  26  31
ENDBRANCH  25  26
ENDBRANCH  24  25
ENDBRANCH  21  24
ENDBRANCH  18  20
ENDBRANCH  15  16
ENDBRANCH  14  15
ENDBRANCH   3  14
ENDBRANCH   2   3
TORSDOF 15
ENDMDL
MODEL      260
REMARK 921   NORMALIZED FREE ENERGY PREDICTED BY IDOCK:   -3.92 KCAL/MOL
REMARK 922        TOTAL FREE ENERGY PREDICTED BY IDOCK:  -10.02 KCAL/MOL
REMARK 923 INTER-LIGAND FREE ENERGY PREDICTED BY IDOCK:   -9.85 KCAL/MOL
REMARK 924 INTRA-LIGAND FREE ENERGY PREDICTED BY IDOCK:   -0.17 KCAL/MOL
REMARK 927      BINDING AFFINITY PREDICTED BY RF-SCORE:    0.00 PKD
ROOT
HETATM    1  C   UNL     1     -11.311  14.866  66.105  1.00  0.00    -0.307 C  
HETATM    2  C   UNL     1     -10.403  16.068  65.890  1.00  0.00    -0.368 C  
ENDROOT
BRANCH   2   3
HETATM    3  N   UNL     1      -9.918  16.788  67.186  1.00  0.00    -0.267 N  
BRANCH   3   4
HETATM    4  C   UNL     1      -9.711  18.305  66.906  1.00  0.00    -0.315 C  
HETATM    5  C   UNL     1     -10.685  18.934  65.942  1.00  0.00    -0.366 C  
ENDBRANCH   3   4
BRANCH   3   6
HETATM    6  C   UNL     1      -8.520  16.270  67.597  1.00  0.00    -0.168 C  
BRANCH   6   7
HETATM    7  C   UNL     1      -7.458  17.172  68.220  1.00  0.00    -0.217 A  
HETATM    8  C   UNL     1      -5.799  17.492  70.004  1.00  0.00    -0.234 A  
HETATM    9  C   UNL     1      -7.159  18.481  67.808  1.00  0.00    -0.222 A  
HETATM   10  C   UNL     1      -6.708  16.683  69.311  1.00  0.00    -0.221 A  
HETATM   11  C   UNL     1      -6.209  19.272  68.457  1.00  0.00    -0.262 A  
HETATM   12 CL   UNL     1      -6.913  15.057  69.864  1.00  0.00    -0.179 Cl 
HETATM   13  C   UNL     1      -5.547  18.788  69.572  1.00  0.00    -0.227 A  
ENDBRANCH   6   7
ENDBRANCH   3   6
BRANCH   3  14
HETATM   14  C   UNL     1     -11.019  16.491  68.283  1.00  0.00    -0.346 C  
BRANCH  14  15
HETATM   15  C   UNL     1     -10.510  16.010  69.686  1.00  0.00    -0.300 C  
BRANCH  15  16
HETATM   16  N   UNL     1     -11.087  14.795  70.242  1.00  0.00    -0.430 N  
HETATM   17  H   UNL     1     -10.596  13.905  70.151  1.00  0.00     0.000 HD 
HETATM   18  C   UNL     1     -12.313  14.854  70.899  1.00  0.00    -0.328 C  
HETATM   19  O   UNL     1     -12.861  15.896  71.213  1.00  0.00    -0.471 OA 
BRANCH  18  20
HETATM   20  C   UNL     1     -12.891  13.479  71.319  1.00  0.00    -0.338 C  
HETATM   21  N   UNL     1     -12.301  12.369  70.713  1.00  0.00    -0.362 N  
HETATM   22  O   UNL     1     -13.794  13.403  72.136  1.00  0.00    -0.509 OA 
HETATM   23  H   UNL     1     -11.781  12.464  69.841  1.00  0.00     0.000 HD 
BRANCH  21  24
HETATM   24  C   UNL     1     -12.446  11.069  71.357  1.00  0.00    -0.331 C  
BRANCH  24  25
HETATM   25  C   UNL     1     -12.111   9.845  70.462  1.00  0.00    -0.207 C  
BRANCH  25  26
HETATM   26  N   UNL     1     -11.527   8.628  71.220  1.00  0.00    -0.270 N  
BRANCH  26  27
HETATM   27  C   UNL     1     -12.623   7.965  72.106  1.00  0.00    -0.249 C  
HETATM   28  C   UNL     1     -13.949   7.697  71.408  1.00  0.00    -0.447 C  
ENDBRANCH  26  27
BRANCH  26  29
HETATM   29  C   UNL     1     -10.974   7.633  70.162  1.00  0.00    -0.246 C  
HETATM   30  C   UNL     1     -11.432   6.194  70.319  1.00  0.00    -0.357 C  
ENDBRANCH  26  29
BRANCH  26  31
HETATM   31  C   UNL     1     -10.366   9.088  72.177  1.00  0.00    -0.112 C  
BRANCH  31  32
HETATM   32  C   UNL     1      -9.083   8.275  72.227  1.00  0.00    -0.289 A  
HETATM   33  C   UNL     1      -8.018   8.563  71.348  1.00  0.00    -0.168 A  
HETATM   34  C   UNL     1      -6.882   7.749  71.284  1.00  0.00    -0.049 A  
HETATM   35  C   UNL     1      -6.793   6.617  72.082  1.00  0.00    -0.067 A  
HETATM   36  C   UNL     1      -7.820   6.319  72.972  1.00  0.00    -0.103 A  
HETATM   37  C   UNL     1      -8.949   7.141  73.053  1.00  0.00    -0.133 A  
HETATM   38 CL   UNL     1     -10.166   6.678  74.188  1.00  0.00    -0.385 Cl 
ENDBRANCH  31  32
ENDBRANCH  26  31
ENDBRANCH  25  26
ENDBRANCH  24  25
ENDBRANCH  21  24
ENDBRANCH  18  20
ENDBRANCH  15  16
ENDBRANCH  14  15
ENDBRANCH   3  14
ENDBRANCH   2   3
TORSDOF 15
ENDMDL
MODEL      261
REMARK 921   NORMALIZED FREE ENERGY PREDICTED BY IDOCK:   -3.89 KCAL/MOL
REMARK 922        TOTAL FREE ENERGY PREDICTED BY IDOCK:   -9.96 KCAL/MOL
REMARK 923 INTER-LIGAND FREE ENERGY PREDICTED BY IDOCK:   -8.54 KCAL/MOL
REMARK 924 INTRA-LIGAND FREE ENERGY PREDICTED BY IDOCK:   -1.42 KCAL/MOL
REMARK 927      BINDING AFFINITY PREDICTED BY RF-SCORE:    0.00 PKD
ROOT
HETATM    1  C   UNL     1      -5.308  18.155  70.303  1.00  0.00    -0.250 C  
HETATM    2  C   UNL     1      -5.754  16.778  69.834  1.00  0.00    -0.220 C  
ENDROOT
BRANCH   2   3
HETATM    3  N   UNL     1      -6.556  16.746  68.496  1.00  0.00    -0.155 N  
BRANCH   3   4
HETATM    4  C   UNL     1      -6.128  17.938  67.591  1.00  0.00    -0.156 C  
HETATM    5  C   UNL     1      -5.544  17.568  66.251  1.00  0.00    -0.241 C  
ENDBRANCH   3   4
BRANCH   3   6
HETATM    6  C   UNL     1      -8.061  16.978  68.765  1.00  0.00    -0.250 C  
BRANCH   6   7
HETATM    7  C   UNL     1      -8.931  17.860  67.874  1.00  0.00    -0.264 A  
HETATM    8  C   UNL     1      -9.988  20.052  67.528  1.00  0.00    -0.565 A  
HETATM    9  C   UNL     1      -9.595  17.438  66.711  1.00  0.00    -0.283 A  
HETATM   10  C   UNL     1      -9.114  19.213  68.231  1.00  0.00    -0.338 A  
HETATM   11  C   UNL     1     -10.419  18.287  65.970  1.00  0.00    -0.380 A  
HETATM   12 CL   UNL     1      -8.284  19.887  69.592  1.00  0.00     0.303 Cl 
HETATM   13  C   UNL     1     -10.638  19.586  66.391  1.00  0.00    -0.571 A  
ENDBRANCH   6   7
ENDBRANCH   3   6
BRANCH   3  14
HETATM   14  C   UNL     1      -6.269  15.329  67.854  1.00  0.00    -0.153 C  
BRANCH  14  15
HETATM   15  C   UNL     1      -6.538  14.075  68.755  1.00  0.00    -0.096 C  
BRANCH  15  16
HETATM   16  N   UNL     1      -7.884  13.522  68.772  1.00  0.00    -0.299 N  
HETATM   17  H   UNL     1      -8.591  13.911  69.396  1.00  0.00     0.000 HD 
HETATM   18  C   UNL     1      -8.202  12.458  67.932  1.00  0.00    -0.163 C  
HETATM   19  O   UNL     1      -7.478  12.069  67.032  1.00  0.00    -0.148 OA 
BRANCH  18  20
HETATM   20  C   UNL     1      -9.617  11.864  68.143  1.00  0.00    -0.195 C  
HETATM   21  N   UNL     1      -9.874  10.671  67.465  1.00  0.00    -0.166 N  
HETATM   22  O   UNL     1     -10.427  12.418  68.867  1.00  0.00    -0.190 OA 
HETATM   23  H   UNL     1      -9.316  10.398  66.656  1.00  0.00     0.000 HD 
BRANCH  21  24
HETATM   24  C   UNL     1     -10.961   9.824  67.942  1.00  0.00    -0.188 C  
BRANCH  24  25
HETATM   25  C   UNL     1     -10.585   8.848  69.090  1.00  0.00    -0.195 C  
BRANCH  25  26
HETATM   26  N   UNL     1     -10.267   7.403  68.636  1.00  0.00    -0.187 N  
BRANCH  26  27
HETATM   27  C   UNL     1     -10.523   7.247  67.107  1.00  0.00    -0.324 C  
HETATM   28  C   UNL     1     -10.781   5.824  66.633  1.00  0.00    -0.333 C  
ENDBRANCH  26  27
BRANCH  26  29
HETATM   29  C   UNL     1      -8.785   7.108  68.995  1.00  0.00    -0.132 C  
HETATM   30  C   UNL     1      -7.761   7.580  67.978  1.00  0.00    -0.116 C  
ENDBRANCH  26  29
BRANCH  26  31
HETATM   31  C   UNL     1     -11.209   6.380  69.374  1.00  0.00    -0.394 C  
BRANCH  31  32
HETATM   32  C   UNL     1     -10.690   5.654  70.604  1.00  0.00    -0.333 A  
HETATM   33  C   UNL     1     -10.005   4.427  70.475  1.00  0.00    -0.256 A  
HETATM   34  C   UNL     1      -9.635   3.675  71.595  1.00  0.00    -0.226 A  
HETATM   35  C   UNL     1      -9.956   4.122  72.870  1.00  0.00    -0.202 A  
HETATM   36  C   UNL     1     -10.614   5.338  73.027  1.00  0.00    -0.278 A  
HETATM   37  C   UNL     1     -10.970   6.102  71.910  1.00  0.00    -0.263 A  
HETATM   38 CL   UNL     1     -11.787   7.592  72.218  1.00  0.00    -0.332 Cl 
ENDBRANCH  31  32
ENDBRANCH  26  31
ENDBRANCH  25  26
ENDBRANCH  24  25
ENDBRANCH  21  24
ENDBRANCH  18  20
ENDBRANCH  15  16
ENDBRANCH  14  15
ENDBRANCH   3  14
ENDBRANCH   2   3
TORSDOF 15
ENDMDL
MODEL      262
REMARK 921   NORMALIZED FREE ENERGY PREDICTED BY IDOCK:   -3.89 KCAL/MOL
REMARK 922        TOTAL FREE ENERGY PREDICTED BY IDOCK:   -9.96 KCAL/MOL
REMARK 923 INTER-LIGAND FREE ENERGY PREDICTED BY IDOCK:   -8.14 KCAL/MOL
REMARK 924 INTRA-LIGAND FREE ENERGY PREDICTED BY IDOCK:   -1.82 KCAL/MOL
REMARK 927      BINDING AFFINITY PREDICTED BY RF-SCORE:    0.00 PKD
ROOT
HETATM    1  C   UNL     1     -12.199  14.094  64.536  1.00  0.00    -0.468 C  
HETATM    2  C   UNL     1     -12.319  13.953  66.046  1.00  0.00    -0.475 C  
ENDROOT
BRANCH   2   3
HETATM    3  N   UNL     1     -11.305  12.975  66.717  1.00  0.00    -0.309 N  
BRANCH   3   4
HETATM    4  C   UNL     1     -12.022  12.132  67.811  1.00  0.00    -0.128 C  
HETATM    5  C   UNL     1     -11.265  11.952  69.102  1.00  0.00    -0.314 C  
ENDBRANCH   3   4
BRANCH   3   6
HETATM    6  C   UNL     1     -10.219  13.768  67.481  1.00  0.00    -0.241 C  
BRANCH   6   7
HETATM    7  C   UNL     1      -9.997  15.264  67.281  1.00  0.00    -0.226 A  
HETATM    8  C   UNL     1     -10.659  17.555  67.877  1.00  0.00    -0.390 A  
HETATM    9  C   UNL     1      -9.126  15.839  66.341  1.00  0.00    -0.357 A  
HETATM   10  C   UNL     1     -10.724  16.171  68.081  1.00  0.00    -0.315 A  
HETATM   11  C   UNL     1      -9.010  17.221  66.174  1.00  0.00    -0.189 A  
HETATM   12 CL   UNL     1     -11.767  15.598  69.338  1.00  0.00    -0.373 Cl 
HETATM   13  C   UNL     1      -9.795  18.079  66.923  1.00  0.00    -0.330 A  
ENDBRANCH   6   7
ENDBRANCH   3   6
BRANCH   3  14
HETATM   14  C   UNL     1     -10.702  12.106  65.541  1.00  0.00    -0.283 C  
BRANCH  14  15
HETATM   15  C   UNL     1      -9.252  11.545  65.745  1.00  0.00    -0.196 C  
BRANCH  15  16
HETATM   16  N   UNL     1      -9.105  10.245  66.382  1.00  0.00    -0.151 N  
HETATM   17  H   UNL     1      -9.313  10.134  67.374  1.00  0.00     0.000 HD 
HETATM   18  C   UNL     1      -8.680   9.154  65.629  1.00  0.00    -0.174 C  
HETATM   19  O   UNL     1      -8.600   9.163  64.413  1.00  0.00    -0.186 OA 
BRANCH  18  20
HETATM   20  C   UNL     1      -8.424   7.862  66.445  1.00  0.00    -0.138 C  
HETATM   21  N   UNL     1      -7.987   8.057  67.756  1.00  0.00    -0.125 N  
HETATM   22  O   UNL     1      -8.612   6.762  65.952  1.00  0.00    -0.143 OA 
HETATM   23  H   UNL     1      -7.558   8.938  68.039  1.00  0.00     0.000 HD 
BRANCH  21  24
HETATM   24  C   UNL     1      -8.157   6.969  68.712  1.00  0.00    -0.121 C  
BRANCH  24  25
HETATM   25  C   UNL     1      -9.512   6.960  69.471  1.00  0.00    -0.146 C  
BRANCH  25  26
HETATM   26  N   UNL     1      -9.393   6.824  71.009  1.00  0.00    -0.160 N  
BRANCH  26  27
HETATM   27  C   UNL     1      -8.921   8.169  71.637  1.00  0.00    -0.163 C  
HETATM   28  C   UNL     1      -8.035   8.036  72.867  1.00  0.00    -0.202 C  
ENDBRANCH  26  27
BRANCH  26  29
HETATM   29  C   UNL     1     -10.784   6.400  71.555  1.00  0.00    -0.238 C  
HETATM   30  C   UNL     1     -11.969   6.776  70.683  1.00  0.00    -0.418 C  
ENDBRANCH  26  29
BRANCH  26  31
HETATM   31  C   UNL     1      -8.320   5.733  71.378  1.00  0.00    -0.127 C  
BRANCH  31  32
HETATM   32  C   UNL     1      -8.726   4.269  71.379  1.00  0.00    -0.139 A  
HETATM   33  C   UNL     1      -8.748   3.531  70.176  1.00  0.00    -0.121 A  
HETATM   34  C   UNL     1      -9.242   2.223  70.130  1.00  0.00    -0.189 A  
HETATM   35  C   UNL     1      -9.744   1.629  71.280  1.00  0.00    -0.204 A  
HETATM   36  C   UNL     1      -9.716   2.326  72.483  1.00  0.00    -0.178 A  
HETATM   37  C   UNL     1      -9.205   3.627  72.538  1.00  0.00    -0.106 A  
HETATM   38 CL   UNL     1      -9.223   4.403  74.081  1.00  0.00    -0.112 Cl 
ENDBRANCH  31  32
ENDBRANCH  26  31
ENDBRANCH  25  26
ENDBRANCH  24  25
ENDBRANCH  21  24
ENDBRANCH  18  20
ENDBRANCH  15  16
ENDBRANCH  14  15
ENDBRANCH   3  14
ENDBRANCH   2   3
TORSDOF 15
ENDMDL
MODEL      263
REMARK 921   NORMALIZED FREE ENERGY PREDICTED BY IDOCK:   -3.89 KCAL/MOL
REMARK 922        TOTAL FREE ENERGY PREDICTED BY IDOCK:   -9.95 KCAL/MOL
REMARK 923 INTER-LIGAND FREE ENERGY PREDICTED BY IDOCK:   -8.05 KCAL/MOL
REMARK 924 INTRA-LIGAND FREE ENERGY PREDICTED BY IDOCK:   -1.90 KCAL/MOL
REMARK 927      BINDING AFFINITY PREDICTED BY RF-SCORE:    0.00 PKD
ROOT
HETATM    1  C   UNL     1      -9.095   9.941  63.822  1.00  0.00    -0.293 C  
HETATM    2  C   UNL     1      -9.805   9.910  65.168  1.00  0.00    -0.278 C  
ENDROOT
BRANCH   2   3
HETATM    3  N   UNL     1      -9.008  10.511  66.367  1.00  0.00    -0.156 N  
BRANCH   3   4
HETATM    4  C   UNL     1      -9.714  10.153  67.707  1.00  0.00    -0.153 C  
HETATM    5  C   UNL     1     -11.091   9.552  67.584  1.00  0.00    -0.009 C  
ENDBRANCH   3   4
BRANCH   3   6
HETATM    6  C   UNL     1      -9.034  12.056  66.310  1.00  0.00    -0.129 C  
BRANCH   6   7
HETATM    7  C   UNL     1     -10.276  12.845  65.906  1.00  0.00    -0.299 A  
HETATM    8  C   UNL     1     -12.278  14.073  66.631  1.00  0.00    -0.463 A  
HETATM    9  C   UNL     1     -10.728  13.033  64.589  1.00  0.00    -0.386 A  
HETATM   10  C   UNL     1     -11.065  13.433  66.917  1.00  0.00    -0.292 A  
HETATM   11  C   UNL     1     -11.905  13.723  64.293  1.00  0.00    -0.451 A  
HETATM   12 CL   UNL     1     -10.577  13.354  68.575  1.00  0.00    -0.258 Cl 
HETATM   13  C   UNL     1     -12.694  14.221  65.314  1.00  0.00    -0.358 A  
ENDBRANCH   6   7
ENDBRANCH   3   6
BRANCH   3  14
HETATM   14  C   UNL     1      -7.543   9.927  66.247  1.00  0.00    -0.102 C  
BRANCH  14  15
HETATM   15  C   UNL     1      -7.405   8.367  66.167  1.00  0.00    -0.084 C  
BRANCH  15  16
HETATM   16  N   UNL     1      -7.256   7.629  67.413  1.00  0.00    -0.085 N  
HETATM   17  H   UNL     1      -6.465   7.818  68.029  1.00  0.00     0.000 HD 
HETATM   18  C   UNL     1      -8.198   6.666  67.759  1.00  0.00    -0.119 C  
HETATM   19  O   UNL     1      -9.261   6.520  67.178  1.00  0.00    -0.124 OA 
BRANCH  18  20
HETATM   20  C   UNL     1      -7.856   5.849  69.030  1.00  0.00    -0.095 C  
HETATM   21  N   UNL     1      -7.088   6.519  69.985  1.00  0.00    -0.072 N  
HETATM   22  O   UNL     1      -8.255   4.705  69.166  1.00  0.00    -0.079 OA 
HETATM   23  H   UNL     1      -6.529   7.333  69.729  1.00  0.00     0.000 HD 
BRANCH  21  24
HETATM   24  C   UNL     1      -7.105   6.026  71.357  1.00  0.00    -0.078 C  
BRANCH  24  25
HETATM   25  C   UNL     1      -8.436   6.250  72.126  1.00  0.00    -0.112 C  
BRANCH  25  26
HETATM   26  N   UNL     1      -8.744   7.727  72.471  1.00  0.00    -0.132 N  
BRANCH  26  27
HETATM   27  C   UNL     1      -9.653   7.810  73.732  1.00  0.00    -0.138 C  
HETATM   28  C   UNL     1     -10.234   6.484  74.203  1.00  0.00    -0.380 C  
ENDBRANCH  26  27
BRANCH  26  29
HETATM   29  C   UNL     1      -7.390   8.453  72.699  1.00  0.00    -0.073 C  
HETATM   30  C   UNL     1      -6.812   8.331  74.098  1.00  0.00    -0.170 C  
ENDBRANCH  26  29
BRANCH  26  31
HETATM   31  C   UNL     1      -9.523   8.412  71.287  1.00  0.00    -0.186 C  
BRANCH  31  32
HETATM   32  C   UNL     1     -11.038   8.509  71.356  1.00  0.00    -0.328 A  
HETATM   33  C   UNL     1     -11.659   9.676  71.849  1.00  0.00    -0.167 A  
HETATM   34  C   UNL     1     -13.042   9.740  72.046  1.00  0.00    -0.546 A  
HETATM   35  C   UNL     1     -13.835   8.633  71.775  1.00  0.00    -0.472 A  
HETATM   36  C   UNL     1     -13.252   7.475  71.270  1.00  0.00    -0.313 A  
HETATM   37  C   UNL     1     -11.871   7.413  71.053  1.00  0.00    -0.307 A  
HETATM   38 CL   UNL     1     -11.250   5.928  70.429  1.00  0.00    -0.368 Cl 
ENDBRANCH  31  32
ENDBRANCH  26  31
ENDBRANCH  25  26
ENDBRANCH  24  25
ENDBRANCH  21  24
ENDBRANCH  18  20
ENDBRANCH  15  16
ENDBRANCH  14  15
ENDBRANCH   3  14
ENDBRANCH   2   3
TORSDOF 15
ENDMDL
MODEL      264
REMARK 921   NORMALIZED FREE ENERGY PREDICTED BY IDOCK:   -3.86 KCAL/MOL
REMARK 922        TOTAL FREE ENERGY PREDICTED BY IDOCK:   -9.91 KCAL/MOL
REMARK 923 INTER-LIGAND FREE ENERGY PREDICTED BY IDOCK:   -8.85 KCAL/MOL
REMARK 924 INTRA-LIGAND FREE ENERGY PREDICTED BY IDOCK:   -1.06 KCAL/MOL
REMARK 927      BINDING AFFINITY PREDICTED BY RF-SCORE:    0.00 PKD
ROOT
HETATM    1  C   UNL     1     -10.503   4.891  66.167  1.00  0.00    -0.346 C  
HETATM    2  C   UNL     1      -9.529   5.787  66.920  1.00  0.00    -0.133 C  
ENDROOT
BRANCH   2   3
HETATM    3  N   UNL     1      -8.698   5.089  68.040  1.00  0.00    -0.102 N  
BRANCH   3   4
HETATM    4  C   UNL     1      -7.836   3.946  67.430  1.00  0.00    -0.087 C  
HETATM    5  C   UNL     1      -8.056   2.574  68.016  1.00  0.00    -0.067 C  
ENDBRANCH   3   4
BRANCH   3   6
HETATM    6  C   UNL     1      -9.636   4.380  69.045  1.00  0.00    -0.174 C  
BRANCH   6   7
HETATM    7  C   UNL     1     -10.372   5.128  70.153  1.00  0.00    -0.340 A  
HETATM    8  C   UNL     1     -10.721   5.436  72.566  1.00  0.00    -0.288 A  
HETATM    9  C   UNL     1     -11.406   6.058  69.960  1.00  0.00    -0.354 A  
HETATM   10  C   UNL     1     -10.015   4.874  71.494  1.00  0.00    -0.194 A  
HETATM   11  C   UNL     1     -12.074   6.668  71.024  1.00  0.00    -0.384 A  
HETATM   12 CL   UNL     1      -8.698   3.817  71.873  1.00  0.00    -0.113 Cl 
HETATM   13  C   UNL     1     -11.750   6.338  72.327  1.00  0.00    -0.344 A  
ENDBRANCH   6   7
ENDBRANCH   3   6
BRANCH   3  14
HETATM   14  C   UNL     1      -7.842   6.234  68.719  1.00  0.00    -0.101 C  
BRANCH  14  15
HETATM   15  C   UNL     1      -8.603   7.542  69.127  1.00  0.00    -0.136 C  
BRANCH  15  16
HETATM   16  N   UNL     1      -8.632   8.642  68.174  1.00  0.00    -0.140 N  
HETATM   17  H   UNL     1      -9.132   8.543  67.290  1.00  0.00     0.000 HD 
HETATM   18  C   UNL     1      -7.973   9.830  68.475  1.00  0.00    -0.089 C  
HETATM   19  O   UNL     1      -7.522  10.092  69.577  1.00  0.00    -0.101 OA 
BRANCH  18  20
HETATM   20  C   UNL     1      -7.952  10.871  67.327  1.00  0.00    -0.123 C  
HETATM   21  N   UNL     1      -9.181  11.105  66.707  1.00  0.00    -0.168 N  
HETATM   22  O   UNL     1      -6.919  11.440  67.016  1.00  0.00    -0.116 OA 
HETATM   23  H   UNL     1      -9.937  10.424  66.771  1.00  0.00     0.000 HD 
BRANCH  21  24
HETATM   24  C   UNL     1      -9.356  12.347  65.964  1.00  0.00    -0.114 C  
BRANCH  24  25
HETATM   25  C   UNL     1      -9.525  13.622  66.835  1.00  0.00    -0.262 C  
BRANCH  25  26
HETATM   26  N   UNL     1     -10.278  14.784  66.144  1.00  0.00    -0.283 N  
BRANCH  26  27
HETATM   27  C   UNL     1      -9.358  16.035  66.033  1.00  0.00    -0.345 C  
HETATM   28  C   UNL     1      -8.007  15.912  66.725  1.00  0.00    -0.287 C  
ENDBRANCH  26  27
BRANCH  26  29
HETATM   29  C   UNL     1     -10.732  14.288  64.743  1.00  0.00    -0.416 C  
HETATM   30  C   UNL     1     -12.232  14.285  64.507  1.00  0.00    -0.476 C  
ENDBRANCH  26  29
BRANCH  26  31
HETATM   31  C   UNL     1     -11.535  15.201  66.994  1.00  0.00    -0.228 C  
BRANCH  31  32
HETATM   32  C   UNL     1     -11.539  14.930  68.489  1.00  0.00    -0.347 A  
HETATM   33  C   UNL     1     -12.052  13.717  68.995  1.00  0.00    -0.359 A  
HETATM   34  C   UNL     1     -12.188  13.498  70.370  1.00  0.00    -0.426 A  
HETATM   35  C   UNL     1     -11.832  14.493  71.271  1.00  0.00    -0.345 A  
HETATM   36  C   UNL     1     -11.304  15.691  70.801  1.00  0.00    -0.400 A  
HETATM   37  C   UNL     1     -11.149  15.907  69.427  1.00  0.00    -0.322 A  
HETATM   38 CL   UNL     1     -10.490  17.431  68.951  1.00  0.00    -0.340 Cl 
ENDBRANCH  31  32
ENDBRANCH  26  31
ENDBRANCH  25  26
ENDBRANCH  24  25
ENDBRANCH  21  24
ENDBRANCH  18  20
ENDBRANCH  15  16
ENDBRANCH  14  15
ENDBRANCH   3  14
ENDBRANCH   2   3
TORSDOF 15
ENDMDL
MODEL      265
REMARK 921   NORMALIZED FREE ENERGY PREDICTED BY IDOCK:   -3.85 KCAL/MOL
REMARK 922        TOTAL FREE ENERGY PREDICTED BY IDOCK:   -9.88 KCAL/MOL
REMARK 923 INTER-LIGAND FREE ENERGY PREDICTED BY IDOCK:   -8.06 KCAL/MOL
REMARK 924 INTRA-LIGAND FREE ENERGY PREDICTED BY IDOCK:   -1.82 KCAL/MOL
REMARK 927      BINDING AFFINITY PREDICTED BY RF-SCORE:    0.00 PKD
ROOT
HETATM    1  C   UNL     1     -10.144  17.995  67.290  1.00  0.00    -0.346 C  
HETATM    2  C   UNL     1     -10.437  16.631  67.899  1.00  0.00    -0.322 C  
ENDROOT
BRANCH   2   3
HETATM    3  N   UNL     1     -10.531  15.446  66.889  1.00  0.00    -0.289 N  
BRANCH   3   4
HETATM    4  C   UNL     1     -10.786  15.989  65.453  1.00  0.00    -0.383 C  
HETATM    5  C   UNL     1     -11.665  15.136  64.574  1.00  0.00    -0.331 C  
ENDBRANCH   3   4
BRANCH   3   6
HETATM    6  C   UNL     1     -11.766  14.569  67.202  1.00  0.00    -0.399 C  
BRANCH   6   7
HETATM    7  C   UNL     1     -11.913  13.789  68.504  1.00  0.00    -0.402 A  
HETATM    8  C   UNL     1     -11.890  11.600  69.623  1.00  0.00    -0.419 A  
HETATM    9  C   UNL     1     -12.296  14.334  69.741  1.00  0.00    -0.342 A  
HETATM   10  C   UNL     1     -11.665  12.400  68.495  1.00  0.00    -0.326 A  
HETATM   11  C   UNL     1     -12.463  13.552  70.885  1.00  0.00    -0.448 A  
HETATM   12 CL   UNL     1     -11.102  11.613  67.060  1.00  0.00    -0.337 Cl 
HETATM   13  C   UNL     1     -12.286  12.181  70.822  1.00  0.00    -0.367 A  
ENDBRANCH   6   7
ENDBRANCH   3   6
BRANCH   3  14
HETATM   14  C   UNL     1      -9.172  14.648  67.032  1.00  0.00    -0.239 C  
BRANCH  14  15
HETATM   15  C   UNL     1      -8.597  14.480  68.481  1.00  0.00    -0.175 C  
BRANCH  15  16
HETATM   16  N   UNL     1      -8.158  13.155  68.893  1.00  0.00    -0.338 N  
HETATM   17  H   UNL     1      -8.844  12.427  69.095  1.00  0.00     0.000 HD 
HETATM   18  C   UNL     1      -6.798  12.886  69.009  1.00  0.00    -0.080 C  
HETATM   19  O   UNL     1      -5.924  13.635  68.605  1.00  0.00    -0.078 OA 
BRANCH  18  20
HETATM   20  C   UNL     1      -6.458  11.491  69.592  1.00  0.00    -0.129 C  
HETATM   21  N   UNL     1      -7.539  10.617  69.724  1.00  0.00    -0.339 N  
HETATM   22  O   UNL     1      -5.313  11.201  69.895  1.00  0.00    -0.046 OA 
HETATM   23  H   UNL     1      -8.496  10.968  69.753  1.00  0.00     0.000 HD 
BRANCH  21  24
HETATM   24  C   UNL     1      -7.266   9.188  69.819  1.00  0.00    -0.062 C  
BRANCH  24  25
HETATM   25  C   UNL     1      -8.318   8.266  69.145  1.00  0.00    -0.123 C  
BRANCH  25  26
HETATM   26  N   UNL     1      -8.652   6.977  69.934  1.00  0.00    -0.140 N  
BRANCH  26  27
HETATM   27  C   UNL     1      -8.315   7.164  71.443  1.00  0.00    -0.112 C  
HETATM   28  C   UNL     1      -9.456   7.690  72.303  1.00  0.00    -0.209 C  
ENDBRANCH  26  27
BRANCH  26  29
HETATM   29  C   UNL     1     -10.160   6.670  69.724  1.00  0.00    -0.182 C  
HETATM   30  C   UNL     1     -10.850   7.497  68.653  1.00  0.00    -0.044 C  
ENDBRANCH  26  29
BRANCH  26  31
HETATM   31  C   UNL     1      -7.784   5.775  69.406  1.00  0.00    -0.092 C  
BRANCH  31  32
HETATM   32  C   UNL     1      -8.148   5.127  68.080  1.00  0.00    -0.094 A  
HETATM   33  C   UNL     1      -7.889   5.793  66.864  1.00  0.00    -0.101 A  
HETATM   34  C   UNL     1      -8.332   5.279  65.641  1.00  0.00    -0.126 A  
HETATM   35  C   UNL     1      -9.062   4.098  65.606  1.00  0.00    -0.137 A  
HETATM   36  C   UNL     1      -9.315   3.411  66.789  1.00  0.00    -0.190 A  
HETATM   37  C   UNL     1      -8.857   3.911  68.012  1.00  0.00    -0.111 A  
HETATM   38 CL   UNL     1      -9.231   2.982  69.419  1.00  0.00    -0.201 Cl 
ENDBRANCH  31  32
ENDBRANCH  26  31
ENDBRANCH  25  26
ENDBRANCH  24  25
ENDBRANCH  21  24
ENDBRANCH  18  20
ENDBRANCH  15  16
ENDBRANCH  14  15
ENDBRANCH   3  14
ENDBRANCH   2   3
TORSDOF 15
ENDMDL
MODEL      266
REMARK 921   NORMALIZED FREE ENERGY PREDICTED BY IDOCK:   -3.85 KCAL/MOL
REMARK 922        TOTAL FREE ENERGY PREDICTED BY IDOCK:   -9.88 KCAL/MOL
REMARK 923 INTER-LIGAND FREE ENERGY PREDICTED BY IDOCK:   -8.67 KCAL/MOL
REMARK 924 INTRA-LIGAND FREE ENERGY PREDICTED BY IDOCK:   -1.21 KCAL/MOL
REMARK 927      BINDING AFFINITY PREDICTED BY RF-SCORE:    0.00 PKD
ROOT
HETATM    1  C   UNL     1     -11.027   6.244  66.972  1.00  0.00    -0.442 C  
HETATM    2  C   UNL     1     -10.166   7.304  67.644  1.00  0.00    -0.200 C  
ENDROOT
BRANCH   2   3
HETATM    3  N   UNL     1      -8.944   6.768  68.451  1.00  0.00    -0.125 N  
BRANCH   3   4
HETATM    4  C   UNL     1      -8.231   5.638  67.652  1.00  0.00    -0.101 C  
HETATM    5  C   UNL     1      -6.757   5.474  67.920  1.00  0.00    -0.055 C  
ENDBRANCH   3   4
BRANCH   3   6
HETATM    6  C   UNL     1      -9.417   6.088  69.757  1.00  0.00    -0.149 C  
BRANCH   6   7
HETATM    7  C   UNL     1     -10.399   6.747  70.720  1.00  0.00    -0.227 A  
HETATM    8  C   UNL     1     -10.811   7.635  72.974  1.00  0.00    -0.457 A  
HETATM    9  C   UNL     1     -11.755   7.003  70.452  1.00  0.00    -0.326 A  
HETATM   10  C   UNL     1      -9.942   7.130  71.998  1.00  0.00    -0.162 A  
HETATM   11  C   UNL     1     -12.613   7.563  71.400  1.00  0.00    -0.382 A  
HETATM   12 CL   UNL     1      -8.275   6.954  72.429  1.00  0.00    -0.104 Cl 
HETATM   13  C   UNL     1     -12.149   7.855  72.670  1.00  0.00    -0.240 A  
ENDBRANCH   6   7
ENDBRANCH   3   6
BRANCH   3  14
HETATM   14  C   UNL     1      -8.023   8.026  68.726  1.00  0.00    -0.119 C  
BRANCH  14  15
HETATM   15  C   UNL     1      -8.629   9.168  69.612  1.00  0.00    -0.143 C  
BRANCH  15  16
HETATM   16  N   UNL     1      -8.401  10.546  69.202  1.00  0.00    -0.162 N  
HETATM   17  H   UNL     1      -9.048  11.003  68.559  1.00  0.00     0.000 HD 
HETATM   18  C   UNL     1      -7.296  11.236  69.691  1.00  0.00     0.104 C  
HETATM   19  O   UNL     1      -6.593  10.828  70.601  1.00  0.00    -0.332 OA 
BRANCH  18  20
HETATM   20  C   UNL     1      -7.080  12.640  69.073  1.00  0.00    -0.028 C  
HETATM   21  N   UNL     1      -8.077  13.069  68.195  1.00  0.00    -0.147 N  
HETATM   22  O   UNL     1      -6.102  13.308  69.362  1.00  0.00    -0.093 OA 
HETATM   23  H   UNL     1      -8.703  12.399  67.747  1.00  0.00     0.000 HD 
BRANCH  21  24
HETATM   24  C   UNL     1      -8.202  14.498  67.933  1.00  0.00    -0.153 C  
BRANCH  24  25
HETATM   25  C   UNL     1      -9.281  15.233  68.772  1.00  0.00    -0.203 C  
BRANCH  25  26
HETATM   26  N   UNL     1     -10.426  15.867  67.945  1.00  0.00    -0.279 N  
BRANCH  26  27
HETATM   27  C   UNL     1     -10.452  17.410  68.150  1.00  0.00    -0.389 C  
HETATM   28  C   UNL     1      -9.125  18.034  68.561  1.00  0.00    -0.293 C  
ENDBRANCH  26  27
BRANCH  26  29
HETATM   29  C   UNL     1     -10.194  15.496  66.454  1.00  0.00    -0.289 C  
HETATM   30  C   UNL     1     -10.593  16.561  65.448  1.00  0.00    -0.293 C  
ENDBRANCH  26  29
BRANCH  26  31
HETATM   31  C   UNL     1     -11.818  15.307  68.423  1.00  0.00    -0.260 C  
BRANCH  31  32
HETATM   32  C   UNL     1     -11.930  13.844  68.817  1.00  0.00    -0.393 A  
HETATM   33  C   UNL     1     -12.028  13.474  70.174  1.00  0.00    -0.399 A  
HETATM   34  C   UNL     1     -12.000  12.132  70.570  1.00  0.00    -0.308 A  
HETATM   35  C   UNL     1     -11.853  11.130  69.620  1.00  0.00    -0.419 A  
HETATM   36  C   UNL     1     -11.773  11.466  68.272  1.00  0.00    -0.359 A  
HETATM   37  C   UNL     1     -11.821  12.805  67.871  1.00  0.00    -0.339 A  
HETATM   38 CL   UNL     1     -11.709  13.111  66.175  1.00  0.00    -0.402 Cl 
ENDBRANCH  31  32
ENDBRANCH  26  31
ENDBRANCH  25  26
ENDBRANCH  24  25
ENDBRANCH  21  24
ENDBRANCH  18  20
ENDBRANCH  15  16
ENDBRANCH  14  15
ENDBRANCH   3  14
ENDBRANCH   2   3
TORSDOF 15
ENDMDL
MODEL      267
REMARK 921   NORMALIZED FREE ENERGY PREDICTED BY IDOCK:   -3.84 KCAL/MOL
REMARK 922        TOTAL FREE ENERGY PREDICTED BY IDOCK:   -9.87 KCAL/MOL
REMARK 923 INTER-LIGAND FREE ENERGY PREDICTED BY IDOCK:   -8.26 KCAL/MOL
REMARK 924 INTRA-LIGAND FREE ENERGY PREDICTED BY IDOCK:   -1.60 KCAL/MOL
REMARK 927      BINDING AFFINITY PREDICTED BY RF-SCORE:    0.00 PKD
ROOT
HETATM    1  C   UNL     1     -10.563  18.006  65.872  1.00  0.00    -0.225 C  
HETATM    2  C   UNL     1     -10.381  16.602  66.430  1.00  0.00    -0.306 C  
ENDROOT
BRANCH   2   3
HETATM    3  N   UNL     1      -9.438  16.483  67.667  1.00  0.00    -0.224 N  
BRANCH   3   4
HETATM    4  C   UNL     1     -10.032  17.276  68.867  1.00  0.00    -0.307 C  
HETATM    5  C   UNL     1     -10.911  16.488  69.805  1.00  0.00    -0.302 C  
ENDBRANCH   3   4
BRANCH   3   6
HETATM    6  C   UNL     1      -8.081  17.166  67.378  1.00  0.00    -0.177 C  
BRANCH   6   7
HETATM    7  C   UNL     1      -7.202  17.751  68.479  1.00  0.00    -0.259 A  
HETATM    8  C   UNL     1      -6.272  19.764  69.538  1.00  0.00    -0.359 A  
HETATM    9  C   UNL     1      -6.415  17.006  69.373  1.00  0.00    -0.236 A  
HETATM   10  C   UNL     1      -7.143  19.152  68.627  1.00  0.00    -0.318 A  
HETATM   11  C   UNL     1      -5.590  17.608  70.325  1.00  0.00    -0.235 A  
HETATM   12 CL   UNL     1      -8.129  20.186  67.650  1.00  0.00    -0.344 Cl 
HETATM   13  C   UNL     1      -5.498  18.987  70.392  1.00  0.00    -0.245 A  
ENDBRANCH   6   7
ENDBRANCH   3   6
BRANCH   3  14
HETATM   14  C   UNL     1      -9.286  14.933  67.947  1.00  0.00    -0.183 C  
BRANCH  14  15
HETATM   15  C   UNL     1      -8.996  14.014  66.709  1.00  0.00    -0.197 C  
BRANCH  15  16
HETATM   16  N   UNL     1      -8.763  12.597  66.950  1.00  0.00    -0.286 N  
HETATM   17  H   UNL     1      -9.533  11.932  66.881  1.00  0.00     0.000 HD 
HETATM   18  C   UNL     1      -7.484  12.155  67.273  1.00  0.00    -0.152 C  
HETATM   19  O   UNL     1      -6.486  12.852  67.186  1.00  0.00    -0.210 OA 
BRANCH  18  20
HETATM   20  C   UNL     1      -7.390  10.655  67.646  1.00  0.00    -0.090 C  
HETATM   21  N   UNL     1      -8.560   9.916  67.465  1.00  0.00    -0.122 N  
HETATM   22  O   UNL     1      -6.346  10.176  68.058  1.00  0.00    -0.056 OA 
HETATM   23  H   UNL     1      -9.468  10.379  67.415  1.00  0.00     0.000 HD 
BRANCH  21  24
HETATM   24  C   UNL     1      -8.454   8.467  67.348  1.00  0.00    -0.127 C  
BRANCH  24  25
HETATM   25  C   UNL     1      -9.525   7.659  68.130  1.00  0.00    -0.145 C  
BRANCH  25  26
HETATM   26  N   UNL     1      -9.039   6.292  68.671  1.00  0.00    -0.127 N  
BRANCH  26  27
HETATM   27  C   UNL     1      -9.909   5.139  68.088  1.00  0.00    -0.151 C  
HETATM   28  C   UNL     1     -10.730   5.503  66.858  1.00  0.00    -0.310 C  
ENDBRANCH  26  27
BRANCH  26  29
HETATM   29  C   UNL     1      -7.545   6.131  68.276  1.00  0.00    -0.098 C  
HETATM   30  C   UNL     1      -6.698   5.325  69.244  1.00  0.00    -0.052 C  
ENDBRANCH  26  29
BRANCH  26  31
HETATM   31  C   UNL     1      -9.185   6.242  70.237  1.00  0.00    -0.157 C  
BRANCH  31  32
HETATM   32  C   UNL     1     -10.259   7.083  70.906  1.00  0.00    -0.210 A  
HETATM   33  C   UNL     1     -11.576   6.592  71.034  1.00  0.00    -0.405 A  
HETATM   34  C   UNL     1     -12.611   7.394  71.526  1.00  0.00    -0.401 A  
HETATM   35  C   UNL     1     -12.359   8.712  71.882  1.00  0.00    -0.414 A  
HETATM   36  C   UNL     1     -11.066   9.217  71.784  1.00  0.00    -0.437 A  
HETATM   37  C   UNL     1     -10.024   8.412  71.311  1.00  0.00    -0.204 A  
HETATM   38 CL   UNL     1      -8.460   9.139  71.225  1.00  0.00    -0.189 Cl 
ENDBRANCH  31  32
ENDBRANCH  26  31
ENDBRANCH  25  26
ENDBRANCH  24  25
ENDBRANCH  21  24
ENDBRANCH  18  20
ENDBRANCH  15  16
ENDBRANCH  14  15
ENDBRANCH   3  14
ENDBRANCH   2   3
TORSDOF 15
ENDMDL
MODEL      268
REMARK 921   NORMALIZED FREE ENERGY PREDICTED BY IDOCK:   -3.82 KCAL/MOL
REMARK 922        TOTAL FREE ENERGY PREDICTED BY IDOCK:   -9.83 KCAL/MOL
REMARK 923 INTER-LIGAND FREE ENERGY PREDICTED BY IDOCK:   -9.20 KCAL/MOL
REMARK 924 INTRA-LIGAND FREE ENERGY PREDICTED BY IDOCK:   -0.62 KCAL/MOL
REMARK 927      BINDING AFFINITY PREDICTED BY RF-SCORE:    0.00 PKD
ROOT
HETATM    1  C   UNL     1      -9.709  13.087  64.853  1.00  0.00     0.078 C  
HETATM    2  C   UNL     1     -10.005  13.273  66.334  1.00  0.00    -0.288 C  
ENDROOT
BRANCH   2   3
HETATM    3  N   UNL     1     -11.514  13.377  66.714  1.00  0.00    -0.328 N  
BRANCH   3   4
HETATM    4  C   UNL     1     -12.362  13.693  65.448  1.00  0.00    -0.476 C  
HETATM    5  C   UNL     1     -12.685  12.516  64.563  1.00  0.00    -0.440 C  
ENDBRANCH   3   4
BRANCH   3   6
HETATM    6  C   UNL     1     -11.750  14.581  67.656  1.00  0.00    -0.382 C  
BRANCH   6   7
HETATM    7  C   UNL     1     -11.006  15.904  67.503  1.00  0.00    -0.280 A  
HETATM    8  C   UNL     1     -10.222  17.975  68.569  1.00  0.00    -0.392 A  
HETATM    9  C   UNL     1     -10.511  16.425  66.296  1.00  0.00    -0.298 A  
HETATM   10  C   UNL     1     -10.795  16.700  68.649  1.00  0.00    -0.344 A  
HETATM   11  C   UNL     1      -9.884  17.670  66.219  1.00  0.00    -0.297 A  
HETATM   12 CL   UNL     1     -11.275  16.138  70.214  1.00  0.00    -0.381 Cl 
HETATM   13  C   UNL     1      -9.762  18.458  67.349  1.00  0.00    -0.307 A  
ENDBRANCH   6   7
ENDBRANCH   3   6
BRANCH   3  14
HETATM   14  C   UNL     1     -11.884  11.997  67.394  1.00  0.00    -0.198 C  
BRANCH  14  15
HETATM   15  C   UNL     1     -11.896  11.960  68.962  1.00  0.00    -0.308 C  
BRANCH  15  16
HETATM   16  N   UNL     1     -11.729  10.670  69.616  1.00  0.00    -0.308 N  
HETATM   17  H   UNL     1     -11.127   9.959  69.202  1.00  0.00     0.000 HD 
HETATM   18  C   UNL     1     -12.395  10.413  70.811  1.00  0.00    -0.367 C  
HETATM   19  O   UNL     1     -12.971  11.269  71.461  1.00  0.00    -0.428 OA 
BRANCH  18  20
HETATM   20  C   UNL     1     -12.254   8.962  71.335  1.00  0.00    -0.318 C  
HETATM   21  N   UNL     1     -11.999   7.995  70.361  1.00  0.00    -0.468 N  
HETATM   22  O   UNL     1     -12.353   8.714  72.525  1.00  0.00    -0.390 OA 
HETATM   23  H   UNL     1     -12.217   8.169  69.380  1.00  0.00     0.000 HD 
BRANCH  21  24
HETATM   24  C   UNL     1     -11.412   6.727  70.781  1.00  0.00    -0.342 C  
BRANCH  24  25
HETATM   25  C   UNL     1      -9.863   6.719  70.891  1.00  0.00    -0.186 C  
BRANCH  25  26
HETATM   26  N   UNL     1      -9.121   6.402  69.570  1.00  0.00    -0.138 N  
BRANCH  26  27
HETATM   27  C   UNL     1      -8.804   7.716  68.798  1.00  0.00    -0.131 C  
HETATM   28  C   UNL     1      -8.482   8.921  69.671  1.00  0.00    -0.129 C  
ENDBRANCH  26  27
BRANCH  26  29
HETATM   29  C   UNL     1      -7.822   5.629  69.931  1.00  0.00    -0.087 C  
HETATM   30  C   UNL     1      -7.671   5.257  71.396  1.00  0.00    -0.106 C  
ENDBRANCH  26  29
BRANCH  26  31
HETATM   31  C   UNL     1     -10.026   5.516  68.636  1.00  0.00    -0.166 C  
BRANCH  31  32
HETATM   32  C   UNL     1      -9.447   4.245  68.036  1.00  0.00    -0.212 A  
HETATM   33  C   UNL     1      -9.364   3.065  68.804  1.00  0.00    -0.235 A  
HETATM   34  C   UNL     1      -8.718   1.922  68.321  1.00  0.00    -0.118 A  
HETATM   35  C   UNL     1      -8.123   1.938  67.067  1.00  0.00    -0.072 A  
HETATM   36  C   UNL     1      -8.206   3.082  66.280  1.00  0.00    -0.091 A  
HETATM   37  C   UNL     1      -8.868   4.221  66.751  1.00  0.00    -0.116 A  
HETATM   38 CL   UNL     1      -8.909   5.587  65.696  1.00  0.00    -0.153 Cl 
ENDBRANCH  31  32
ENDBRANCH  26  31
ENDBRANCH  25  26
ENDBRANCH  24  25
ENDBRANCH  21  24
ENDBRANCH  18  20
ENDBRANCH  15  16
ENDBRANCH  14  15
ENDBRANCH   3  14
ENDBRANCH   2   3
TORSDOF 15
ENDMDL
MODEL      269
REMARK 921   NORMALIZED FREE ENERGY PREDICTED BY IDOCK:   -3.80 KCAL/MOL
REMARK 922        TOTAL FREE ENERGY PREDICTED BY IDOCK:   -9.79 KCAL/MOL
REMARK 923 INTER-LIGAND FREE ENERGY PREDICTED BY IDOCK:   -8.64 KCAL/MOL
REMARK 924 INTRA-LIGAND FREE ENERGY PREDICTED BY IDOCK:   -1.15 KCAL/MOL
REMARK 927      BINDING AFFINITY PREDICTED BY RF-SCORE:    0.00 PKD
ROOT
HETATM    1  C   UNL     1     -12.031  14.306  65.665  1.00  0.00    -0.390 C  
HETATM    2  C   UNL     1     -11.832  14.574  67.150  1.00  0.00    -0.387 C  
ENDROOT
BRANCH   2   3
HETATM    3  N   UNL     1     -10.519  15.327  67.531  1.00  0.00    -0.260 N  
BRANCH   3   4
HETATM    4  C   UNL     1     -10.337  15.330  69.077  1.00  0.00    -0.242 C  
HETATM    5  C   UNL     1     -11.594  15.526  69.885  1.00  0.00    -0.348 C  
ENDBRANCH   3   4
BRANCH   3   6
HETATM    6  C   UNL     1     -10.625  16.821  67.144  1.00  0.00    -0.256 C  
BRANCH   6   7
HETATM    7  C   UNL     1      -9.519  17.829  67.444  1.00  0.00    -0.254 A  
HETATM    8  C   UNL     1      -8.527  20.022  66.952  1.00  0.00    -0.385 A  
HETATM    9  C   UNL     1      -8.426  17.607  68.298  1.00  0.00    -0.271 A  
HETATM   10  C   UNL     1      -9.564  19.091  66.815  1.00  0.00    -0.333 A  
HETATM   11  C   UNL     1      -7.419  18.556  68.486  1.00  0.00    -0.318 A  
HETATM   12 CL   UNL     1     -10.901  19.528  65.807  1.00  0.00    -0.503 Cl 
HETATM   13  C   UNL     1      -7.454  19.754  67.794  1.00  0.00    -0.322 A  
ENDBRANCH   6   7
ENDBRANCH   3   6
BRANCH   3  14
HETATM   14  C   UNL     1      -9.355  14.584  66.758  1.00  0.00    -0.261 C  
BRANCH  14  15
HETATM   15  C   UNL     1      -8.444  13.625  67.600  1.00  0.00    -0.183 C  
BRANCH  15  16
HETATM   16  N   UNL     1      -8.581  12.191  67.388  1.00  0.00    -0.166 N  
HETATM   17  H   UNL     1      -7.899  11.689  66.819  1.00  0.00     0.000 HD 
HETATM   18  C   UNL     1      -9.648  11.510  67.966  1.00  0.00    -0.180 C  
HETATM   19  O   UNL     1     -10.386  11.997  68.805  1.00  0.00    -0.218 OA 
BRANCH  18  20
HETATM   20  C   UNL     1      -9.769  10.021  67.552  1.00  0.00    -0.159 C  
HETATM   21  N   UNL     1      -8.580   9.290  67.588  1.00  0.00    -0.116 N  
HETATM   22  O   UNL     1     -10.845   9.545  67.233  1.00  0.00    -0.251 OA 
HETATM   23  H   UNL     1      -7.675   9.761  67.561  1.00  0.00     0.000 HD 
BRANCH  21  24
HETATM   24  C   UNL     1      -8.663   7.837  67.665  1.00  0.00    -0.126 C  
BRANCH  24  25
HETATM   25  C   UNL     1      -8.899   7.261  69.088  1.00  0.00    -0.136 C  
BRANCH  25  26
HETATM   26  N   UNL     1      -8.808   5.719  69.187  1.00  0.00    -0.112 N  
BRANCH  26  27
HETATM   27  C   UNL     1      -8.473   5.106  67.795  1.00  0.00    -0.104 C  
HETATM   28  C   UNL     1      -9.334   3.918  67.384  1.00  0.00    -0.225 C  
ENDBRANCH  26  27
BRANCH  26  29
HETATM   29  C   UNL     1      -7.714   5.375  70.236  1.00  0.00    -0.077 C  
HETATM   30  C   UNL     1      -7.236   6.540  71.084  1.00  0.00    -0.078 C  
ENDBRANCH  26  29
BRANCH  26  31
HETATM   31  C   UNL     1     -10.190   5.120  69.642  1.00  0.00    -0.267 C  
BRANCH  31  32
HETATM   32  C   UNL     1     -10.343   4.614  71.067  1.00  0.00    -0.143 A  
HETATM   33  C   UNL     1     -10.008   3.282  71.393  1.00  0.00    -0.120 A  
HETATM   34  C   UNL     1     -10.263   2.755  72.664  1.00  0.00    -0.236 A  
HETATM   35  C   UNL     1     -10.875   3.540  73.632  1.00  0.00    -0.324 A  
HETATM   36  C   UNL     1     -11.198   4.862  73.344  1.00  0.00    -0.415 A  
HETATM   37  C   UNL     1     -10.928   5.399  72.081  1.00  0.00    -0.201 A  
HETATM   38 CL   UNL     1     -11.373   7.048  71.828  1.00  0.00    -0.276 Cl 
ENDBRANCH  31  32
ENDBRANCH  26  31
ENDBRANCH  25  26
ENDBRANCH  24  25
ENDBRANCH  21  24
ENDBRANCH  18  20
ENDBRANCH  15  16
ENDBRANCH  14  15
ENDBRANCH   3  14
ENDBRANCH   2   3
TORSDOF 15
ENDMDL
MODEL      270
REMARK 921   NORMALIZED FREE ENERGY PREDICTED BY IDOCK:   -3.79 KCAL/MOL
REMARK 922        TOTAL FREE ENERGY PREDICTED BY IDOCK:   -9.77 KCAL/MOL
REMARK 923 INTER-LIGAND FREE ENERGY PREDICTED BY IDOCK:   -8.47 KCAL/MOL
REMARK 924 INTRA-LIGAND FREE ENERGY PREDICTED BY IDOCK:   -1.30 KCAL/MOL
REMARK 927      BINDING AFFINITY PREDICTED BY RF-SCORE:    0.00 PKD
ROOT
HETATM    1  C   UNL     1      -8.954   4.373  71.794  1.00  0.00    -0.157 C  
HETATM    2  C   UNL     1      -9.353   5.198  70.580  1.00  0.00    -0.158 C  
ENDROOT
BRANCH   2   3
HETATM    3  N   UNL     1      -9.295   6.746  70.765  1.00  0.00    -0.162 N  
BRANCH   3   4
HETATM    4  C   UNL     1      -9.523   7.112  72.261  1.00  0.00    -0.138 C  
HETATM    5  C   UNL     1      -8.730   8.285  72.777  1.00  0.00    -0.288 C  
ENDBRANCH   3   4
BRANCH   3   6
HETATM    6  C   UNL     1     -10.465   7.422  70.013  1.00  0.00    -0.226 C  
BRANCH   6   7
HETATM    7  C   UNL     1     -11.720   7.924  70.722  1.00  0.00    -0.230 A  
HETATM    8  C   UNL     1     -12.907   9.821  71.738  1.00  0.00    -0.530 A  
HETATM    9  C   UNL     1     -12.786   7.119  71.157  1.00  0.00    -0.363 A  
HETATM   10  C   UNL     1     -11.841   9.304  70.991  1.00  0.00    -0.307 A  
HETATM   11  C   UNL     1     -13.882   7.638  71.848  1.00  0.00    -0.361 A  
HETATM   12 CL   UNL     1     -10.642  10.420  70.433  1.00  0.00    -0.217 Cl 
HETATM   13  C   UNL     1     -13.932   8.984  72.163  1.00  0.00    -0.499 A  
ENDBRANCH   6   7
ENDBRANCH   3   6
BRANCH   3  14
HETATM   14  C   UNL     1      -7.882   7.194  70.212  1.00  0.00    -0.104 C  
BRANCH  14  15
HETATM   15  C   UNL     1      -7.669   7.110  68.661  1.00  0.00    -0.120 C  
BRANCH  15  16
HETATM   16  N   UNL     1      -8.098   8.239  67.849  1.00  0.00    -0.125 N  
HETATM   17  H   UNL     1      -9.011   8.227  67.395  1.00  0.00     0.000 HD 
HETATM   18  C   UNL     1      -7.255   9.337  67.697  1.00  0.00    -0.083 C  
HETATM   19  O   UNL     1      -6.243   9.508  68.356  1.00  0.00    -0.048 OA 
BRANCH  18  20
HETATM   20  C   UNL     1      -7.758  10.409  66.699  1.00  0.00    -0.117 C  
HETATM   21  N   UNL     1      -8.587  11.393  67.241  1.00  0.00    -0.142 N  
HETATM   22  O   UNL     1      -7.427  10.377  65.525  1.00  0.00    -0.146 OA 
HETATM   23  H   UNL     1      -9.081  11.234  68.119  1.00  0.00     0.000 HD 
BRANCH  21  24
HETATM   24  C   UNL     1      -8.730  12.653  66.521  1.00  0.00    -0.003 C  
BRANCH  24  25
HETATM   25  C   UNL     1      -9.947  13.521  66.941  1.00  0.00    -0.256 C  
BRANCH  25  26
HETATM   26  N   UNL     1      -9.582  14.887  67.572  1.00  0.00    -0.203 N  
BRANCH  26  27
HETATM   27  C   UNL     1      -8.715  14.679  68.849  1.00  0.00    -0.138 C  
HETATM   28  C   UNL     1      -7.605  15.700  69.054  1.00  0.00    -0.187 C  
ENDBRANCH  26  27
BRANCH  26  29
HETATM   29  C   UNL     1      -8.823  15.716  66.500  1.00  0.00    -0.310 C  
HETATM   30  C   UNL     1      -9.434  17.065  66.166  1.00  0.00    -0.253 C  
ENDBRANCH  26  29
BRANCH  26  31
HETATM   31  C   UNL     1     -10.887  15.650  68.011  1.00  0.00    -0.308 C  
BRANCH  31  32
HETATM   32  C   UNL     1     -11.572  15.257  69.309  1.00  0.00    -0.350 A  
HETATM   33  C   UNL     1     -11.489  16.091  70.444  1.00  0.00    -0.392 A  
HETATM   34  C   UNL     1     -11.997  15.691  71.684  1.00  0.00    -0.503 A  
HETATM   35  C   UNL     1     -12.583  14.440  71.825  1.00  0.00    -0.427 A  
HETATM   36  C   UNL     1     -12.695  13.604  70.718  1.00  0.00    -0.338 A  
HETATM   37  C   UNL     1     -12.205  14.008  69.471  1.00  0.00    -0.308 A  
HETATM   38 CL   UNL     1     -12.392  12.893  68.166  1.00  0.00     0.027 Cl 
ENDBRANCH  31  32
ENDBRANCH  26  31
ENDBRANCH  25  26
ENDBRANCH  24  25
ENDBRANCH  21  24
ENDBRANCH  18  20
ENDBRANCH  15  16
ENDBRANCH  14  15
ENDBRANCH   3  14
ENDBRANCH   2   3
TORSDOF 15
ENDMDL
MODEL      271
REMARK 921   NORMALIZED FREE ENERGY PREDICTED BY IDOCK:   -3.78 KCAL/MOL
REMARK 922        TOTAL FREE ENERGY PREDICTED BY IDOCK:   -9.75 KCAL/MOL
REMARK 923 INTER-LIGAND FREE ENERGY PREDICTED BY IDOCK:   -8.48 KCAL/MOL
REMARK 924 INTRA-LIGAND FREE ENERGY PREDICTED BY IDOCK:   -1.27 KCAL/MOL
REMARK 927      BINDING AFFINITY PREDICTED BY RF-SCORE:    0.00 PKD
ROOT
HETATM    1  C   UNL     1     -10.770  11.946  64.513  1.00  0.00    -0.361 C  
HETATM    2  C   UNL     1     -10.405  11.328  65.855  1.00  0.00    -0.253 C  
ENDROOT
BRANCH   2   3
HETATM    3  N   UNL     1     -10.259  12.328  67.043  1.00  0.00    -0.215 N  
BRANCH   3   4
HETATM    4  C   UNL     1     -10.579  11.610  68.386  1.00  0.00    -0.211 C  
HETATM    5  C   UNL     1     -12.036  11.323  68.646  1.00  0.00    -0.314 C  
ENDBRANCH   3   4
BRANCH   3   6
HETATM    6  C   UNL     1     -11.318  13.450  66.935  1.00  0.00    -0.323 C  
BRANCH   6   7
HETATM    7  C   UNL     1     -10.955  14.932  66.975  1.00  0.00    -0.327 A  
HETATM    8  C   UNL     1     -10.782  16.987  68.311  1.00  0.00    -0.372 A  
HETATM    9  C   UNL     1     -10.594  15.712  65.864  1.00  0.00    -0.354 A  
HETATM   10  C   UNL     1     -10.991  15.605  68.214  1.00  0.00    -0.315 A  
HETATM   11  C   UNL     1     -10.325  17.078  65.963  1.00  0.00    -0.324 A  
HETATM   12 CL   UNL     1     -11.334  14.746  69.677  1.00  0.00    -0.296 Cl 
HETATM   13  C   UNL     1     -10.444  17.722  67.182  1.00  0.00    -0.338 A  
ENDBRANCH   6   7
ENDBRANCH   3   6
BRANCH   3  14
HETATM   14  C   UNL     1      -8.780  12.885  66.959  1.00  0.00    -0.195 C  
BRANCH  14  15
HETATM   15  C   UNL     1      -7.642  11.960  67.515  1.00  0.00    -0.140 C  
BRANCH  15  16
HETATM   16  N   UNL     1      -7.892  11.239  68.755  1.00  0.00    -0.141 N  
HETATM   17  H   UNL     1      -8.777  11.357  69.248  1.00  0.00     0.000 HD 
HETATM   18  C   UNL     1      -6.916  10.386  69.263  1.00  0.00    -0.080 C  
HETATM   19  O   UNL     1      -5.924  10.048  68.641  1.00  0.00    -0.042 OA 
BRANCH  18  20
HETATM   20  C   UNL     1      -7.237   9.789  70.656  1.00  0.00    -0.069 C  
HETATM   21  N   UNL     1      -8.589   9.546  70.908  1.00  0.00    -0.152 N  
HETATM   22  O   UNL     1      -6.347   9.546  71.454  1.00  0.00    -0.202 OA 
HETATM   23  H   UNL     1      -9.315  10.021  70.371  1.00  0.00     0.000 HD 
BRANCH  21  24
HETATM   24  C   UNL     1      -8.938   8.596  71.957  1.00  0.00    -0.216 C  
BRANCH  24  25
HETATM   25  C   UNL     1      -9.443   7.214  71.458  1.00  0.00    -0.157 C  
BRANCH  25  26
HETATM   26  N   UNL     1     -10.979   7.103  71.299  1.00  0.00    -0.238 N  
BRANCH  26  27
HETATM   27  C   UNL     1     -11.605   6.419  72.549  1.00  0.00    -0.222 C  
HETATM   28  C   UNL     1     -11.225   4.958  72.749  1.00  0.00    -0.260 C  
ENDBRANCH  26  27
BRANCH  26  29
HETATM   29  C   UNL     1     -11.538   8.539  71.098  1.00  0.00    -0.281 C  
HETATM   30  C   UNL     1     -12.808   8.857  71.867  1.00  0.00    -0.437 C  
ENDBRANCH  26  29
BRANCH  26  31
HETATM   31  C   UNL     1     -11.334   6.213  70.050  1.00  0.00    -0.373 C  
BRANCH  31  32
HETATM   32  C   UNL     1     -10.219   5.766  69.120  1.00  0.00    -0.289 A  
HETATM   33  C   UNL     1      -9.591   4.516  69.305  1.00  0.00    -0.258 A  
HETATM   34  C   UNL     1      -8.477   4.138  68.547  1.00  0.00    -0.105 A  
HETATM   35  C   UNL     1      -7.953   5.008  67.601  1.00  0.00    -0.095 A  
HETATM   36  C   UNL     1      -8.563   6.239  67.385  1.00  0.00    -0.107 A  
HETATM   37  C   UNL     1      -9.689   6.613  68.127  1.00  0.00    -0.130 A  
HETATM   38 CL   UNL     1     -10.365   8.164  67.782  1.00  0.00    -0.286 Cl 
ENDBRANCH  31  32
ENDBRANCH  26  31
ENDBRANCH  25  26
ENDBRANCH  24  25
ENDBRANCH  21  24
ENDBRANCH  18  20
ENDBRANCH  15  16
ENDBRANCH  14  15
ENDBRANCH   3  14
ENDBRANCH   2   3
TORSDOF 15
ENDMDL
MODEL      272
REMARK 921   NORMALIZED FREE ENERGY PREDICTED BY IDOCK:   -3.77 KCAL/MOL
REMARK 922        TOTAL FREE ENERGY PREDICTED BY IDOCK:   -9.74 KCAL/MOL
REMARK 923 INTER-LIGAND FREE ENERGY PREDICTED BY IDOCK:   -9.03 KCAL/MOL
REMARK 924 INTRA-LIGAND FREE ENERGY PREDICTED BY IDOCK:   -0.71 KCAL/MOL
REMARK 927      BINDING AFFINITY PREDICTED BY RF-SCORE:    0.00 PKD
ROOT
HETATM    1  C   UNL     1     -10.692  16.421  65.827  1.00  0.00    -0.245 C  
HETATM    2  C   UNL     1      -9.273  16.952  65.963  1.00  0.00    -0.170 C  
ENDROOT
BRANCH   2   3
HETATM    3  N   UNL     1      -8.935  17.639  67.322  1.00  0.00    -0.237 N  
BRANCH   3   4
HETATM    4  C   UNL     1      -9.043  19.185  67.179  1.00  0.00    -0.287 C  
HETATM    5  C   UNL     1     -10.338  19.800  67.648  1.00  0.00    -0.579 C  
ENDBRANCH   3   4
BRANCH   3   6
HETATM    6  C   UNL     1      -7.459  17.382  67.703  1.00  0.00    -0.183 C  
BRANCH   6   7
HETATM    7  C   UNL     1      -6.756  18.133  68.830  1.00  0.00    -0.256 A  
HETATM    8  C   UNL     1      -5.330  18.010  70.828  1.00  0.00    -0.250 A  
HETATM    9  C   UNL     1      -6.882  19.507  69.095  1.00  0.00    -0.381 A  
HETATM   10  C   UNL     1      -5.916  17.412  69.705  1.00  0.00    -0.245 A  
HETATM   11  C   UNL     1      -6.251  20.122  70.178  1.00  0.00    -0.388 A  
HETATM   12 CL   UNL     1      -5.603  15.730  69.442  1.00  0.00    -0.112 Cl 
HETATM   13  C   UNL     1      -5.496  19.370  71.060  1.00  0.00    -0.266 A  
ENDBRANCH   6   7
ENDBRANCH   3   6
BRANCH   3  14
HETATM   14  C   UNL     1      -9.946  17.030  68.376  1.00  0.00    -0.289 C  
BRANCH  14  15
HETATM   15  C   UNL     1      -9.369  15.976  69.384  1.00  0.00    -0.218 C  
BRANCH  15  16
HETATM   16  N   UNL     1      -9.946  14.640  69.381  1.00  0.00    -0.416 N  
HETATM   17  H   UNL     1      -9.435  13.861  68.964  1.00  0.00     0.000 HD 
HETATM   18  C   UNL     1     -11.199  14.430  69.949  1.00  0.00    -0.177 C  
HETATM   19  O   UNL     1     -11.780  15.259  70.629  1.00  0.00    -0.279 OA 
BRANCH  18  20
HETATM   20  C   UNL     1     -11.769  13.002  69.757  1.00  0.00    -0.276 C  
HETATM   21  N   UNL     1     -11.419  12.372  68.562  1.00  0.00    -0.280 N  
HETATM   22  O   UNL     1     -12.464  12.484  70.616  1.00  0.00    -0.319 OA 
HETATM   23  H   UNL     1     -11.106  12.914  67.756  1.00  0.00     0.000 HD 
BRANCH  21  24
HETATM   24  C   UNL     1     -11.512  10.918  68.492  1.00  0.00    -0.310 C  
BRANCH  24  25
HETATM   25  C   UNL     1     -10.911  10.277  67.211  1.00  0.00    -0.250 C  
BRANCH  25  26
HETATM   26  N   UNL     1      -9.965   9.079  67.468  1.00  0.00    -0.193 N  
BRANCH  26  27
HETATM   27  C   UNL     1      -8.926   8.952  66.316  1.00  0.00    -0.170 C  
HETATM   28  C   UNL     1      -9.330   9.605  65.001  1.00  0.00    -0.319 C  
ENDBRANCH  26  27
BRANCH  26  29
HETATM   29  C   UNL     1      -9.269   9.311  68.837  1.00  0.00    -0.143 C  
HETATM   30  C   UNL     1      -8.118  10.301  68.823  1.00  0.00    -0.120 C  
ENDBRANCH  26  29
BRANCH  26  31
HETATM   31  C   UNL     1     -10.786   7.736  67.509  1.00  0.00    -0.112 C  
BRANCH  31  32
HETATM   32  C   UNL     1     -10.520   6.741  68.625  1.00  0.00    -0.232 A  
HETATM   33  C   UNL     1     -11.323   6.734  69.785  1.00  0.00    -0.350 A  
HETATM   34  C   UNL     1     -11.018   5.919  70.880  1.00  0.00    -0.335 A  
HETATM   35  C   UNL     1      -9.893   5.106  70.850  1.00  0.00    -0.266 A  
HETATM   36  C   UNL     1      -9.094   5.079  69.712  1.00  0.00    -0.155 A  
HETATM   37  C   UNL     1      -9.406   5.878  68.607  1.00  0.00    -0.117 A  
HETATM   38 CL   UNL     1      -8.345   5.771  67.248  1.00  0.00    -0.105 Cl 
ENDBRANCH  31  32
ENDBRANCH  26  31
ENDBRANCH  25  26
ENDBRANCH  24  25
ENDBRANCH  21  24
ENDBRANCH  18  20
ENDBRANCH  15  16
ENDBRANCH  14  15
ENDBRANCH   3  14
ENDBRANCH   2   3
TORSDOF 15
ENDMDL
MODEL      273
REMARK 921   NORMALIZED FREE ENERGY PREDICTED BY IDOCK:   -3.75 KCAL/MOL
REMARK 922        TOTAL FREE ENERGY PREDICTED BY IDOCK:   -9.71 KCAL/MOL
REMARK 923 INTER-LIGAND FREE ENERGY PREDICTED BY IDOCK:   -8.00 KCAL/MOL
REMARK 924 INTRA-LIGAND FREE ENERGY PREDICTED BY IDOCK:   -1.71 KCAL/MOL
REMARK 927      BINDING AFFINITY PREDICTED BY RF-SCORE:    0.00 PKD
ROOT
HETATM    1  C   UNL     1      -9.718   3.643  70.413  1.00  0.00    -0.201 C  
HETATM    2  C   UNL     1      -9.269   4.851  69.604  1.00  0.00    -0.118 C  
ENDROOT
BRANCH   2   3
HETATM    3  N   UNL     1      -8.123   5.700  70.237  1.00  0.00    -0.102 N  
BRANCH   3   4
HETATM    4  C   UNL     1      -7.073   4.765  70.903  1.00  0.00    -0.041 C  
HETATM    5  C   UNL     1      -5.858   4.445  70.070  1.00  0.00    -0.017 C  
ENDBRANCH   3   4
BRANCH   3   6
HETATM    6  C   UNL     1      -8.672   6.564  71.396  1.00  0.00    -0.130 C  
BRANCH   6   7
HETATM    7  C   UNL     1      -9.947   7.393  71.274  1.00  0.00    -0.194 A  
HETATM    8  C   UNL     1     -10.952   9.615  70.967  1.00  0.00    -0.431 A  
HETATM    9  C   UNL     1     -11.254   6.906  71.443  1.00  0.00    -0.296 A  
HETATM   10  C   UNL     1      -9.836   8.769  70.982  1.00  0.00    -0.230 A  
HETATM   11  C   UNL     1     -12.377   7.733  71.369  1.00  0.00    -0.346 A  
HETATM   12 CL   UNL     1      -8.291   9.482  70.663  1.00  0.00    -0.216 Cl 
HETATM   13  C   UNL     1     -12.226   9.092  71.157  1.00  0.00    -0.331 A  
ENDBRANCH   6   7
ENDBRANCH   3   6
BRANCH   3  14
HETATM   14  C   UNL     1      -7.534   6.577  69.058  1.00  0.00    -0.095 C  
BRANCH  14  15
HETATM   15  C   UNL     1      -8.443   6.772  67.796  1.00  0.00    -0.122 C  
BRANCH  15  16
HETATM   16  N   UNL     1      -8.867   8.124  67.462  1.00  0.00    -0.134 N  
HETATM   17  H   UNL     1      -8.198   8.893  67.489  1.00  0.00     0.000 HD 
HETATM   18  C   UNL     1     -10.191   8.361  67.104  1.00  0.00    -0.292 C  
HETATM   19  O   UNL     1     -10.995   7.476  66.864  1.00  0.00    -0.292 OA 
BRANCH  18  20
HETATM   20  C   UNL     1     -10.554   9.855  66.911  1.00  0.00    -0.178 C  
HETATM   21  N   UNL     1      -9.797  10.539  65.959  1.00  0.00    -0.211 N  
HETATM   22  O   UNL     1     -11.455  10.368  67.555  1.00  0.00    -0.386 OA 
HETATM   23  H   UNL     1      -8.884  10.189  65.667  1.00  0.00     0.000 HD 
BRANCH  21  24
HETATM   24  C   UNL     1     -10.341  11.767  65.393  1.00  0.00    -0.268 C  
BRANCH  24  25
HETATM   25  C   UNL     1      -9.441  13.023  65.547  1.00  0.00     0.163 C  
BRANCH  25  26
HETATM   26  N   UNL     1      -9.911  14.029  66.626  1.00  0.00    -0.275 N  
BRANCH  26  27
HETATM   27  C   UNL     1     -11.311  13.623  67.172  1.00  0.00    -0.319 C  
HETATM   28  C   UNL     1     -12.497  14.136  66.366  1.00  0.00    -0.353 C  
ENDBRANCH  26  27
BRANCH  26  29
HETATM   29  C   UNL     1      -8.844  14.044  67.755  1.00  0.00    -0.187 C  
HETATM   30  C   UNL     1      -8.458  12.683  68.305  1.00  0.00    -0.163 C  
ENDBRANCH  26  29
BRANCH  26  31
HETATM   31  C   UNL     1     -10.050  15.469  66.005  1.00  0.00    -0.332 C  
BRANCH  31  32
HETATM   32  C   UNL     1      -9.293  16.624  66.640  1.00  0.00    -0.272 A  
HETATM   33  C   UNL     1      -8.059  17.050  66.107  1.00  0.00    -0.292 A  
HETATM   34  C   UNL     1      -7.281  18.020  66.749  1.00  0.00    -0.238 A  
HETATM   35  C   UNL     1      -7.710  18.573  67.948  1.00  0.00    -0.265 A  
HETATM   36  C   UNL     1      -8.933  18.185  68.487  1.00  0.00    -0.309 A  
HETATM   37  C   UNL     1      -9.722  17.229  67.838  1.00  0.00    -0.273 A  
HETATM   38 CL   UNL     1     -11.219  16.817  68.595  1.00  0.00    -0.250 Cl 
ENDBRANCH  31  32
ENDBRANCH  26  31
ENDBRANCH  25  26
ENDBRANCH  24  25
ENDBRANCH  21  24
ENDBRANCH  18  20
ENDBRANCH  15  16
ENDBRANCH  14  15
ENDBRANCH   3  14
ENDBRANCH   2   3
TORSDOF 15
ENDMDL
MODEL      274
REMARK 921   NORMALIZED FREE ENERGY PREDICTED BY IDOCK:   -3.75 KCAL/MOL
REMARK 922        TOTAL FREE ENERGY PREDICTED BY IDOCK:   -9.69 KCAL/MOL
REMARK 923 INTER-LIGAND FREE ENERGY PREDICTED BY IDOCK:   -8.61 KCAL/MOL
REMARK 924 INTRA-LIGAND FREE ENERGY PREDICTED BY IDOCK:   -1.09 KCAL/MOL
REMARK 927      BINDING AFFINITY PREDICTED BY RF-SCORE:    0.00 PKD
ROOT
HETATM    1  C   UNL     1      -8.521  14.909  69.514  1.00  0.00    -0.004 C  
HETATM    2  C   UNL     1      -9.560  16.020  69.492  1.00  0.00    -0.200 C  
ENDROOT
BRANCH   2   3
HETATM    3  N   UNL     1     -10.950  15.634  68.897  1.00  0.00    -0.249 N  
BRANCH   3   4
HETATM    4  C   UNL     1     -11.481  16.786  67.995  1.00  0.00     0.166 C  
HETATM    5  C   UNL     1     -10.475  17.845  67.621  1.00  0.00    -0.406 C  
ENDBRANCH   3   4
BRANCH   3   6
HETATM    6  C   UNL     1     -12.000  15.502  70.025  1.00  0.00    -0.364 C  
BRANCH   6   7
HETATM    7  C   UNL     1     -12.432  14.154  70.594  1.00  0.00    -0.432 A  
HETATM    8  C   UNL     1     -13.701  12.942  72.315  1.00  0.00    -0.553 A  
HETATM    9  C   UNL     1     -11.981  12.900  70.149  1.00  0.00    -0.373 A  
HETATM   10  C   UNL     1     -13.347  14.133  71.668  1.00  0.00    -0.364 A  
HETATM   11  C   UNL     1     -12.377  11.705  70.751  1.00  0.00    -0.454 A  
HETATM   12 CL   UNL     1     -14.050  15.600  72.257  1.00  0.00    -0.604 Cl 
HETATM   13  C   UNL     1     -13.216  11.725  71.851  1.00  0.00    -0.468 A  
ENDBRANCH   6   7
ENDBRANCH   3   6
BRANCH   3  14
HETATM   14  C   UNL     1     -10.724  14.274  68.120  1.00  0.00    -0.244 C  
BRANCH  14  15
HETATM   15  C   UNL     1     -11.668  13.989  66.901  1.00  0.00    -0.410 C  
BRANCH  15  16
HETATM   16  N   UNL     1     -11.376  12.833  66.066  1.00  0.00    -0.306 N  
HETATM   17  H   UNL     1     -11.750  11.916  66.310  1.00  0.00     0.000 HD 
HETATM   18  C   UNL     1     -10.582  12.986  64.933  1.00  0.00    -0.337 C  
HETATM   19  O   UNL     1     -10.262  14.070  64.474  1.00  0.00    -0.381 OA 
BRANCH  18  20
HETATM   20  C   UNL     1     -10.223  11.665  64.208  1.00  0.00    -0.311 C  
HETATM   21  N   UNL     1      -8.941  11.173  64.457  1.00  0.00    -0.378 N  
HETATM   22  O   UNL     1     -11.031  11.109  63.483  1.00  0.00    -0.336 OA 
HETATM   23  H   UNL     1      -8.204  11.786  64.806  1.00  0.00     0.000 HD 
BRANCH  21  24
HETATM   24  C   UNL     1      -8.679   9.761  64.207  1.00  0.00    -0.206 C  
BRANCH  24  25
HETATM   25  C   UNL     1      -7.576   9.124  65.094  1.00  0.00    -0.098 C  
BRANCH  25  26
HETATM   26  N   UNL     1      -8.080   8.540  66.437  1.00  0.00    -0.101 N  
BRANCH  26  27
HETATM   27  C   UNL     1      -9.499   7.925  66.261  1.00  0.00    -0.151 C  
HETATM   28  C   UNL     1     -10.613   8.633  67.020  1.00  0.00    -0.293 C  
ENDBRANCH  26  27
BRANCH  26  29
HETATM   29  C   UNL     1      -7.053   7.472  66.904  1.00  0.00    -0.084 C  
HETATM   30  C   UNL     1      -7.155   6.124  66.214  1.00  0.00    -0.068 C  
ENDBRANCH  26  29
BRANCH  26  31
HETATM   31  C   UNL     1      -8.194   9.679  67.517  1.00  0.00    -0.114 C  
BRANCH  31  32
HETATM   32  C   UNL     1      -7.405   9.552  68.810  1.00  0.00    -0.074 A  
HETATM   33  C   UNL     1      -7.974   8.922  69.936  1.00  0.00    -0.108 A  
HETATM   34  C   UNL     1      -7.322   8.909  71.174  1.00  0.00    -0.119 A  
HETATM   35  C   UNL     1      -6.096   9.543  71.320  1.00  0.00    -0.057 A  
HETATM   36  C   UNL     1      -5.503  10.156  70.221  1.00  0.00    -0.050 A  
HETATM   37  C   UNL     1      -6.142  10.155  68.977  1.00  0.00    -0.040 A  
HETATM   38 CL   UNL     1      -5.321  10.949  67.682  1.00  0.00    -0.040 Cl 
ENDBRANCH  31  32
ENDBRANCH  26  31
ENDBRANCH  25  26
ENDBRANCH  24  25
ENDBRANCH  21  24
ENDBRANCH  18  20
ENDBRANCH  15  16
ENDBRANCH  14  15
ENDBRANCH   3  14
ENDBRANCH   2   3
TORSDOF 15
ENDMDL
MODEL      275
REMARK 921   NORMALIZED FREE ENERGY PREDICTED BY IDOCK:   -3.75 KCAL/MOL
REMARK 922        TOTAL FREE ENERGY PREDICTED BY IDOCK:   -9.69 KCAL/MOL
REMARK 923 INTER-LIGAND FREE ENERGY PREDICTED BY IDOCK:   -8.33 KCAL/MOL
REMARK 924 INTRA-LIGAND FREE ENERGY PREDICTED BY IDOCK:   -1.36 KCAL/MOL
REMARK 927      BINDING AFFINITY PREDICTED BY RF-SCORE:    0.00 PKD
ROOT
HETATM    1  C   UNL     1      -8.152   4.341  68.148  1.00  0.00    -0.089 C  
HETATM    2  C   UNL     1      -8.096   5.301  66.969  1.00  0.00    -0.104 C  
ENDROOT
BRANCH   2   3
HETATM    3  N   UNL     1      -8.188   6.817  67.327  1.00  0.00    -0.120 N  
BRANCH   3   4
HETATM    4  C   UNL     1      -6.866   7.539  66.931  1.00  0.00    -0.070 C  
HETATM    5  C   UNL     1      -6.042   8.071  68.076  1.00  0.00    -0.046 C  
ENDBRANCH   3   4
BRANCH   3   6
HETATM    6  C   UNL     1      -8.293   7.003  68.859  1.00  0.00    -0.125 C  
BRANCH   6   7
HETATM    7  C   UNL     1      -9.588   7.419  69.551  1.00  0.00    -0.155 A  
HETATM    8  C   UNL     1     -10.890   9.221  70.598  1.00  0.00    -0.339 A  
HETATM    9  C   UNL     1     -10.625   6.550  69.927  1.00  0.00    -0.282 A  
HETATM   10  C   UNL     1      -9.782   8.781  69.864  1.00  0.00    -0.178 A  
HETATM   11  C   UNL     1     -11.762   6.991  70.606  1.00  0.00    -0.384 A  
HETATM   12 CL   UNL     1      -8.624   9.972  69.378  1.00  0.00    -0.166 Cl 
HETATM   13  C   UNL     1     -11.884   8.322  70.966  1.00  0.00    -0.276 A  
ENDBRANCH   6   7
ENDBRANCH   3   6
BRANCH   3  14
HETATM   14  C   UNL     1      -9.461   7.364  66.563  1.00  0.00    -0.172 C  
BRANCH  14  15
HETATM   15  C   UNL     1      -9.217   8.469  65.478  1.00  0.00    -0.041 C  
BRANCH  15  16
HETATM   16  N   UNL     1     -10.003   9.692  65.559  1.00  0.00    -0.362 N  
HETATM   17  H   UNL     1     -10.458   9.952  66.434  1.00  0.00     0.000 HD 
HETATM   18  C   UNL     1     -10.128  10.504  64.436  1.00  0.00    -0.325 C  
HETATM   19  O   UNL     1      -9.464  10.364  63.423  1.00  0.00    -0.273 OA 
BRANCH  18  20
HETATM   20  C   UNL     1     -11.102  11.697  64.603  1.00  0.00    -0.278 C  
HETATM   21  N   UNL     1     -10.768  12.610  65.605  1.00  0.00    -0.264 N  
HETATM   22  O   UNL     1     -12.082  11.811  63.884  1.00  0.00    -0.377 OA 
HETATM   23  H   UNL     1     -10.143  12.345  66.366  1.00  0.00     0.000 HD 
BRANCH  21  24
HETATM   24  C   UNL     1     -11.335  13.951  65.537  1.00  0.00    -0.308 C  
BRANCH  24  25
HETATM   25  C   UNL     1     -10.309  15.093  65.304  1.00  0.00    -0.396 C  
BRANCH  25  26
HETATM   26  N   UNL     1      -9.765  15.750  66.596  1.00  0.00    -0.238 N  
BRANCH  26  27
HETATM   27  C   UNL     1     -10.809  16.750  67.176  1.00  0.00    -0.102 C  
HETATM   28  C   UNL     1     -11.486  16.306  68.466  1.00  0.00    -0.272 C  
ENDBRANCH  26  27
BRANCH  26  29
HETATM   29  C   UNL     1      -9.446  14.614  67.606  1.00  0.00    -0.205 C  
HETATM   30  C   UNL     1      -8.120  13.905  67.392  1.00  0.00    -0.190 C  
ENDBRANCH  26  29
BRANCH  26  31
HETATM   31  C   UNL     1      -8.458  16.568  66.283  1.00  0.00    -0.328 C  
BRANCH  31  32
HETATM   32  C   UNL     1      -8.212  17.877  67.014  1.00  0.00    -0.241 A  
HETATM   33  C   UNL     1      -8.700  19.093  66.489  1.00  0.00    -0.348 A  
HETATM   34  C   UNL     1      -8.376  20.323  67.071  1.00  0.00    -0.373 A  
HETATM   35  C   UNL     1      -7.541  20.369  68.180  1.00  0.00    -0.125 A  
HETATM   36  C   UNL     1      -7.062  19.185  68.730  1.00  0.00    -0.366 A  
HETATM   37  C   UNL     1      -7.399  17.951  68.163  1.00  0.00    -0.241 A  
HETATM   38 CL   UNL     1      -6.746  16.544  68.922  1.00  0.00    -0.167 Cl 
ENDBRANCH  31  32
ENDBRANCH  26  31
ENDBRANCH  25  26
ENDBRANCH  24  25
ENDBRANCH  21  24
ENDBRANCH  18  20
ENDBRANCH  15  16
ENDBRANCH  14  15
ENDBRANCH   3  14
ENDBRANCH   2   3
TORSDOF 15
ENDMDL
MODEL      276
REMARK 921   NORMALIZED FREE ENERGY PREDICTED BY IDOCK:   -3.74 KCAL/MOL
REMARK 922        TOTAL FREE ENERGY PREDICTED BY IDOCK:   -9.69 KCAL/MOL
REMARK 923 INTER-LIGAND FREE ENERGY PREDICTED BY IDOCK:   -8.37 KCAL/MOL
REMARK 924 INTRA-LIGAND FREE ENERGY PREDICTED BY IDOCK:   -1.31 KCAL/MOL
REMARK 927      BINDING AFFINITY PREDICTED BY RF-SCORE:    0.00 PKD
ROOT
HETATM    1  C   UNL     1     -12.322  13.343  66.296  1.00  0.00    -0.410 C  
HETATM    2  C   UNL     1     -11.453  14.566  66.043  1.00  0.00    -0.348 C  
ENDROOT
BRANCH   2   3
HETATM    3  N   UNL     1     -10.672  15.108  67.280  1.00  0.00    -0.298 N  
BRANCH   3   4
HETATM    4  C   UNL     1     -11.574  16.080  68.095  1.00  0.00    -0.183 C  
HETATM    5  C   UNL     1     -11.839  15.684  69.526  1.00  0.00    -0.387 C  
ENDBRANCH   3   4
BRANCH   3   6
HETATM    6  C   UNL     1      -9.474  15.974  66.823  1.00  0.00    -0.231 C  
BRANCH   6   7
HETATM    7  C   UNL     1      -9.323  17.442  67.212  1.00  0.00    -0.238 A  
HETATM    8  C   UNL     1      -9.798  19.790  66.663  1.00  0.00    -0.538 A  
HETATM    9  C   UNL     1      -8.560  17.924  68.288  1.00  0.00    -0.277 A  
HETATM   10  C   UNL     1      -9.981  18.420  66.437  1.00  0.00    -0.386 A  
HETATM   11  C   UNL     1      -8.422  19.287  68.556  1.00  0.00    -0.401 A  
HETATM   12 CL   UNL     1     -11.025  17.959  65.136  1.00  0.00     0.222 Cl 
HETATM   13  C   UNL     1      -9.019  20.222  67.730  1.00  0.00    -0.339 A  
ENDBRANCH   6   7
ENDBRANCH   3   6
BRANCH   3  14
HETATM   14  C   UNL     1     -10.217  13.832  68.097  1.00  0.00    -0.253 C  
BRANCH  14  15
HETATM   15  C   UNL     1      -8.799  13.247  67.768  1.00  0.00    -0.197 C  
BRANCH  15  16
HETATM   16  N   UNL     1      -8.399  12.013  68.428  1.00  0.00    -0.192 N  
HETATM   17  H   UNL     1      -8.924  11.154  68.271  1.00  0.00     0.000 HD 
HETATM   18  C   UNL     1      -7.294  12.013  69.275  1.00  0.00     0.127 C  
HETATM   19  O   UNL     1      -6.509  12.943  69.361  1.00  0.00    -0.107 OA 
BRANCH  18  20
HETATM   20  C   UNL     1      -7.053  10.682  70.028  1.00  0.00    -0.087 C  
HETATM   21  N   UNL     1      -8.172   9.859  70.166  1.00  0.00    -0.275 N  
HETATM   22  O   UNL     1      -5.946  10.393  70.452  1.00  0.00    -0.079 OA 
HETATM   23  H   UNL     1      -9.115  10.239  70.080  1.00  0.00     0.000 HD 
BRANCH  21  24
HETATM   24  C   UNL     1      -7.961   8.441  70.435  1.00  0.00    -0.099 C  
BRANCH  24  25
HETATM   25  C   UNL     1      -9.146   7.512  70.056  1.00  0.00    -0.148 C  
BRANCH  25  26
HETATM   26  N   UNL     1      -9.956   6.970  71.259  1.00  0.00    -0.190 N  
BRANCH  26  27
HETATM   27  C   UNL     1     -10.341   8.133  72.220  1.00  0.00    -0.292 C  
HETATM   28  C   UNL     1     -11.510   8.994  71.763  1.00  0.00    -0.442 C  
ENDBRANCH  26  27
BRANCH  26  29
HETATM   29  C   UNL     1     -11.218   6.258  70.697  1.00  0.00    -0.337 C  
HETATM   30  C   UNL     1     -11.282   6.142  69.184  1.00  0.00    -0.409 C  
ENDBRANCH  26  29
BRANCH  26  31
HETATM   31  C   UNL     1      -9.089   5.947  72.083  1.00  0.00    -0.143 C  
BRANCH  31  32
HETATM   32  C   UNL     1      -9.739   4.674  72.597  1.00  0.00    -0.184 A  
HETATM   33  C   UNL     1     -10.286   4.623  73.897  1.00  0.00    -0.279 A  
HETATM   34  C   UNL     1     -10.771   3.429  74.440  1.00  0.00    -0.155 A  
HETATM   35  C   UNL     1     -10.702   2.253  73.706  1.00  0.00    -0.251 A  
HETATM   36  C   UNL     1     -10.185   2.277  72.414  1.00  0.00    -0.222 A  
HETATM   37  C   UNL     1      -9.717   3.473  71.860  1.00  0.00    -0.164 A  
HETATM   38 CL   UNL     1      -9.091   3.390  70.252  1.00  0.00    -0.184 Cl 
ENDBRANCH  31  32
ENDBRANCH  26  31
ENDBRANCH  25  26
ENDBRANCH  24  25
ENDBRANCH  21  24
ENDBRANCH  18  20
ENDBRANCH  15  16
ENDBRANCH  14  15
ENDBRANCH   3  14
ENDBRANCH   2   3
TORSDOF 15
ENDMDL
MODEL      277
REMARK 921   NORMALIZED FREE ENERGY PREDICTED BY IDOCK:   -3.72 KCAL/MOL
REMARK 922        TOTAL FREE ENERGY PREDICTED BY IDOCK:   -9.65 KCAL/MOL
REMARK 923 INTER-LIGAND FREE ENERGY PREDICTED BY IDOCK:   -8.00 KCAL/MOL
REMARK 924 INTRA-LIGAND FREE ENERGY PREDICTED BY IDOCK:   -1.65 KCAL/MOL
REMARK 927      BINDING AFFINITY PREDICTED BY RF-SCORE:    0.00 PKD
ROOT
HETATM    1  C   UNL     1     -10.307   5.794  72.639  1.00  0.00    -0.229 C  
HETATM    2  C   UNL     1      -9.428   5.313  71.494  1.00  0.00    -0.150 C  
ENDROOT
BRANCH   2   3
HETATM    3  N   UNL     1      -9.046   6.393  70.435  1.00  0.00    -0.154 N  
BRANCH   3   4
HETATM    4  C   UNL     1     -10.330   7.097  69.906  1.00  0.00    -0.213 C  
HETATM    5  C   UNL     1     -11.398   6.187  69.355  1.00  0.00    -0.401 C  
ENDBRANCH   3   4
BRANCH   3   6
HETATM    6  C   UNL     1      -8.421   5.726  69.188  1.00  0.00    -0.107 C  
BRANCH   6   7
HETATM    7  C   UNL     1      -8.277   6.450  67.852  1.00  0.00    -0.115 A  
HETATM    8  C   UNL     1      -8.641   6.405  65.422  1.00  0.00    -0.088 A  
HETATM    9  C   UNL     1      -7.615   7.673  67.657  1.00  0.00    -0.109 A  
HETATM   10  C   UNL     1      -8.831   5.858  66.697  1.00  0.00    -0.123 A  
HETATM   11  C   UNL     1      -7.475   8.255  66.396  1.00  0.00    -0.080 A  
HETATM   12 CL   UNL     1      -9.749   4.395  66.808  1.00  0.00    -0.219 Cl 
HETATM   13  C   UNL     1      -7.963   7.610  65.274  1.00  0.00    -0.129 A  
ENDBRANCH   6   7
ENDBRANCH   3   6
BRANCH   3  14
HETATM   14  C   UNL     1      -8.040   7.374  71.163  1.00  0.00    -0.101 C  
BRANCH  14  15
HETATM   15  C   UNL     1      -8.546   8.833  71.438  1.00  0.00    -0.194 C  
BRANCH  15  16
HETATM   16  N   UNL     1      -8.424   9.811  70.367  1.00  0.00    -0.282 N  
HETATM   17  H   UNL     1      -9.223  10.021  69.770  1.00  0.00     0.000 HD 
HETATM   18  C   UNL     1      -7.209  10.460  70.164  1.00  0.00    -0.083 C  
HETATM   19  O   UNL     1      -6.275  10.407  70.947  1.00  0.00    -0.277 OA 
BRANCH  18  20
HETATM   20  C   UNL     1      -7.160  11.369  68.910  1.00  0.00    -0.109 C  
HETATM   21  N   UNL     1      -8.100  12.400  68.879  1.00  0.00    -0.344 N  
HETATM   22  O   UNL     1      -6.335  11.179  68.031  1.00  0.00    -0.053 OA 
HETATM   23  H   UNL     1      -8.944  12.356  69.450  1.00  0.00     0.000 HD 
BRANCH  21  24
HETATM   24  C   UNL     1      -7.847  13.542  68.009  1.00  0.00    -0.147 C  
BRANCH  24  25
HETATM   25  C   UNL     1      -9.065  14.020  67.172  1.00  0.00    -0.232 C  
BRANCH  25  26
HETATM   26  N   UNL     1      -9.821  15.235  67.762  1.00  0.00    -0.220 N  
BRANCH  26  27
HETATM   27  C   UNL     1     -10.638  15.957  66.650  1.00  0.00    -0.305 C  
HETATM   28  C   UNL     1     -10.502  15.363  65.255  1.00  0.00    -0.440 C  
ENDBRANCH  26  27
BRANCH  26  29
HETATM   29  C   UNL     1     -10.746  14.712  68.896  1.00  0.00    -0.248 C  
HETATM   30  C   UNL     1     -11.642  13.546  68.520  1.00  0.00    -0.368 C  
ENDBRANCH  26  29
BRANCH  26  31
HETATM   31  C   UNL     1      -8.800  16.281  68.347  1.00  0.00    -0.202 C  
BRANCH  31  32
HETATM   32  C   UNL     1      -8.347  17.439  67.473  1.00  0.00    -0.212 A  
HETATM   33  C   UNL     1      -7.397  17.235  66.451  1.00  0.00    -0.336 A  
HETATM   34  C   UNL     1      -6.866  18.305  65.722  1.00  0.00    -0.310 A  
HETATM   35  C   UNL     1      -7.258  19.605  66.011  1.00  0.00    -0.301 A  
HETATM   36  C   UNL     1      -8.208  19.833  67.001  1.00  0.00    -0.340 A  
HETATM   37  C   UNL     1      -8.755  18.765  67.720  1.00  0.00    -0.287 A  
HETATM   38 CL   UNL     1      -9.922  19.160  68.930  1.00  0.00    -0.494 Cl 
ENDBRANCH  31  32
ENDBRANCH  26  31
ENDBRANCH  25  26
ENDBRANCH  24  25
ENDBRANCH  21  24
ENDBRANCH  18  20
ENDBRANCH  15  16
ENDBRANCH  14  15
ENDBRANCH   3  14
ENDBRANCH   2   3
TORSDOF 15
ENDMDL
MODEL      278
REMARK 921   NORMALIZED FREE ENERGY PREDICTED BY IDOCK:   -3.72 KCAL/MOL
REMARK 922        TOTAL FREE ENERGY PREDICTED BY IDOCK:   -9.65 KCAL/MOL
REMARK 923 INTER-LIGAND FREE ENERGY PREDICTED BY IDOCK:   -8.21 KCAL/MOL
REMARK 924 INTRA-LIGAND FREE ENERGY PREDICTED BY IDOCK:   -1.43 KCAL/MOL
REMARK 927      BINDING AFFINITY PREDICTED BY RF-SCORE:    0.00 PKD
ROOT
HETATM    1  C   UNL     1      -6.793   6.431  71.605  1.00  0.00    -0.067 C  
HETATM    2  C   UNL     1      -7.395   5.263  72.374  1.00  0.00    -0.094 C  
ENDROOT
BRANCH   2   3
HETATM    3  N   UNL     1      -8.835   5.490  72.930  1.00  0.00    -0.118 N  
BRANCH   3   4
HETATM    4  C   UNL     1      -9.127   4.480  74.078  1.00  0.00    -0.107 C  
HETATM    5  C   UNL     1      -7.952   3.661  74.546  1.00  0.00    -0.073 C  
ENDBRANCH   3   4
BRANCH   3   6
HETATM    6  C   UNL     1      -9.888   5.166  71.844  1.00  0.00    -0.177 C  
BRANCH   6   7
HETATM    7  C   UNL     1      -9.628   4.174  70.715  1.00  0.00    -0.260 A  
HETATM    8  C   UNL     1      -9.441   3.792  68.294  1.00  0.00    -0.215 A  
HETATM    9  C   UNL     1      -9.458   2.788  70.872  1.00  0.00    -0.224 A  
HETATM   10  C   UNL     1      -9.562   4.655  69.390  1.00  0.00    -0.187 A  
HETATM   11  C   UNL     1      -9.276   1.928  69.788  1.00  0.00    -0.168 A  
HETATM   12 CL   UNL     1      -9.666   6.351  69.062  1.00  0.00    -0.138 Cl 
HETATM   13  C   UNL     1      -9.293   2.425  68.497  1.00  0.00    -0.252 A  
ENDBRANCH   6   7
ENDBRANCH   3   6
BRANCH   3  14
HETATM   14  C   UNL     1      -8.887   7.003  73.389  1.00  0.00    -0.137 C  
BRANCH  14  15
HETATM   15  C   UNL     1     -10.168   7.818  73.000  1.00  0.00    -0.330 C  
BRANCH  15  16
HETATM   16  N   UNL     1     -10.072   8.753  71.888  1.00  0.00    -0.323 N  
HETATM   17  H   UNL     1      -9.236   9.324  71.769  1.00  0.00     0.000 HD 
HETATM   18  C   UNL     1     -11.128   8.862  70.988  1.00  0.00    -0.276 C  
HETATM   19  O   UNL     1     -12.068   8.086  70.951  1.00  0.00    -0.263 OA 
BRANCH  18  20
HETATM   20  C   UNL     1     -10.971   9.988  69.936  1.00  0.00    -0.293 C  
HETATM   21  N   UNL     1     -11.916  11.014  70.008  1.00  0.00    -0.320 N  
HETATM   22  O   UNL     1     -10.065   9.960  69.119  1.00  0.00    -0.179 OA 
HETATM   23  H   UNL     1     -12.809  10.869  70.478  1.00  0.00     0.000 HD 
BRANCH  21  24
HETATM   24  C   UNL     1     -11.594  12.296  69.393  1.00  0.00    -0.314 C  
BRANCH  24  25
HETATM   25  C   UNL     1     -11.785  12.359  67.853  1.00  0.00    -0.360 C  
BRANCH  25  26
HETATM   26  N   UNL     1     -11.083  13.553  67.161  1.00  0.00    -0.287 N  
BRANCH  26  27
HETATM   27  C   UNL     1      -9.792  13.074  66.433  1.00  0.00    -0.270 C  
HETATM   28  C   UNL     1      -9.772  11.601  66.048  1.00  0.00    -0.257 C  
ENDBRANCH  26  27
BRANCH  26  29
HETATM   29  C   UNL     1     -12.095  14.184  66.166  1.00  0.00    -0.435 C  
HETATM   30  C   UNL     1     -12.792  13.206  65.237  1.00  0.00    -0.332 C  
ENDBRANCH  26  29
BRANCH  26  31
HETATM   31  C   UNL     1     -10.648  14.623  68.230  1.00  0.00    -0.235 C  
BRANCH  31  32
HETATM   32  C   UNL     1      -9.762  15.781  67.799  1.00  0.00    -0.216 A  
HETATM   33  C   UNL     1     -10.233  16.735  66.872  1.00  0.00    -0.290 A  
HETATM   34  C   UNL     1      -9.395  17.731  66.360  1.00  0.00    -0.264 A  
HETATM   35  C   UNL     1      -8.063  17.786  66.747  1.00  0.00    -0.265 A  
HETATM   36  C   UNL     1      -7.577  16.869  67.674  1.00  0.00    -0.180 A  
HETATM   37  C   UNL     1      -8.417  15.883  68.203  1.00  0.00    -0.167 A  
HETATM   38 CL   UNL     1      -7.711  14.794  69.343  1.00  0.00    -0.140 Cl 
ENDBRANCH  31  32
ENDBRANCH  26  31
ENDBRANCH  25  26
ENDBRANCH  24  25
ENDBRANCH  21  24
ENDBRANCH  18  20
ENDBRANCH  15  16
ENDBRANCH  14  15
ENDBRANCH   3  14
ENDBRANCH   2   3
TORSDOF 15
ENDMDL
MODEL      279
REMARK 921   NORMALIZED FREE ENERGY PREDICTED BY IDOCK:   -3.72 KCAL/MOL
REMARK 922        TOTAL FREE ENERGY PREDICTED BY IDOCK:   -9.64 KCAL/MOL
REMARK 923 INTER-LIGAND FREE ENERGY PREDICTED BY IDOCK:   -8.08 KCAL/MOL
REMARK 924 INTRA-LIGAND FREE ENERGY PREDICTED BY IDOCK:   -1.56 KCAL/MOL
REMARK 927      BINDING AFFINITY PREDICTED BY RF-SCORE:    0.00 PKD
ROOT
HETATM    1  C   UNL     1      -7.397  14.901  70.074  1.00  0.00     0.068 C  
HETATM    2  C   UNL     1      -6.693  14.923  68.725  1.00  0.00    -0.092 C  
ENDROOT
BRANCH   2   3
HETATM    3  N   UNL     1      -6.922  16.204  67.865  1.00  0.00    -0.127 N  
BRANCH   3   4
HETATM    4  C   UNL     1      -5.557  16.876  67.536  1.00  0.00    -0.147 C  
HETATM    5  C   UNL     1      -5.434  17.471  66.156  1.00  0.00    -0.218 C  
ENDBRANCH   3   4
BRANCH   3   6
HETATM    6  C   UNL     1      -7.698  17.267  68.677  1.00  0.00    -0.265 C  
BRANCH   6   7
HETATM    7  C   UNL     1      -8.610  18.300  68.023  1.00  0.00    -0.280 A  
HETATM    8  C   UNL     1     -10.906  19.081  67.625  1.00  0.00    -0.439 A  
HETATM    9  C   UNL     1      -8.190  19.323  67.157  1.00  0.00    -0.292 A  
HETATM   10  C   UNL     1      -9.996  18.240  68.278  1.00  0.00    -0.364 A  
HETATM   11  C   UNL     1      -9.086  20.205  66.549  1.00  0.00    -0.411 A  
HETATM   12 CL   UNL     1     -10.639  17.084  69.395  1.00  0.00    -0.310 Cl 
HETATM   13  C   UNL     1     -10.446  20.068  66.762  1.00  0.00    -0.520 A  
ENDBRANCH   6   7
ENDBRANCH   3   6
BRANCH   3  14
HETATM   14  C   UNL     1      -7.717  15.726  66.583  1.00  0.00    -0.105 C  
BRANCH  14  15
HETATM   15  C   UNL     1      -9.169  15.178  66.811  1.00  0.00    -0.254 C  
BRANCH  15  16
HETATM   16  N   UNL     1      -9.318  13.790  67.225  1.00  0.00    -0.230 N  
HETATM   17  H   UNL     1      -8.554  13.129  67.087  1.00  0.00     0.000 HD 
HETATM   18  C   UNL     1     -10.509  13.372  67.811  1.00  0.00    -0.243 C  
HETATM   19  O   UNL     1     -11.385  14.135  68.181  1.00  0.00    -0.263 OA 
BRANCH  18  20
HETATM   20  C   UNL     1     -10.603  11.848  68.075  1.00  0.00    -0.207 C  
HETATM   21  N   UNL     1     -10.623  11.472  69.420  1.00  0.00    -0.436 N  
HETATM   22  O   UNL     1     -10.664  11.055  67.151  1.00  0.00    -0.235 OA 
HETATM   23  H   UNL     1     -10.274  12.100  70.144  1.00  0.00     0.000 HD 
BRANCH  21  24
HETATM   24  C   UNL     1     -11.155  10.159  69.764  1.00  0.00    -0.279 C  
BRANCH  24  25
HETATM   25  C   UNL     1     -10.400   9.416  70.900  1.00  0.00    -0.310 C  
BRANCH  25  26
HETATM   26  N   UNL     1     -10.028   7.948  70.579  1.00  0.00    -0.190 N  
BRANCH  26  27
HETATM   27  C   UNL     1     -10.388   7.023  71.779  1.00  0.00    -0.197 C  
HETATM   28  C   UNL     1     -11.172   7.690  72.901  1.00  0.00    -0.426 C  
ENDBRANCH  26  27
BRANCH  26  29
HETATM   29  C   UNL     1     -10.797   7.535  69.294  1.00  0.00    -0.117 C  
HETATM   30  C   UNL     1     -11.152   6.062  69.191  1.00  0.00    -0.405 C  
ENDBRANCH  26  29
BRANCH  26  31
HETATM   31  C   UNL     1      -8.478   7.819  70.337  1.00  0.00    -0.132 C  
BRANCH  31  32
HETATM   32  C   UNL     1      -7.868   8.456  69.100  1.00  0.00    -0.105 A  
HETATM   33  C   UNL     1      -7.612   9.843  69.062  1.00  0.00    -0.086 A  
HETATM   34  C   UNL     1      -7.175  10.474  67.892  1.00  0.00    -0.084 A  
HETATM   35  C   UNL     1      -7.002   9.737  66.728  1.00  0.00    -0.085 A  
HETATM   36  C   UNL     1      -7.228   8.365  66.742  1.00  0.00    -0.078 A  
HETATM   37  C   UNL     1      -7.647   7.727  67.915  1.00  0.00    -0.116 A  
HETATM   38 CL   UNL     1      -7.903   6.021  67.821  1.00  0.00    -0.104 Cl 
ENDBRANCH  31  32
ENDBRANCH  26  31
ENDBRANCH  25  26
ENDBRANCH  24  25
ENDBRANCH  21  24
ENDBRANCH  18  20
ENDBRANCH  15  16
ENDBRANCH  14  15
ENDBRANCH   3  14
ENDBRANCH   2   3
TORSDOF 15
ENDMDL
MODEL      280
REMARK 921   NORMALIZED FREE ENERGY PREDICTED BY IDOCK:   -3.72 KCAL/MOL
REMARK 922        TOTAL FREE ENERGY PREDICTED BY IDOCK:   -9.64 KCAL/MOL
REMARK 923 INTER-LIGAND FREE ENERGY PREDICTED BY IDOCK:   -8.43 KCAL/MOL
REMARK 924 INTRA-LIGAND FREE ENERGY PREDICTED BY IDOCK:   -1.21 KCAL/MOL
REMARK 927      BINDING AFFINITY PREDICTED BY RF-SCORE:    0.00 PKD
ROOT
HETATM    1  C   UNL     1     -10.570   7.945  66.958  1.00  0.00    -0.381 C  
HETATM    2  C   UNL     1     -10.081   7.513  68.332  1.00  0.00    -0.180 C  
ENDROOT
BRANCH   2   3
HETATM    3  N   UNL     1      -8.929   6.461  68.340  1.00  0.00    -0.121 N  
BRANCH   3   4
HETATM    4  C   UNL     1      -9.478   5.068  67.915  1.00  0.00    -0.134 C  
HETATM    5  C   UNL     1      -8.736   4.385  66.794  1.00  0.00    -0.112 C  
ENDBRANCH   3   4
BRANCH   3   6
HETATM    6  C   UNL     1      -8.401   6.253  69.779  1.00  0.00    -0.125 C  
BRANCH   6   7
HETATM    7  C   UNL     1      -9.212   6.624  71.016  1.00  0.00    -0.160 A  
HETATM    8  C   UNL     1     -10.907   5.948  72.662  1.00  0.00    -0.290 A  
HETATM    9  C   UNL     1      -9.216   7.883  71.639  1.00  0.00    -0.180 A  
HETATM   10  C   UNL     1     -10.049   5.648  71.597  1.00  0.00    -0.195 A  
HETATM   11  C   UNL     1     -10.025   8.172  72.740  1.00  0.00    -0.361 A  
HETATM   12 CL   UNL     1     -10.074   4.030  70.984  1.00  0.00    -0.170 Cl 
HETATM   13  C   UNL     1     -10.890   7.214  73.236  1.00  0.00    -0.378 A  
ENDBRANCH   6   7
ENDBRANCH   3   6
BRANCH   3  14
HETATM   14  C   UNL     1      -7.819   7.029  67.366  1.00  0.00    -0.111 C  
BRANCH  14  15
HETATM   15  C   UNL     1      -6.707   7.929  68.006  1.00  0.00    -0.067 C  
BRANCH  15  16
HETATM   16  N   UNL     1      -6.947   9.363  68.081  1.00  0.00    -0.074 N  
HETATM   17  H   UNL     1      -7.492   9.751  68.851  1.00  0.00     0.000 HD 
HETATM   18  C   UNL     1      -6.429  10.200  67.098  1.00  0.00    -0.068 C  
HETATM   19  O   UNL     1      -5.616   9.840  66.264  1.00  0.00    -0.050 OA 
BRANCH  18  20
HETATM   20  C   UNL     1      -6.871  11.681  67.206  1.00  0.00    -0.129 C  
HETATM   21  N   UNL     1      -8.039  12.011  66.517  1.00  0.00    -0.388 N  
HETATM   22  O   UNL     1      -6.228  12.479  67.866  1.00  0.00    -0.075 OA 
HETATM   23  H   UNL     1      -8.378  11.427  65.752  1.00  0.00     0.000 HD 
BRANCH  21  24
HETATM   24  C   UNL     1      -8.764  13.211  66.916  1.00  0.00    -0.148 C  
BRANCH  24  25
HETATM   25  C   UNL     1      -9.867  13.678  65.927  1.00  0.00    -0.246 C  
BRANCH  25  26
HETATM   26  N   UNL     1     -10.629  14.954  66.362  1.00  0.00    -0.299 N  
BRANCH  26  27
HETATM   27  C   UNL     1     -10.915  15.860  65.129  1.00  0.00    -0.377 C  
HETATM   28  C   UNL     1     -11.950  15.321  64.151  1.00  0.00    -0.145 C  
ENDBRANCH  26  27
BRANCH  26  29
HETATM   29  C   UNL     1     -11.946  14.506  67.054  1.00  0.00    -0.345 C  
HETATM   30  C   UNL     1     -11.883  14.395  68.567  1.00  0.00    -0.369 C  
ENDBRANCH  26  29
BRANCH  26  31
HETATM   31  C   UNL     1      -9.757  15.793  67.368  1.00  0.00    -0.223 C  
BRANCH  31  32
HETATM   32  C   UNL     1      -9.706  17.305  67.219  1.00  0.00    -0.262 A  
HETATM   33  C   UNL     1     -10.857  18.086  67.454  1.00  0.00    -0.236 A  
HETATM   34  C   UNL     1     -10.871  19.461  67.197  1.00  0.00    -0.561 A  
HETATM   35  C   UNL     1      -9.743  20.084  66.680  1.00  0.00    -0.566 A  
HETATM   36  C   UNL     1      -8.588  19.341  66.456  1.00  0.00    -0.348 A  
HETATM   37  C   UNL     1      -8.563  17.969  66.731  1.00  0.00    -0.255 A  
HETATM   38 CL   UNL     1      -7.081  17.141  66.412  1.00  0.00    -0.299 Cl 
ENDBRANCH  31  32
ENDBRANCH  26  31
ENDBRANCH  25  26
ENDBRANCH  24  25
ENDBRANCH  21  24
ENDBRANCH  18  20
ENDBRANCH  15  16
ENDBRANCH  14  15
ENDBRANCH   3  14
ENDBRANCH   2   3
TORSDOF 15
ENDMDL
MODEL      281
REMARK 921   NORMALIZED FREE ENERGY PREDICTED BY IDOCK:   -3.72 KCAL/MOL
REMARK 922        TOTAL FREE ENERGY PREDICTED BY IDOCK:   -9.64 KCAL/MOL
REMARK 923 INTER-LIGAND FREE ENERGY PREDICTED BY IDOCK:   -8.08 KCAL/MOL
REMARK 924 INTRA-LIGAND FREE ENERGY PREDICTED BY IDOCK:   -1.56 KCAL/MOL
REMARK 927      BINDING AFFINITY PREDICTED BY RF-SCORE:    0.00 PKD
ROOT
HETATM    1  C   UNL     1     -11.060  16.168  64.902  1.00  0.00    -0.336 C  
HETATM    2  C   UNL     1     -10.481  17.247  65.806  1.00  0.00    -0.229 C  
ENDROOT
BRANCH   2   3
HETATM    3  N   UNL     1      -9.218  16.837  66.624  1.00  0.00    -0.242 N  
BRANCH   3   4
HETATM    4  C   UNL     1      -9.524  16.909  68.148  1.00  0.00    -0.251 C  
HETATM    5  C   UNL     1     -10.793  17.629  68.529  1.00  0.00    -0.075 C  
ENDBRANCH   3   4
BRANCH   3   6
HETATM    6  C   UNL     1      -8.079  17.860  66.404  1.00  0.00    -0.261 C  
BRANCH   6   7
HETATM    7  C   UNL     1      -7.173  18.340  67.534  1.00  0.00    -0.208 A  
HETATM    8  C   UNL     1      -6.490  20.193  68.997  1.00  0.00    -0.343 A  
HETATM    9  C   UNL     1      -6.139  17.592  68.122  1.00  0.00    -0.164 A  
HETATM   10  C   UNL     1      -7.354  19.644  68.041  1.00  0.00    -0.285 A  
HETATM   11  C   UNL     1      -5.312  18.112  69.119  1.00  0.00    -0.193 A  
HETATM   12 CL   UNL     1      -8.647  20.642  67.469  1.00  0.00    -0.329 Cl 
HETATM   13  C   UNL     1      -5.469  19.421  69.539  1.00  0.00    -0.226 A  
ENDBRANCH   6   7
ENDBRANCH   3   6
BRANCH   3  14
HETATM   14  C   UNL     1      -8.831  15.386  66.124  1.00  0.00    -0.187 C  
BRANCH  14  15
HETATM   15  C   UNL     1      -8.718  14.267  67.216  1.00  0.00    -0.218 C  
BRANCH  15  16
HETATM   16  N   UNL     1      -8.791  12.879  66.782  1.00  0.00    -0.355 N  
HETATM   17  H   UNL     1      -7.947  12.309  66.739  1.00  0.00     0.000 HD 
HETATM   18  C   UNL     1     -10.022  12.334  66.427  1.00  0.00    -0.228 C  
HETATM   19  O   UNL     1     -11.090  12.885  66.633  1.00  0.00    -0.270 OA 
BRANCH  18  20
HETATM   20  C   UNL     1      -9.953  10.899  65.847  1.00  0.00    -0.243 C  
HETATM   21  N   UNL     1      -9.195   9.989  66.584  1.00  0.00    -0.147 N  
HETATM   22  O   UNL     1     -10.543  10.611  64.819  1.00  0.00    -0.291 OA 
HETATM   23  H   UNL     1      -8.488  10.311  67.245  1.00  0.00     0.000 HD 
BRANCH  21  24
HETATM   24  C   UNL     1      -9.437   8.565  66.387  1.00  0.00    -0.232 C  
BRANCH  24  25
HETATM   25  C   UNL     1     -10.562   7.956  67.267  1.00  0.00    -0.295 C  
BRANCH  25  26
HETATM   26  N   UNL     1     -10.073   6.964  68.351  1.00  0.00    -0.161 N  
BRANCH  26  27
HETATM   27  C   UNL     1      -8.519   6.865  68.332  1.00  0.00    -0.123 C  
HETATM   28  C   UNL     1      -7.860   6.730  69.698  1.00  0.00    -0.115 C  
ENDBRANCH  26  27
BRANCH  26  29
HETATM   29  C   UNL     1     -10.593   7.469  69.725  1.00  0.00    -0.241 C  
HETATM   30  C   UNL     1     -11.631   6.585  70.394  1.00  0.00    -0.470 C  
ENDBRANCH  26  29
BRANCH  26  31
HETATM   31  C   UNL     1     -10.637   5.523  68.064  1.00  0.00    -0.140 C  
BRANCH  31  32
HETATM   32  C   UNL     1      -9.862   4.595  67.144  1.00  0.00    -0.227 A  
HETATM   33  C   UNL     1      -9.796   4.852  65.758  1.00  0.00    -0.186 A  
HETATM   34  C   UNL     1      -9.202   3.946  64.874  1.00  0.00    -0.149 A  
HETATM   35  C   UNL     1      -8.677   2.752  65.351  1.00  0.00    -0.122 A  
HETATM   36  C   UNL     1      -8.712   2.481  66.714  1.00  0.00    -0.133 A  
HETATM   37  C   UNL     1      -9.288   3.393  67.605  1.00  0.00    -0.199 A  
HETATM   38 CL   UNL     1      -9.282   2.956  69.276  1.00  0.00    -0.200 Cl 
ENDBRANCH  31  32
ENDBRANCH  26  31
ENDBRANCH  25  26
ENDBRANCH  24  25
ENDBRANCH  21  24
ENDBRANCH  18  20
ENDBRANCH  15  16
ENDBRANCH  14  15
ENDBRANCH   3  14
ENDBRANCH   2   3
TORSDOF 15
ENDMDL
MODEL      282
REMARK 921   NORMALIZED FREE ENERGY PREDICTED BY IDOCK:   -3.70 KCAL/MOL
REMARK 922        TOTAL FREE ENERGY PREDICTED BY IDOCK:   -9.61 KCAL/MOL
REMARK 923 INTER-LIGAND FREE ENERGY PREDICTED BY IDOCK:   -8.19 KCAL/MOL
REMARK 924 INTRA-LIGAND FREE ENERGY PREDICTED BY IDOCK:   -1.42 KCAL/MOL
REMARK 927      BINDING AFFINITY PREDICTED BY RF-SCORE:    0.00 PKD
ROOT
HETATM    1  C   UNL     1     -12.360  13.393  66.068  1.00  0.00    -0.471 C  
HETATM    2  C   UNL     1     -11.620  14.711  65.893  1.00  0.00    -0.327 C  
ENDROOT
BRANCH   2   3
HETATM    3  N   UNL     1     -10.717  15.143  67.089  1.00  0.00    -0.303 N  
BRANCH   3   4
HETATM    4  C   UNL     1     -11.490  16.133  68.009  1.00  0.00    -0.163 C  
HETATM    5  C   UNL     1     -11.759  15.651  69.412  1.00  0.00    -0.395 C  
ENDBRANCH   3   4
BRANCH   3   6
HETATM    6  C   UNL     1      -9.499  15.949  66.580  1.00  0.00    -0.241 C  
BRANCH   6   7
HETATM    7  C   UNL     1      -8.879  17.094  67.376  1.00  0.00    -0.218 A  
HETATM    8  C   UNL     1      -8.643  19.523  67.670  1.00  0.00    -0.355 A  
HETATM    9  C   UNL     1      -7.935  16.952  68.406  1.00  0.00    -0.232 A  
HETATM   10  C   UNL     1      -9.254  18.418  67.063  1.00  0.00    -0.274 A  
HETATM   11  C   UNL     1      -7.367  18.048  69.058  1.00  0.00    -0.198 A  
HETATM   12 CL   UNL     1     -10.472  18.733  65.875  1.00  0.00    -0.490 Cl 
HETATM   13  C   UNL     1      -7.701  19.334  68.674  1.00  0.00    -0.394 A  
ENDBRANCH   6   7
ENDBRANCH   3   6
BRANCH   3  14
HETATM   14  C   UNL     1     -10.293  13.803  67.816  1.00  0.00    -0.241 C  
BRANCH  14  15
HETATM   15  C   UNL     1      -8.878  13.224  67.467  1.00  0.00    -0.206 C  
BRANCH  15  16
HETATM   16  N   UNL     1      -8.452  12.008  68.144  1.00  0.00    -0.165 N  
HETATM   17  H   UNL     1      -8.934  11.127  67.969  1.00  0.00     0.000 HD 
HETATM   18  C   UNL     1      -7.381  12.055  69.032  1.00  0.00    -0.018 C  
HETATM   19  O   UNL     1      -6.640  13.017  69.147  1.00  0.00    -0.102 OA 
BRANCH  18  20
HETATM   20  C   UNL     1      -7.113  10.735  69.797  1.00  0.00    -0.124 C  
HETATM   21  N   UNL     1      -7.768   9.608  69.297  1.00  0.00    -0.088 N  
HETATM   22  O   UNL     1      -6.366  10.710  70.760  1.00  0.00    -0.324 OA 
HETATM   23  H   UNL     1      -8.594   9.702  68.706  1.00  0.00     0.000 HD 
BRANCH  21  24
HETATM   24  C   UNL     1      -7.243   8.292  69.641  1.00  0.00    -0.061 C  
BRANCH  24  25
HETATM   25  C   UNL     1      -7.766   7.121  68.765  1.00  0.00    -0.116 C  
BRANCH  25  26
HETATM   26  N   UNL     1      -8.767   6.177  69.474  1.00  0.00    -0.129 N  
BRANCH  26  27
HETATM   27  C   UNL     1      -9.793   5.607  68.449  1.00  0.00    -0.139 C  
HETATM   28  C   UNL     1     -11.059   6.434  68.269  1.00  0.00    -0.359 C  
ENDBRANCH  26  27
BRANCH  26  29
HETATM   29  C   UNL     1      -7.950   5.042  70.150  1.00  0.00    -0.077 C  
HETATM   30  C   UNL     1      -6.876   4.407  69.285  1.00  0.00    -0.046 C  
ENDBRANCH  26  29
BRANCH  26  31
HETATM   31  C   UNL     1      -9.584   6.968  70.563  1.00  0.00    -0.169 C  
BRANCH  31  32
HETATM   32  C   UNL     1      -9.819   6.326  71.920  1.00  0.00    -0.172 A  
HETATM   33  C   UNL     1     -10.668   5.207  72.045  1.00  0.00    -0.236 A  
HETATM   34  C   UNL     1     -11.004   4.680  73.297  1.00  0.00    -0.381 A  
HETATM   35  C   UNL     1     -10.515   5.273  74.454  1.00  0.00    -0.277 A  
HETATM   36  C   UNL     1      -9.661   6.366  74.359  1.00  0.00    -0.310 A  
HETATM   37  C   UNL     1      -9.307   6.884  73.109  1.00  0.00    -0.143 A  
HETATM   38 CL   UNL     1      -8.245   8.246  73.105  1.00  0.00    -0.246 Cl 
ENDBRANCH  31  32
ENDBRANCH  26  31
ENDBRANCH  25  26
ENDBRANCH  24  25
ENDBRANCH  21  24
ENDBRANCH  18  20
ENDBRANCH  15  16
ENDBRANCH  14  15
ENDBRANCH   3  14
ENDBRANCH   2   3
TORSDOF 15
ENDMDL
MODEL      283
REMARK 921   NORMALIZED FREE ENERGY PREDICTED BY IDOCK:   -3.70 KCAL/MOL
REMARK 922        TOTAL FREE ENERGY PREDICTED BY IDOCK:   -9.61 KCAL/MOL
REMARK 923 INTER-LIGAND FREE ENERGY PREDICTED BY IDOCK:   -8.05 KCAL/MOL
REMARK 924 INTRA-LIGAND FREE ENERGY PREDICTED BY IDOCK:   -1.56 KCAL/MOL
REMARK 927      BINDING AFFINITY PREDICTED BY RF-SCORE:    0.00 PKD
ROOT
HETATM    1  C   UNL     1     -11.821  13.196  66.084  1.00  0.00    -0.453 C  
HETATM    2  C   UNL     1     -11.649  14.708  66.085  1.00  0.00    -0.332 C  
ENDROOT
BRANCH   2   3
HETATM    3  N   UNL     1     -10.628  15.271  67.121  1.00  0.00    -0.295 N  
BRANCH   3   4
HETATM    4  C   UNL     1     -11.365  16.151  68.172  1.00  0.00    -0.270 C  
HETATM    5  C   UNL     1     -11.932  15.417  69.360  1.00  0.00    -0.351 C  
ENDBRANCH   3   4
BRANCH   3   6
HETATM    6  C   UNL     1      -9.636  16.235  66.428  1.00  0.00    -0.291 C  
BRANCH   6   7
HETATM    7  C   UNL     1      -8.938  17.371  67.170  1.00  0.00    -0.248 A  
HETATM    8  C   UNL     1      -8.606  19.794  67.408  1.00  0.00    -0.374 A  
HETATM    9  C   UNL     1      -7.948  17.213  68.154  1.00  0.00    -0.216 A  
HETATM   10  C   UNL     1      -9.283  18.702  66.853  1.00  0.00    -0.304 A  
HETATM   11  C   UNL     1      -7.311  18.299  68.757  1.00  0.00    -0.298 A  
HETATM   12 CL   UNL     1     -10.549  19.039  65.722  1.00  0.00    -0.491 Cl 
HETATM   13  C   UNL     1      -7.620  19.590  68.366  1.00  0.00    -0.365 A  
ENDBRANCH   6   7
ENDBRANCH   3   6
BRANCH   3  14
HETATM   14  C   UNL     1      -9.906  14.010  67.746  1.00  0.00    -0.232 C  
BRANCH  14  15
HETATM   15  C   UNL     1      -8.467  13.681  67.217  1.00  0.00    -0.194 C  
BRANCH  15  16
HETATM   16  N   UNL     1      -7.805  12.492  67.732  1.00  0.00    -0.137 N  
HETATM   17  H   UNL     1      -7.967  11.584  67.296  1.00  0.00     0.000 HD 
HETATM   18  C   UNL     1      -6.948  12.600  68.824  1.00  0.00    -0.096 C  
HETATM   19  O   UNL     1      -6.558  13.664  69.273  1.00  0.00    -0.109 OA 
BRANCH  18  20
HETATM   20  C   UNL     1      -6.417  11.251  69.370  1.00  0.00    -0.105 C  
HETATM   21  N   UNL     1      -7.338  10.492  70.094  1.00  0.00    -0.304 N  
HETATM   22  O   UNL     1      -5.270  10.897  69.155  1.00  0.00    -0.042 OA 
HETATM   23  H   UNL     1      -8.163  10.926  70.508  1.00  0.00     0.000 HD 
BRANCH  21  24
HETATM   24  C   UNL     1      -7.092   9.063  70.245  1.00  0.00    -0.055 C  
BRANCH  24  25
HETATM   25  C   UNL     1      -6.695   8.607  71.676  1.00  0.00    -0.083 C  
BRANCH  25  26
HETATM   26  N   UNL     1      -7.047   7.137  72.009  1.00  0.00    -0.071 N  
BRANCH  26  27
HETATM   27  C   UNL     1      -5.993   6.173  71.389  1.00  0.00    -0.031 C  
HETATM   28  C   UNL     1      -5.171   5.377  72.393  1.00  0.00    -0.016 C  
ENDBRANCH  26  27
BRANCH  26  29
HETATM   29  C   UNL     1      -7.099   7.002  73.556  1.00  0.00    -0.073 C  
HETATM   30  C   UNL     1      -7.606   8.224  74.300  1.00  0.00    -0.264 C  
ENDBRANCH  26  29
BRANCH  26  31
HETATM   31  C   UNL     1      -8.446   6.759  71.394  1.00  0.00    -0.120 C  
BRANCH  31  32
HETATM   32  C   UNL     1      -9.298   5.709  72.086  1.00  0.00    -0.160 A  
HETATM   33  C   UNL     1      -9.023   4.336  71.914  1.00  0.00    -0.152 A  
HETATM   34  C   UNL     1      -9.870   3.350  72.432  1.00  0.00    -0.227 A  
HETATM   35  C   UNL     1     -11.021   3.713  73.118  1.00  0.00    -0.228 A  
HETATM   36  C   UNL     1     -11.307   5.059  73.319  1.00  0.00    -0.393 A  
HETATM   37  C   UNL     1     -10.453   6.048  72.819  1.00  0.00    -0.216 A  
HETATM   38 CL   UNL     1     -10.905   7.688  73.121  1.00  0.00    -0.453 Cl 
ENDBRANCH  31  32
ENDBRANCH  26  31
ENDBRANCH  25  26
ENDBRANCH  24  25
ENDBRANCH  21  24
ENDBRANCH  18  20
ENDBRANCH  15  16
ENDBRANCH  14  15
ENDBRANCH   3  14
ENDBRANCH   2   3
TORSDOF 15
ENDMDL
MODEL      284
REMARK 921   NORMALIZED FREE ENERGY PREDICTED BY IDOCK:   -3.68 KCAL/MOL
REMARK 922        TOTAL FREE ENERGY PREDICTED BY IDOCK:   -9.57 KCAL/MOL
REMARK 923 INTER-LIGAND FREE ENERGY PREDICTED BY IDOCK:   -7.63 KCAL/MOL
REMARK 924 INTRA-LIGAND FREE ENERGY PREDICTED BY IDOCK:   -1.95 KCAL/MOL
REMARK 927      BINDING AFFINITY PREDICTED BY RF-SCORE:    0.00 PKD
ROOT
HETATM    1  C   UNL     1      -8.113  12.669  67.547  1.00  0.00    -0.178 C  
HETATM    2  C   UNL     1      -9.189  11.833  66.871  1.00  0.00    -0.189 C  
ENDROOT
BRANCH   2   3
HETATM    3  N   UNL     1      -9.977  10.863  67.805  1.00  0.00    -0.173 N  
BRANCH   3   4
HETATM    4  C   UNL     1     -10.235   9.513  67.074  1.00  0.00    -0.255 C  
HETATM    5  C   UNL     1      -9.717   9.421  65.661  1.00  0.00    -0.336 C  
ENDBRANCH   3   4
BRANCH   3   6
HETATM    6  C   UNL     1     -11.388  11.427  68.098  1.00  0.00    -0.304 C  
BRANCH   6   7
HETATM    7  C   UNL     1     -11.642  12.502  69.150  1.00  0.00    -0.375 A  
HETATM    8  C   UNL     1     -12.683  13.097  71.295  1.00  0.00    -0.396 A  
HETATM    9  C   UNL     1     -11.274  13.853  69.037  1.00  0.00    -0.312 A  
HETATM   10  C   UNL     1     -12.314  12.144  70.337  1.00  0.00    -0.233 A  
HETATM   11  C   UNL     1     -11.585  14.798  70.017  1.00  0.00    -0.332 A  
HETATM   12 CL   UNL     1     -12.746  10.497  70.645  1.00  0.00    -0.442 Cl 
HETATM   13  C   UNL     1     -12.313  14.427  71.134  1.00  0.00    -0.428 A  
ENDBRANCH   6   7
ENDBRANCH   3   6
BRANCH   3  14
HETATM   14  C   UNL     1      -9.101  10.717  69.114  1.00  0.00    -0.139 C  
BRANCH  14  15
HETATM   15  C   UNL     1      -9.554   9.634  70.153  1.00  0.00    -0.254 C  
BRANCH  15  16
HETATM   16  N   UNL     1      -8.634   8.547  70.453  1.00  0.00    -0.135 N  
HETATM   17  H   UNL     1      -8.872   7.588  70.199  1.00  0.00     0.000 HD 
HETATM   18  C   UNL     1      -7.425   8.823  71.086  1.00  0.00    -0.101 C  
HETATM   19  O   UNL     1      -6.988   9.950  71.245  1.00  0.00    -0.318 OA 
BRANCH  18  20
HETATM   20  C   UNL     1      -6.598   7.574  71.480  1.00  0.00    -0.045 C  
HETATM   21  N   UNL     1      -7.213   6.707  72.384  1.00  0.00    -0.086 N  
HETATM   22  O   UNL     1      -5.490   7.383  71.007  1.00  0.00    -0.027 OA 
HETATM   23  H   UNL     1      -7.977   7.027  72.979  1.00  0.00     0.000 HD 
BRANCH  21  24
HETATM   24  C   UNL     1      -6.738   5.330  72.457  1.00  0.00    -0.073 C  
BRANCH  24  25
HETATM   25  C   UNL     1      -7.303   4.376  71.370  1.00  0.00    -0.055 C  
BRANCH  25  26
HETATM   26  N   UNL     1      -7.924   3.067  71.916  1.00  0.00    -0.057 N  
BRANCH  26  27
HETATM   27  C   UNL     1      -7.370   1.838  71.137  1.00  0.00    -0.033 C  
HETATM   28  C   UNL     1      -6.436   2.169  69.981  1.00  0.00    -0.028 C  
ENDBRANCH  26  27
BRANCH  26  29
HETATM   29  C   UNL     1      -7.586   2.979  73.430  1.00  0.00    -0.052 C  
HETATM   30  C   UNL     1      -6.732   1.792  73.839  1.00  0.00    -0.021 C  
ENDBRANCH  26  29
BRANCH  26  31
HETATM   31  C   UNL     1      -9.486   3.082  71.719  1.00  0.00    -0.139 C  
BRANCH  31  32
HETATM   32  C   UNL     1     -10.175   4.392  71.379  1.00  0.00    -0.153 A  
HETATM   33  C   UNL     1     -10.835   5.135  72.381  1.00  0.00    -0.265 A  
HETATM   34  C   UNL     1     -11.587   6.273  72.071  1.00  0.00    -0.372 A  
HETATM   35  C   UNL     1     -11.714   6.685  70.751  1.00  0.00    -0.445 A  
HETATM   36  C   UNL     1     -11.058   5.983  69.745  1.00  0.00    -0.476 A  
HETATM   37  C   UNL     1     -10.289   4.855  70.053  1.00  0.00    -0.172 A  
HETATM   38 CL   UNL     1      -9.522   4.055  68.728  1.00  0.00    -0.227 Cl 
ENDBRANCH  31  32
ENDBRANCH  26  31
ENDBRANCH  25  26
ENDBRANCH  24  25
ENDBRANCH  21  24
ENDBRANCH  18  20
ENDBRANCH  15  16
ENDBRANCH  14  15
ENDBRANCH   3  14
ENDBRANCH   2   3
TORSDOF 15
ENDMDL
MODEL      285
REMARK 921   NORMALIZED FREE ENERGY PREDICTED BY IDOCK:   -3.68 KCAL/MOL
REMARK 922        TOTAL FREE ENERGY PREDICTED BY IDOCK:   -9.57 KCAL/MOL
REMARK 923 INTER-LIGAND FREE ENERGY PREDICTED BY IDOCK:   -7.96 KCAL/MOL
REMARK 924 INTRA-LIGAND FREE ENERGY PREDICTED BY IDOCK:   -1.61 KCAL/MOL
REMARK 927      BINDING AFFINITY PREDICTED BY RF-SCORE:    0.00 PKD
ROOT
HETATM    1  C   UNL     1     -11.866  16.163  63.973  1.00  0.00     0.404 C  
HETATM    2  C   UNL     1     -11.613  14.735  64.433  1.00  0.00    -0.295 C  
ENDROOT
BRANCH   2   3
HETATM    3  N   UNL     1     -10.965  14.584  65.845  1.00  0.00    -0.313 N  
BRANCH   3   4
HETATM    4  C   UNL     1     -10.465  15.968  66.351  1.00  0.00    -0.309 C  
HETATM    5  C   UNL     1      -8.973  16.182  66.312  1.00  0.00    -0.379 C  
ENDBRANCH   3   4
BRANCH   3   6
HETATM    6  C   UNL     1      -9.691  13.713  65.761  1.00  0.00    -0.140 C  
BRANCH   6   7
HETATM    7  C   UNL     1      -9.560  12.374  66.481  1.00  0.00    -0.242 A  
HETATM    8  C   UNL     1     -10.108   9.979  66.518  1.00  0.00    -0.296 A  
HETATM    9  C   UNL     1      -8.959  12.180  67.736  1.00  0.00    -0.179 A  
HETATM   10  C   UNL     1     -10.089  11.219  65.868  1.00  0.00    -0.245 A  
HETATM   11  C   UNL     1      -8.920  10.934  68.364  1.00  0.00    -0.154 A  
HETATM   12 CL   UNL     1     -10.778  11.299  64.282  1.00  0.00    -0.416 Cl 
HETATM   13  C   UNL     1      -9.517   9.837  67.768  1.00  0.00    -0.152 A  
ENDBRANCH   6   7
ENDBRANCH   3   6
BRANCH   3  14
HETATM   14  C   UNL     1     -12.079  13.938  66.764  1.00  0.00    -0.439 C  
BRANCH  14  15
HETATM   15  C   UNL     1     -12.068  14.340  68.280  1.00  0.00    -0.243 C  
BRANCH  15  16
HETATM   16  N   UNL     1     -12.071  13.272  69.269  1.00  0.00    -0.281 N  
HETATM   17  H   UNL     1     -11.592  12.393  69.077  1.00  0.00     0.000 HD 
HETATM   18  C   UNL     1     -12.732  13.459  70.480  1.00  0.00    -0.124 C  
HETATM   19  O   UNL     1     -13.158  14.537  70.859  1.00  0.00    -0.355 OA 
BRANCH  18  20
HETATM   20  C   UNL     1     -12.789  12.206  71.389  1.00  0.00    -0.276 C  
HETATM   21  N   UNL     1     -12.513  10.992  70.757  1.00  0.00    -0.374 N  
HETATM   22  O   UNL     1     -13.049  12.305  72.577  1.00  0.00    -0.254 OA 
HETATM   23  H   UNL     1     -12.598  10.899  69.745  1.00  0.00     0.000 HD 
BRANCH  21  24
HETATM   24  C   UNL     1     -12.100   9.861  71.579  1.00  0.00    -0.410 C  
BRANCH  24  25
HETATM   25  C   UNL     1     -11.430   8.691  70.807  1.00  0.00    -0.259 C  
BRANCH  25  26
HETATM   26  N   UNL     1     -11.395   7.346  71.572  1.00  0.00    -0.251 N  
BRANCH  26  27
HETATM   27  C   UNL     1     -10.040   7.185  72.322  1.00  0.00    -0.181 C  
HETATM   28  C   UNL     1     -10.134   7.189  73.842  1.00  0.00    -0.359 C  
ENDBRANCH  26  27
BRANCH  26  29
HETATM   29  C   UNL     1     -12.595   7.331  72.559  1.00  0.00     0.236 C  
HETATM   30  C   UNL     1     -13.930   6.933  71.955  1.00  0.00    -0.228 C  
ENDBRANCH  26  29
BRANCH  26  31
HETATM   31  C   UNL     1     -11.518   6.143  70.564  1.00  0.00    -0.260 C  
BRANCH  31  32
HETATM   32  C   UNL     1     -10.370   5.154  70.450  1.00  0.00    -0.326 A  
HETATM   33  C   UNL     1      -9.549   5.140  69.303  1.00  0.00    -0.223 A  
HETATM   34  C   UNL     1      -8.572   4.157  69.115  1.00  0.00    -0.112 A  
HETATM   35  C   UNL     1      -8.405   3.153  70.060  1.00  0.00    -0.079 A  
HETATM   36  C   UNL     1      -9.188   3.154  71.210  1.00  0.00    -0.193 A  
HETATM   37  C   UNL     1     -10.153   4.146  71.410  1.00  0.00    -0.097 A  
HETATM   38 CL   UNL     1     -11.073   4.050  72.869  1.00  0.00    -0.156 Cl 
ENDBRANCH  31  32
ENDBRANCH  26  31
ENDBRANCH  25  26
ENDBRANCH  24  25
ENDBRANCH  21  24
ENDBRANCH  18  20
ENDBRANCH  15  16
ENDBRANCH  14  15
ENDBRANCH   3  14
ENDBRANCH   2   3
TORSDOF 15
ENDMDL
MODEL      286
REMARK 921   NORMALIZED FREE ENERGY PREDICTED BY IDOCK:   -3.67 KCAL/MOL
REMARK 922        TOTAL FREE ENERGY PREDICTED BY IDOCK:   -9.55 KCAL/MOL
REMARK 923 INTER-LIGAND FREE ENERGY PREDICTED BY IDOCK:   -8.65 KCAL/MOL
REMARK 924 INTRA-LIGAND FREE ENERGY PREDICTED BY IDOCK:   -0.90 KCAL/MOL
REMARK 927      BINDING AFFINITY PREDICTED BY RF-SCORE:    0.00 PKD
ROOT
HETATM    1  C   UNL     1      -6.665  10.713  66.290  1.00  0.00    -0.129 C  
HETATM    2  C   UNL     1      -6.596   9.613  67.339  1.00  0.00    -0.070 C  
ENDROOT
BRANCH   2   3
HETATM    3  N   UNL     1      -7.485   9.827  68.603  1.00  0.00    -0.074 N  
BRANCH   3   4
HETATM    4  C   UNL     1      -7.003   8.901  69.757  1.00  0.00    -0.050 C  
HETATM    5  C   UNL     1      -6.595   7.507  69.352  1.00  0.00    -0.037 C  
ENDBRANCH   3   4
BRANCH   3   6
HETATM    6  C   UNL     1      -8.938   9.379  68.320  1.00  0.00    -0.128 C  
BRANCH   6   7
HETATM    7  C   UNL     1     -10.097   9.702  69.259  1.00  0.00    -0.201 A  
HETATM    8  C   UNL     1     -12.172  10.966  69.630  1.00  0.00    -0.354 A  
HETATM    9  C   UNL     1     -10.223   9.250  70.583  1.00  0.00    -0.335 A  
HETATM   10  C   UNL     1     -11.136  10.535  68.792  1.00  0.00    -0.265 A  
HETATM   11  C   UNL     1     -11.285   9.627  71.406  1.00  0.00    -0.426 A  
HETATM   12 CL   UNL     1     -11.152  11.092  67.153  1.00  0.00    -0.349 Cl 
HETATM   13  C   UNL     1     -12.246  10.506  70.940  1.00  0.00    -0.490 A  
ENDBRANCH   6   7
ENDBRANCH   3   6
BRANCH   3  14
HETATM   14  C   UNL     1      -7.385  11.369  68.945  1.00  0.00    -0.114 C  
BRANCH  14  15
HETATM   15  C   UNL     1      -6.321  11.790  70.017  1.00  0.00    -0.092 C  
BRANCH  15  16
HETATM   16  N   UNL     1      -6.046  13.209  70.187  1.00  0.00    -0.281 N  
HETATM   17  H   UNL     1      -5.604  13.547  71.042  1.00  0.00     0.000 HD 
HETATM   18  C   UNL     1      -6.389  14.102  69.176  1.00  0.00    -0.106 C  
HETATM   19  O   UNL     1      -6.738  13.757  68.059  1.00  0.00    -0.105 OA 
BRANCH  18  20
HETATM   20  C   UNL     1      -6.180  15.595  69.529  1.00  0.00    -0.152 C  
HETATM   21  N   UNL     1      -6.256  16.483  68.455  1.00  0.00    -0.125 N  
HETATM   22  O   UNL     1      -5.976  15.944  70.680  1.00  0.00    -0.030 OA 
HETATM   23  H   UNL     1      -6.126  16.158  67.497  1.00  0.00     0.000 HD 
BRANCH  21  24
HETATM   24  C   UNL     1      -6.527  17.888  68.735  1.00  0.00    -0.230 C  
BRANCH  24  25
HETATM   25  C   UNL     1      -8.005  18.327  68.553  1.00  0.00    -0.308 C  
BRANCH  25  26
HETATM   26  N   UNL     1      -8.491  18.379  67.084  1.00  0.00    -0.250 N  
BRANCH  26  27
HETATM   27  C   UNL     1      -9.824  19.177  66.982  1.00  0.00    -0.336 C  
HETATM   28  C   UNL     1     -10.387  19.673  68.306  1.00  0.00    -0.539 C  
ENDBRANCH  26  27
BRANCH  26  29
HETATM   29  C   UNL     1      -7.368  19.039  66.237  1.00  0.00    -0.260 C  
HETATM   30  C   UNL     1      -6.932  20.420  66.696  1.00  0.00    -0.306 C  
ENDBRANCH  26  29
BRANCH  26  31
HETATM   31  C   UNL     1      -8.774  16.925  66.552  1.00  0.00    -0.269 C  
BRANCH  31  32
HETATM   32  C   UNL     1      -9.871  16.100  67.204  1.00  0.00    -0.241 A  
HETATM   33  C   UNL     1      -9.859  15.865  68.595  1.00  0.00    -0.212 A  
HETATM   34  C   UNL     1     -10.781  15.003  69.198  1.00  0.00    -0.249 A  
HETATM   35  C   UNL     1     -11.724  14.341  68.424  1.00  0.00    -0.373 A  
HETATM   36  C   UNL     1     -11.771  14.568  67.052  1.00  0.00    -0.412 A  
HETATM   37  C   UNL     1     -10.863  15.445  66.447  1.00  0.00    -0.303 A  
HETATM   38 CL   UNL     1     -11.006  15.651  64.739  1.00  0.00    -0.450 Cl 
ENDBRANCH  31  32
ENDBRANCH  26  31
ENDBRANCH  25  26
ENDBRANCH  24  25
ENDBRANCH  21  24
ENDBRANCH  18  20
ENDBRANCH  15  16
ENDBRANCH  14  15
ENDBRANCH   3  14
ENDBRANCH   2   3
TORSDOF 15
ENDMDL
MODEL      287
REMARK 921   NORMALIZED FREE ENERGY PREDICTED BY IDOCK:   -3.67 KCAL/MOL
REMARK 922        TOTAL FREE ENERGY PREDICTED BY IDOCK:   -9.55 KCAL/MOL
REMARK 923 INTER-LIGAND FREE ENERGY PREDICTED BY IDOCK:   -6.55 KCAL/MOL
REMARK 924 INTRA-LIGAND FREE ENERGY PREDICTED BY IDOCK:   -3.00 KCAL/MOL
REMARK 927      BINDING AFFINITY PREDICTED BY RF-SCORE:    0.00 PKD
ROOT
HETATM    1  C   UNL     1      -7.521   9.005  62.331  1.00  0.00    -0.101 C  
HETATM    2  C   UNL     1      -7.443   9.681  63.692  1.00  0.00    -0.121 C  
ENDROOT
BRANCH   2   3
HETATM    3  N   UNL     1      -7.538   8.730  64.925  1.00  0.00    -0.095 N  
BRANCH   3   4
HETATM    4  C   UNL     1      -8.882   8.963  65.674  1.00  0.00    -0.191 C  
HETATM    5  C   UNL     1      -9.753  10.067  65.132  1.00  0.00    -0.380 C  
ENDBRANCH   3   4
BRANCH   3   6
HETATM    6  C   UNL     1      -6.445   9.081  65.961  1.00  0.00    -0.064 C  
BRANCH   6   7
HETATM    7  C   UNL     1      -6.749   9.287  67.441  1.00  0.00    -0.069 A  
HETATM    8  C   UNL     1      -6.824   8.312  69.696  1.00  0.00    -0.044 A  
HETATM    9  C   UNL     1      -7.310  10.445  68.003  1.00  0.00    -0.085 A  
HETATM   10  C   UNL     1      -6.468   8.239  68.344  1.00  0.00    -0.059 A  
HETATM   11  C   UNL     1      -7.612  10.548  69.362  1.00  0.00    -0.145 A  
HETATM   12 CL   UNL     1      -5.694   6.790  67.800  1.00  0.00    -0.018 Cl 
HETATM   13  C   UNL     1      -7.394   9.473  70.206  1.00  0.00    -0.135 A  
ENDBRANCH   6   7
ENDBRANCH   3   6
BRANCH   3  14
HETATM   14  C   UNL     1      -7.379   7.263  64.352  1.00  0.00    -0.085 C  
BRANCH  14  15
HETATM   15  C   UNL     1      -8.460   6.212  64.783  1.00  0.00    -0.005 C  
BRANCH  15  16
HETATM   16  N   UNL     1      -8.333   5.601  66.098  1.00  0.00    -0.117 N  
HETATM   17  H   UNL     1      -7.443   5.632  66.594  1.00  0.00     0.000 HD 
HETATM   18  C   UNL     1      -9.434   4.973  66.673  1.00  0.00    -0.146 C  
HETATM   19  O   UNL     1     -10.568   5.060  66.234  1.00  0.00    -0.304 OA 
BRANCH  18  20
HETATM   20  C   UNL     1      -9.139   4.236  68.004  1.00  0.00    -0.131 C  
HETATM   21  N   UNL     1      -8.576   5.021  69.012  1.00  0.00    -0.085 N  
HETATM   22  O   UNL     1      -9.402   3.053  68.137  1.00  0.00    -0.188 OA 
HETATM   23  H   UNL     1      -8.099   5.895  68.790  1.00  0.00     0.000 HD 
BRANCH  21  24
HETATM   24  C   UNL     1      -8.687   4.561  70.392  1.00  0.00    -0.082 C  
BRANCH  24  25
HETATM   25  C   UNL     1     -10.132   4.507  70.958  1.00  0.00    -0.152 C  
BRANCH  25  26
HETATM   26  N   UNL     1     -10.583   5.783  71.708  1.00  0.00    -0.231 N  
BRANCH  26  27
HETATM   27  C   UNL     1     -11.165   5.414  73.104  1.00  0.00    -0.297 C  
HETATM   28  C   UNL     1     -11.049   3.945  73.489  1.00  0.00    -0.342 C  
ENDBRANCH  26  27
BRANCH  26  29
HETATM   29  C   UNL     1      -9.349   6.718  71.837  1.00  0.00    -0.145 C  
HETATM   30  C   UNL     1      -9.059   7.225  73.238  1.00  0.00    -0.201 C  
ENDBRANCH  26  29
BRANCH  26  31
HETATM   31  C   UNL     1     -11.723   6.514  70.905  1.00  0.00    -0.356 C  
BRANCH  31  32
HETATM   32  C   UNL     1     -11.718   8.031  70.829  1.00  0.00    -0.215 A  
HETATM   33  C   UNL     1     -12.392   8.799  71.802  1.00  0.00    -0.412 A  
HETATM   34  C   UNL     1     -12.513  10.187  71.683  1.00  0.00    -0.506 A  
HETATM   35  C   UNL     1     -11.980  10.839  70.579  1.00  0.00    -0.456 A  
HETATM   36  C   UNL     1     -11.294  10.110  69.614  1.00  0.00    -0.289 A  
HETATM   37  C   UNL     1     -11.154   8.723  69.739  1.00  0.00    -0.073 A  
HETATM   38 CL   UNL     1     -10.287   7.915  68.482  1.00  0.00    -0.228 Cl 
ENDBRANCH  31  32
ENDBRANCH  26  31
ENDBRANCH  25  26
ENDBRANCH  24  25
ENDBRANCH  21  24
ENDBRANCH  18  20
ENDBRANCH  15  16
ENDBRANCH  14  15
ENDBRANCH   3  14
ENDBRANCH   2   3
TORSDOF 15
ENDMDL
MODEL      288
REMARK 921   NORMALIZED FREE ENERGY PREDICTED BY IDOCK:   -3.67 KCAL/MOL
REMARK 922        TOTAL FREE ENERGY PREDICTED BY IDOCK:   -9.54 KCAL/MOL
REMARK 923 INTER-LIGAND FREE ENERGY PREDICTED BY IDOCK:   -7.09 KCAL/MOL
REMARK 924 INTRA-LIGAND FREE ENERGY PREDICTED BY IDOCK:   -2.46 KCAL/MOL
REMARK 927      BINDING AFFINITY PREDICTED BY RF-SCORE:    0.00 PKD
ROOT
HETATM    1  C   UNL     1      -8.054  12.537  67.538  1.00  0.00    -0.176 C  
HETATM    2  C   UNL     1      -8.676  11.591  66.521  1.00  0.00    -0.183 C  
ENDROOT
BRANCH   2   3
HETATM    3  N   UNL     1      -9.684  10.548  67.097  1.00  0.00    -0.168 N  
BRANCH   3   4
HETATM    4  C   UNL     1      -9.505   9.180  66.377  1.00  0.00    -0.227 C  
HETATM    5  C   UNL     1      -8.953   9.243  64.976  1.00  0.00    -0.245 C  
ENDBRANCH   3   4
BRANCH   3   6
HETATM    6  C   UNL     1     -11.137  10.972  66.779  1.00  0.00    -0.172 C  
BRANCH   6   7
HETATM    7  C   UNL     1     -11.475  12.050  65.753  1.00  0.00    -0.377 A  
HETATM    8  C   UNL     1     -12.252  14.345  65.338  1.00  0.00    -0.362 A  
HETATM    9  C   UNL     1     -11.488  11.872  64.360  1.00  0.00    -0.393 A  
HETATM   10  C   UNL     1     -11.820  13.339  66.213  1.00  0.00    -0.395 A  
HETATM   11  C   UNL     1     -11.858  12.889  63.479  1.00  0.00    -0.605 A  
HETATM   12 CL   UNL     1     -11.760  13.721  67.899  1.00  0.00    -0.375 Cl 
HETATM   13  C   UNL     1     -12.265  14.118  63.967  1.00  0.00    -0.369 A  
ENDBRANCH   6   7
ENDBRANCH   3   6
BRANCH   3  14
HETATM   14  C   UNL     1      -9.400  10.487  68.653  1.00  0.00    -0.172 C  
BRANCH  14  15
HETATM   15  C   UNL     1     -10.538   9.901  69.559  1.00  0.00    -0.242 C  
BRANCH  15  16
HETATM   16  N   UNL     1     -10.400   8.530  70.027  1.00  0.00    -0.205 N  
HETATM   17  H   UNL     1     -10.680   7.753  69.429  1.00  0.00     0.000 HD 
HETATM   18  C   UNL     1      -9.884   8.285  71.297  1.00  0.00    -0.175 C  
HETATM   19  O   UNL     1      -9.355   9.139  71.987  1.00  0.00    -0.337 OA 
BRANCH  18  20
HETATM   20  C   UNL     1      -9.920   6.800  71.737  1.00  0.00    -0.174 C  
HETATM   21  N   UNL     1     -10.379   5.899  70.775  1.00  0.00    -0.220 N  
HETATM   22  O   UNL     1      -9.555   6.469  72.853  1.00  0.00    -0.149 OA 
HETATM   23  H   UNL     1     -10.946   6.217  69.989  1.00  0.00     0.000 HD 
BRANCH  21  24
HETATM   24  C   UNL     1     -10.028   4.492  70.920  1.00  0.00    -0.193 C  
BRANCH  24  25
HETATM   25  C   UNL     1      -8.606   4.109  70.427  1.00  0.00    -0.073 C  
BRANCH  25  26
HETATM   26  N   UNL     1      -8.548   3.552  68.984  1.00  0.00    -0.077 N  
BRANCH  26  27
HETATM   27  C   UNL     1      -7.070   3.309  68.556  1.00  0.00    -0.050 C  
HETATM   28  C   UNL     1      -6.083   3.131  69.701  1.00  0.00    -0.024 C  
ENDBRANCH  26  27
BRANCH  26  29
HETATM   29  C   UNL     1      -9.371   2.235  68.952  1.00  0.00    -0.144 C  
HETATM   30  C   UNL     1      -9.346   1.482  67.634  1.00  0.00    -0.133 C  
ENDBRANCH  26  29
BRANCH  26  31
HETATM   31  C   UNL     1      -9.163   4.590  67.974  1.00  0.00    -0.132 C  
BRANCH  31  32
HETATM   32  C   UNL     1      -8.263   5.227  66.929  1.00  0.00    -0.108 A  
HETATM   33  C   UNL     1      -8.197   4.698  65.622  1.00  0.00    -0.115 A  
HETATM   34  C   UNL     1      -7.281   5.183  64.683  1.00  0.00    -0.058 A  
HETATM   35  C   UNL     1      -6.396   6.194  65.032  1.00  0.00    -0.038 A  
HETATM   36  C   UNL     1      -6.452   6.748  66.307  1.00  0.00    -0.047 A  
HETATM   37  C   UNL     1      -7.380   6.279  67.244  1.00  0.00    -0.083 A  
HETATM   38 CL   UNL     1      -7.361   7.032  68.798  1.00  0.00    -0.091 Cl 
ENDBRANCH  31  32
ENDBRANCH  26  31
ENDBRANCH  25  26
ENDBRANCH  24  25
ENDBRANCH  21  24
ENDBRANCH  18  20
ENDBRANCH  15  16
ENDBRANCH  14  15
ENDBRANCH   3  14
ENDBRANCH   2   3
TORSDOF 15
ENDMDL
MODEL      289
REMARK 921   NORMALIZED FREE ENERGY PREDICTED BY IDOCK:   -3.66 KCAL/MOL
REMARK 922        TOTAL FREE ENERGY PREDICTED BY IDOCK:   -9.54 KCAL/MOL
REMARK 923 INTER-LIGAND FREE ENERGY PREDICTED BY IDOCK:   -8.01 KCAL/MOL
REMARK 924 INTRA-LIGAND FREE ENERGY PREDICTED BY IDOCK:   -1.52 KCAL/MOL
REMARK 927      BINDING AFFINITY PREDICTED BY RF-SCORE:    0.00 PKD
ROOT
HETATM    1  C   UNL     1     -10.269  19.369  68.140  1.00  0.00    -0.537 C  
HETATM    2  C   UNL     1     -10.372  18.219  69.131  1.00  0.00     0.034 C  
ENDROOT
BRANCH   2   3
HETATM    3  N   UNL     1     -10.015  16.808  68.570  1.00  0.00    -0.257 N  
BRANCH   3   4
HETATM    4  C   UNL     1     -11.147  16.308  67.627  1.00  0.00    -0.184 C  
HETATM    5  C   UNL     1     -10.698  15.517  66.424  1.00  0.00    -0.303 C  
ENDBRANCH   3   4
BRANCH   3   6
HETATM    6  C   UNL     1      -9.970  15.769  69.715  1.00  0.00    -0.250 C  
BRANCH   6   7
HETATM    7  C   UNL     1     -11.187  15.439  70.575  1.00  0.00    -0.358 A  
HETATM    8  C   UNL     1     -13.063  13.911  71.010  1.00  0.00    -0.313 A  
HETATM    9  C   UNL     1     -11.709  16.252  71.594  1.00  0.00    -0.490 A  
HETATM   10  C   UNL     1     -11.874  14.229  70.340  1.00  0.00    -0.305 A  
HETATM   11  C   UNL     1     -12.860  15.913  72.308  1.00  0.00    -0.503 A  
HETATM   12 CL   UNL     1     -11.288  13.092  69.175  1.00  0.00    -0.325 Cl 
HETATM   13  C   UNL     1     -13.552  14.756  71.999  1.00  0.00    -0.502 A  
ENDBRANCH   6   7
ENDBRANCH   3   6
BRANCH   3  14
HETATM   14  C   UNL     1      -8.616  16.972  67.849  1.00  0.00    -0.207 C  
BRANCH  14  15
HETATM   15  C   UNL     1      -7.390  16.249  68.507  1.00  0.00    -0.169 C  
BRANCH  15  16
HETATM   16  N   UNL     1      -7.219  14.826  68.252  1.00  0.00    -0.107 N  
HETATM   17  H   UNL     1      -7.389  14.448  67.320  1.00  0.00     0.000 HD 
HETATM   18  C   UNL     1      -6.821  13.984  69.286  1.00  0.00    -0.105 C  
HETATM   19  O   UNL     1      -6.416  14.385  70.365  1.00  0.00    -0.174 OA 
BRANCH  18  20
HETATM   20  C   UNL     1      -6.812  12.477  68.931  1.00  0.00    -0.098 C  
HETATM   21  N   UNL     1      -7.458  11.641  69.844  1.00  0.00     0.017 N  
HETATM   22  O   UNL     1      -6.279  12.077  67.910  1.00  0.00    -0.060 OA 
HETATM   23  H   UNL     1      -7.622  11.943  70.804  1.00  0.00     0.000 HD 
BRANCH  21  24
HETATM   24  C   UNL     1      -7.893  10.325  69.391  1.00  0.00    -0.157 C  
BRANCH  24  25
HETATM   25  C   UNL     1      -9.111   9.733  70.149  1.00  0.00    -0.197 C  
BRANCH  25  26
HETATM   26  N   UNL     1      -9.946   8.711  69.339  1.00  0.00    -0.192 N  
BRANCH  26  27
HETATM   27  C   UNL     1     -10.962   7.983  70.268  1.00  0.00    -0.242 C  
HETATM   28  C   UNL     1     -11.140   8.602  71.647  1.00  0.00    -0.375 C  
ENDBRANCH  26  27
BRANCH  26  29
HETATM   29  C   UNL     1     -10.671   9.487  68.204  1.00  0.00    -0.197 C  
HETATM   30  C   UNL     1     -10.527   8.893  66.814  1.00  0.00    -0.269 C  
ENDBRANCH  26  29
BRANCH  26  31
HETATM   31  C   UNL     1      -9.008   7.611  68.717  1.00  0.00    -0.133 C  
BRANCH  31  32
HETATM   32  C   UNL     1      -9.099   6.185  69.233  1.00  0.00    -0.129 A  
HETATM   33  C   UNL     1      -8.405   5.800  70.400  1.00  0.00    -0.121 A  
HETATM   34  C   UNL     1      -8.367   4.466  70.820  1.00  0.00    -0.089 A  
HETATM   35  C   UNL     1      -9.004   3.483  70.075  1.00  0.00    -0.171 A  
HETATM   36  C   UNL     1      -9.712   3.838  68.931  1.00  0.00    -0.091 A  
HETATM   37  C   UNL     1      -9.769   5.173  68.517  1.00  0.00    -0.149 A  
HETATM   38 CL   UNL     1     -10.670   5.502  67.081  1.00  0.00    -0.304 Cl 
ENDBRANCH  31  32
ENDBRANCH  26  31
ENDBRANCH  25  26
ENDBRANCH  24  25
ENDBRANCH  21  24
ENDBRANCH  18  20
ENDBRANCH  15  16
ENDBRANCH  14  15
ENDBRANCH   3  14
ENDBRANCH   2   3
TORSDOF 15
ENDMDL
MODEL      290
REMARK 921   NORMALIZED FREE ENERGY PREDICTED BY IDOCK:   -3.66 KCAL/MOL
REMARK 922        TOTAL FREE ENERGY PREDICTED BY IDOCK:   -9.53 KCAL/MOL
REMARK 923 INTER-LIGAND FREE ENERGY PREDICTED BY IDOCK:   -8.65 KCAL/MOL
REMARK 924 INTRA-LIGAND FREE ENERGY PREDICTED BY IDOCK:   -0.88 KCAL/MOL
REMARK 927      BINDING AFFINITY PREDICTED BY RF-SCORE:    0.00 PKD
ROOT
HETATM    1  C   UNL     1      -8.725  18.559  68.846  1.00  0.00    -0.178 C  
HETATM    2  C   UNL     1     -10.086  17.966  68.513  1.00  0.00    -0.391 C  
ENDROOT
BRANCH   2   3
HETATM    3  N   UNL     1     -10.119  16.993  67.294  1.00  0.00    -0.287 N  
BRANCH   3   4
HETATM    4  C   UNL     1     -10.260  17.800  65.971  1.00  0.00    -0.293 C  
HETATM    5  C   UNL     1     -10.720  19.228  66.119  1.00  0.00    -0.478 C  
ENDBRANCH   3   4
BRANCH   3   6
HETATM    6  C   UNL     1     -11.385  16.105  67.349  1.00  0.00     0.061 C  
BRANCH   6   7
HETATM    7  C   UNL     1     -11.645  15.110  68.476  1.00  0.00    -0.354 A  
HETATM    8  C   UNL     1     -11.847  12.758  69.157  1.00  0.00    -0.352 A  
HETATM    9  C   UNL     1     -12.025  15.446  69.786  1.00  0.00    -0.381 A  
HETATM   10  C   UNL     1     -11.514  13.731  68.207  1.00  0.00    -0.312 A  
HETATM   11  C   UNL     1     -12.299  14.481  70.756  1.00  0.00    -0.410 A  
HETATM   12 CL   UNL     1     -10.967  13.181  66.660  1.00  0.00    -0.291 Cl 
HETATM   13  C   UNL     1     -12.236  13.136  70.437  1.00  0.00    -0.389 A  
ENDBRANCH   6   7
ENDBRANCH   3   6
BRANCH   3  14
HETATM   14  C   UNL     1      -8.785  16.147  67.381  1.00  0.00    -0.180 C  
BRANCH  14  15
HETATM   15  C   UNL     1      -8.372  15.615  68.797  1.00  0.00    -0.189 C  
BRANCH  15  16
HETATM   16  N   UNL     1      -8.107  14.192  68.942  1.00  0.00    -0.296 N  
HETATM   17  H   UNL     1      -8.858  13.553  69.202  1.00  0.00     0.000 HD 
HETATM   18  C   UNL     1      -6.821  13.706  68.722  1.00  0.00    -0.107 C  
HETATM   19  O   UNL     1      -5.924  14.367  68.227  1.00  0.00    -0.099 OA 
BRANCH  18  20
HETATM   20  C   UNL     1      -6.630  12.203  69.046  1.00  0.00    -0.100 C  
HETATM   21  N   UNL     1      -7.801  11.493  69.314  1.00  0.00    -0.360 N  
HETATM   22  O   UNL     1      -5.519  11.699  69.048  1.00  0.00    -0.050 OA 
HETATM   23  H   UNL     1      -8.653  11.977  69.599  1.00  0.00     0.000 HD 
BRANCH  21  24
HETATM   24  C   UNL     1      -7.779  10.042  69.177  1.00  0.00    -0.104 C  
BRANCH  24  25
HETATM   25  C   UNL     1      -9.172   9.355  69.171  1.00  0.00    -0.155 C  
BRANCH  25  26
HETATM   26  N   UNL     1      -9.136   7.817  69.006  1.00  0.00    -0.145 N  
BRANCH  26  27
HETATM   27  C   UNL     1      -9.079   7.436  67.497  1.00  0.00    -0.125 C  
HETATM   28  C   UNL     1      -9.821   8.379  66.560  1.00  0.00    -0.338 C  
ENDBRANCH  26  27
BRANCH  26  29
HETATM   29  C   UNL     1      -7.892   7.287  69.772  1.00  0.00    -0.117 C  
HETATM   30  C   UNL     1      -7.237   6.053  69.177  1.00  0.00    -0.082 C  
ENDBRANCH  26  29
BRANCH  26  31
HETATM   31  C   UNL     1     -10.443   7.174  69.602  1.00  0.00    -0.229 C  
BRANCH  31  32
HETATM   32  C   UNL     1     -10.481   6.810  71.077  1.00  0.00    -0.237 A  
HETATM   33  C   UNL     1     -10.718   7.801  72.053  1.00  0.00    -0.282 A  
HETATM   34  C   UNL     1     -10.627   7.517  73.420  1.00  0.00    -0.409 A  
HETATM   35  C   UNL     1     -10.278   6.242  73.843  1.00  0.00    -0.307 A  
HETATM   36  C   UNL     1     -10.058   5.241  72.903  1.00  0.00    -0.203 A  
HETATM   37  C   UNL     1     -10.166   5.515  71.536  1.00  0.00    -0.212 A  
HETATM   38 CL   UNL     1      -9.868   4.202  70.455  1.00  0.00    -0.268 Cl 
ENDBRANCH  31  32
ENDBRANCH  26  31
ENDBRANCH  25  26
ENDBRANCH  24  25
ENDBRANCH  21  24
ENDBRANCH  18  20
ENDBRANCH  15  16
ENDBRANCH  14  15
ENDBRANCH   3  14
ENDBRANCH   2   3
TORSDOF 15
ENDMDL
MODEL      291
REMARK 921   NORMALIZED FREE ENERGY PREDICTED BY IDOCK:   -3.65 KCAL/MOL
REMARK 922        TOTAL FREE ENERGY PREDICTED BY IDOCK:   -9.50 KCAL/MOL
REMARK 923 INTER-LIGAND FREE ENERGY PREDICTED BY IDOCK:   -8.87 KCAL/MOL
REMARK 924 INTRA-LIGAND FREE ENERGY PREDICTED BY IDOCK:   -0.64 KCAL/MOL
REMARK 927      BINDING AFFINITY PREDICTED BY RF-SCORE:    0.00 PKD
ROOT
HETATM    1  C   UNL     1      -9.838  13.025  64.664  1.00  0.00    -0.028 C  
HETATM    2  C   UNL     1     -10.005  13.075  66.176  1.00  0.00    -0.278 C  
ENDROOT
BRANCH   2   3
HETATM    3  N   UNL     1     -11.476  13.149  66.691  1.00  0.00    -0.331 N  
BRANCH   3   4
HETATM    4  C   UNL     1     -12.428  13.556  65.529  1.00  0.00    -0.491 C  
HETATM    5  C   UNL     1     -12.744  12.472  64.529  1.00  0.00    -0.440 C  
ENDBRANCH   3   4
BRANCH   3   6
HETATM    6  C   UNL     1     -11.624  14.281  67.735  1.00  0.00    -0.354 C  
BRANCH   6   7
HETATM    7  C   UNL     1     -11.083  15.689  67.504  1.00  0.00    -0.289 A  
HETATM    8  C   UNL     1     -10.522  17.877  68.472  1.00  0.00    -0.312 A  
HETATM    9  C   UNL     1     -10.752  16.239  66.255  1.00  0.00    -0.185 A  
HETATM   10  C   UNL     1     -10.905  16.538  68.617  1.00  0.00    -0.345 A  
HETATM   11  C   UNL     1     -10.311  17.556  66.110  1.00  0.00    -0.330 A  
HETATM   12 CL   UNL     1     -11.191  15.959  70.223  1.00  0.00    -0.355 Cl 
HETATM   13  C   UNL     1     -10.221  18.384  67.214  1.00  0.00    -0.396 A  
ENDBRANCH   6   7
ENDBRANCH   3   6
BRANCH   3  14
HETATM   14  C   UNL     1     -11.793  11.723  67.299  1.00  0.00    -0.108 C  
BRANCH  14  15
HETATM   15  C   UNL     1     -11.180  11.399  68.705  1.00  0.00    -0.247 C  
BRANCH  15  16
HETATM   16  N   UNL     1     -11.111  10.004  69.116  1.00  0.00    -0.328 N  
HETATM   17  H   UNL     1     -10.760   9.296  68.471  1.00  0.00     0.000 HD 
HETATM   18  C   UNL     1     -11.527   9.642  70.394  1.00  0.00    -0.263 C  
HETATM   19  O   UNL     1     -11.774  10.446  71.277  1.00  0.00    -0.338 OA 
BRANCH  18  20
HETATM   20  C   UNL     1     -11.543   8.117  70.664  1.00  0.00    -0.194 C  
HETATM   21  N   UNL     1     -11.511   7.305  69.529  1.00  0.00    -0.492 N  
HETATM   22  O   UNL     1     -11.570   7.683  71.804  1.00  0.00    -0.255 OA 
HETATM   23  H   UNL     1     -11.789   7.670  68.617  1.00  0.00     0.000 HD 
BRANCH  21  24
HETATM   24  C   UNL     1     -11.071   5.923  69.677  1.00  0.00    -0.343 C  
BRANCH  24  25
HETATM   25  C   UNL     1      -9.552   5.685  69.459  1.00  0.00    -0.147 C  
BRANCH  25  26
HETATM   26  N   UNL     1      -9.125   5.535  67.979  1.00  0.00    -0.108 N  
BRANCH  26  27
HETATM   27  C   UNL     1      -8.561   4.106  67.720  1.00  0.00    -0.100 C  
HETATM   28  C   UNL     1      -9.003   3.043  68.715  1.00  0.00    -0.189 C  
ENDBRANCH  26  27
BRANCH  26  29
HETATM   29  C   UNL     1     -10.371   5.821  67.095  1.00  0.00    -0.240 C  
HETATM   30  C   UNL     1     -10.603   4.842  65.958  1.00  0.00    -0.312 C  
ENDBRANCH  26  29
BRANCH  26  31
HETATM   31  C   UNL     1      -7.981   6.559  67.635  1.00  0.00    -0.114 C  
BRANCH  31  32
HETATM   32  C   UNL     1      -8.159   7.497  66.453  1.00  0.00    -0.114 A  
HETATM   33  C   UNL     1      -8.828   8.729  66.612  1.00  0.00    -0.153 A  
HETATM   34  C   UNL     1      -9.120   9.549  65.516  1.00  0.00    -0.262 A  
HETATM   35  C   UNL     1      -8.769   9.147  64.234  1.00  0.00    -0.180 A  
HETATM   36  C   UNL     1      -8.092   7.946  64.051  1.00  0.00    -0.078 A  
HETATM   37  C   UNL     1      -7.780   7.132  65.146  1.00  0.00    -0.116 A  
HETATM   38 CL   UNL     1      -6.942   5.661  64.806  1.00  0.00    -0.051 Cl 
ENDBRANCH  31  32
ENDBRANCH  26  31
ENDBRANCH  25  26
ENDBRANCH  24  25
ENDBRANCH  21  24
ENDBRANCH  18  20
ENDBRANCH  15  16
ENDBRANCH  14  15
ENDBRANCH   3  14
ENDBRANCH   2   3
TORSDOF 15
ENDMDL
MODEL      292
REMARK 921   NORMALIZED FREE ENERGY PREDICTED BY IDOCK:   -3.63 KCAL/MOL
REMARK 922        TOTAL FREE ENERGY PREDICTED BY IDOCK:   -9.47 KCAL/MOL
REMARK 923 INTER-LIGAND FREE ENERGY PREDICTED BY IDOCK:   -7.40 KCAL/MOL
REMARK 924 INTRA-LIGAND FREE ENERGY PREDICTED BY IDOCK:   -2.07 KCAL/MOL
REMARK 927      BINDING AFFINITY PREDICTED BY RF-SCORE:    0.00 PKD
ROOT
HETATM    1  C   UNL     1     -10.472  14.780  65.094  1.00  0.00    -0.443 C  
HETATM    2  C   UNL     1     -10.999  13.446  65.601  1.00  0.00    -0.281 C  
ENDROOT
BRANCH   2   3
HETATM    3  N   UNL     1     -10.050  12.664  66.561  1.00  0.00    -0.243 N  
BRANCH   3   4
HETATM    4  C   UNL     1     -10.742  12.451  67.939  1.00  0.00    -0.220 C  
HETATM    5  C   UNL     1     -11.949  13.315  68.207  1.00  0.00    -0.338 C  
ENDBRANCH   3   4
BRANCH   3   6
HETATM    6  C   UNL     1      -8.793  13.508  66.879  1.00  0.00    -0.182 C  
BRANCH   6   7
HETATM    7  C   UNL     1      -7.822  13.149  68.000  1.00  0.00    -0.147 A  
HETATM    8  C   UNL     1      -6.282  13.945  69.742  1.00  0.00    -0.136 A  
HETATM    9  C   UNL     1      -7.409  11.848  68.333  1.00  0.00    -0.095 A  
HETATM   10  C   UNL     1      -7.265  14.188  68.774  1.00  0.00    -0.120 A  
HETATM   11  C   UNL     1      -6.474  11.593  69.338  1.00  0.00    -0.113 A  
HETATM   12 CL   UNL     1      -7.753  15.830  68.529  1.00  0.00    -0.131 Cl 
HETATM   13  C   UNL     1      -5.890  12.642  70.026  1.00  0.00    -0.151 A  
ENDBRANCH   6   7
ENDBRANCH   3   6
BRANCH   3  14
HETATM   14  C   UNL     1      -9.697  11.314  65.815  1.00  0.00    -0.227 C  
BRANCH  14  15
HETATM   15  C   UNL     1     -10.407  10.014  66.327  1.00  0.00    -0.165 C  
BRANCH  15  16
HETATM   16  N   UNL     1      -9.716   9.203  67.319  1.00  0.00    -0.163 N  
HETATM   17  H   UNL     1      -8.983   9.615  67.897  1.00  0.00     0.000 HD 
HETATM   18  C   UNL     1     -10.061   7.864  67.475  1.00  0.00    -0.213 C  
HETATM   19  O   UNL     1     -11.045   7.356  66.964  1.00  0.00    -0.268 OA 
BRANCH  18  20
HETATM   20  C   UNL     1      -9.162   7.071  68.455  1.00  0.00    -0.137 C  
HETATM   21  N   UNL     1      -9.839   6.289  69.393  1.00  0.00    -0.150 N  
HETATM   22  O   UNL     1      -7.946   7.136  68.382  1.00  0.00    -0.119 OA 
HETATM   23  H   UNL     1     -10.813   6.479  69.627  1.00  0.00     0.000 HD 
BRANCH  21  24
HETATM   24  C   UNL     1      -9.119   5.192  70.029  1.00  0.00    -0.123 C  
BRANCH  24  25
HETATM   25  C   UNL     1      -8.316   5.576  71.301  1.00  0.00    -0.126 C  
BRANCH  25  26
HETATM   26  N   UNL     1      -9.051   5.312  72.637  1.00  0.00    -0.135 N  
BRANCH  26  27
HETATM   27  C   UNL     1     -10.409   4.596  72.376  1.00  0.00    -0.199 C  
HETATM   28  C   UNL     1     -11.154   4.140  73.623  1.00  0.00    -0.337 C  
ENDBRANCH  26  27
BRANCH  26  29
HETATM   29  C   UNL     1      -8.117   4.449  73.529  1.00  0.00    -0.094 C  
HETATM   30  C   UNL     1      -6.696   4.285  73.018  1.00  0.00    -0.051 C  
ENDBRANCH  26  29
BRANCH  26  31
HETATM   31  C   UNL     1      -9.371   6.673  73.362  1.00  0.00    -0.137 C  
BRANCH  31  32
HETATM   32  C   UNL     1     -10.122   7.754  72.604  1.00  0.00    -0.320 A  
HETATM   33  C   UNL     1     -11.530   7.720  72.516  1.00  0.00    -0.428 A  
HETATM   34  C   UNL     1     -12.235   8.627  71.717  1.00  0.00    -0.403 A  
HETATM   35  C   UNL     1     -11.549   9.576  70.971  1.00  0.00    -0.419 A  
HETATM   36  C   UNL     1     -10.162   9.644  71.054  1.00  0.00    -0.252 A  
HETATM   37  C   UNL     1      -9.454   8.752  71.867  1.00  0.00    -0.292 A  
HETATM   38 CL   UNL     1      -7.736   8.922  71.892  1.00  0.00    -0.044 Cl 
ENDBRANCH  31  32
ENDBRANCH  26  31
ENDBRANCH  25  26
ENDBRANCH  24  25
ENDBRANCH  21  24
ENDBRANCH  18  20
ENDBRANCH  15  16
ENDBRANCH  14  15
ENDBRANCH   3  14
ENDBRANCH   2   3
TORSDOF 15
ENDMDL
MODEL      293
REMARK 921   NORMALIZED FREE ENERGY PREDICTED BY IDOCK:   -3.62 KCAL/MOL
REMARK 922        TOTAL FREE ENERGY PREDICTED BY IDOCK:   -9.46 KCAL/MOL
REMARK 923 INTER-LIGAND FREE ENERGY PREDICTED BY IDOCK:   -7.46 KCAL/MOL
REMARK 924 INTRA-LIGAND FREE ENERGY PREDICTED BY IDOCK:   -2.00 KCAL/MOL
REMARK 927      BINDING AFFINITY PREDICTED BY RF-SCORE:    0.00 PKD
ROOT
HETATM    1  C   UNL     1      -7.525  12.658  67.323  1.00  0.00    -0.111 C  
HETATM    2  C   UNL     1      -8.163  11.552  66.496  1.00  0.00    -0.129 C  
ENDROOT
BRANCH   2   3
HETATM    3  N   UNL     1      -8.973  10.488  67.299  1.00  0.00    -0.139 N  
BRANCH   3   4
HETATM    4  C   UNL     1      -8.607   9.057  66.809  1.00  0.00    -0.123 C  
HETATM    5  C   UNL     1      -8.423   8.900  65.321  1.00  0.00    -0.185 C  
ENDBRANCH   3   4
BRANCH   3   6
HETATM    6  C   UNL     1     -10.485  10.629  67.006  1.00  0.00    -0.243 C  
BRANCH   6   7
HETATM    7  C   UNL     1     -11.030  11.542  65.911  1.00  0.00    -0.301 A  
HETATM    8  C   UNL     1     -12.334  13.546  65.342  1.00  0.00    -0.517 A  
HETATM    9  C   UNL     1     -10.929  11.306  64.530  1.00  0.00    -0.301 A  
HETATM   10  C   UNL     1     -11.709  12.720  66.286  1.00  0.00    -0.402 A  
HETATM   11  C   UNL     1     -11.497  12.158  63.581  1.00  0.00    -0.566 A  
HETATM   12 CL   UNL     1     -11.830  13.178  67.950  1.00  0.00    -0.393 Cl 
HETATM   13  C   UNL     1     -12.222  13.264  63.986  1.00  0.00    -0.475 A  
ENDBRANCH   6   7
ENDBRANCH   3   6
BRANCH   3  14
HETATM   14  C   UNL     1      -8.628  10.743  68.822  1.00  0.00    -0.156 C  
BRANCH  14  15
HETATM   15  C   UNL     1      -9.338   9.822  69.874  1.00  0.00    -0.231 C  
BRANCH  15  16
HETATM   16  N   UNL     1      -8.632   8.633  70.327  1.00  0.00    -0.133 N  
HETATM   17  H   UNL     1      -8.955   7.707  70.047  1.00  0.00     0.000 HD 
HETATM   18  C   UNL     1      -7.514   8.766  71.145  1.00  0.00    -0.101 C  
HETATM   19  O   UNL     1      -6.958   9.829  71.363  1.00  0.00    -0.319 OA 
BRANCH  18  20
HETATM   20  C   UNL     1      -6.936   7.431  71.678  1.00  0.00    -0.058 C  
HETATM   21  N   UNL     1      -7.874   6.427  71.926  1.00  0.00    -0.100 N  
HETATM   22  O   UNL     1      -5.736   7.292  71.849  1.00  0.00    -0.036 OA 
HETATM   23  H   UNL     1      -8.859   6.654  72.064  1.00  0.00     0.000 HD 
BRANCH  21  24
HETATM   24  C   UNL     1      -7.412   5.045  71.982  1.00  0.00    -0.091 C  
BRANCH  24  25
HETATM   25  C   UNL     1      -7.152   4.377  70.604  1.00  0.00    -0.041 C  
BRANCH  25  26
HETATM   26  N   UNL     1      -7.692   2.932  70.472  1.00  0.00    -0.043 N  
BRANCH  26  27
HETATM   27  C   UNL     1      -6.754   2.084  69.564  1.00  0.00    -0.033 C  
HETATM   28  C   UNL     1      -5.638   2.861  68.878  1.00  0.00    -0.021 C  
ENDBRANCH  26  27
BRANCH  26  29
HETATM   29  C   UNL     1      -7.793   2.332  71.901  1.00  0.00    -0.045 C  
HETATM   30  C   UNL     1      -9.173   1.847  72.309  1.00  0.00    -0.124 C  
ENDBRANCH  26  29
BRANCH  26  31
HETATM   31  C   UNL     1      -9.114   2.942  69.797  1.00  0.00    -0.127 C  
BRANCH  31  32
HETATM   32  C   UNL     1      -9.658   4.246  69.237  1.00  0.00    -0.261 A  
HETATM   33  C   UNL     1     -10.419   5.111  70.051  1.00  0.00    -0.305 A  
HETATM   34  C   UNL     1     -11.040   6.250  69.526  1.00  0.00    -0.476 A  
HETATM   35  C   UNL     1     -10.931   6.540  68.173  1.00  0.00    -0.365 A  
HETATM   36  C   UNL     1     -10.170   5.715  67.351  1.00  0.00    -0.249 A  
HETATM   37  C   UNL     1      -9.531   4.586  67.875  1.00  0.00    -0.155 A  
HETATM   38 CL   UNL     1      -8.616   3.627  66.768  1.00  0.00    -0.106 Cl 
ENDBRANCH  31  32
ENDBRANCH  26  31
ENDBRANCH  25  26
ENDBRANCH  24  25
ENDBRANCH  21  24
ENDBRANCH  18  20
ENDBRANCH  15  16
ENDBRANCH  14  15
ENDBRANCH   3  14
ENDBRANCH   2   3
TORSDOF 15
ENDMDL
MODEL      294
REMARK 921   NORMALIZED FREE ENERGY PREDICTED BY IDOCK:   -3.61 KCAL/MOL
REMARK 922        TOTAL FREE ENERGY PREDICTED BY IDOCK:   -9.43 KCAL/MOL
REMARK 923 INTER-LIGAND FREE ENERGY PREDICTED BY IDOCK:   -8.43 KCAL/MOL
REMARK 924 INTRA-LIGAND FREE ENERGY PREDICTED BY IDOCK:   -1.00 KCAL/MOL
REMARK 927      BINDING AFFINITY PREDICTED BY RF-SCORE:    0.00 PKD
ROOT
HETATM    1  C   UNL     1     -10.296  15.725  65.548  1.00  0.00    -0.430 C  
HETATM    2  C   UNL     1     -10.018  14.244  65.334  1.00  0.00    -0.303 C  
ENDROOT
BRANCH   2   3
HETATM    3  N   UNL     1     -10.633  13.281  66.396  1.00  0.00    -0.281 N  
BRANCH   3   4
HETATM    4  C   UNL     1     -11.513  12.206  65.694  1.00  0.00    -0.355 C  
HETATM    5  C   UNL     1     -10.951  11.628  64.419  1.00  0.00    -0.399 C  
ENDBRANCH   3   4
BRANCH   3   6
HETATM    6  C   UNL     1     -11.610  14.048  67.317  1.00  0.00    -0.369 C  
BRANCH   6   7
HETATM    7  C   UNL     1     -11.973  13.564  68.718  1.00  0.00    -0.374 A  
HETATM    8  C   UNL     1     -12.267  14.124  71.092  1.00  0.00    -0.435 A  
HETATM    9  C   UNL     1     -12.228  12.230  69.077  1.00  0.00    -0.047 A  
HETATM   10  C   UNL     1     -12.052  14.509  69.763  1.00  0.00    -0.331 A  
HETATM   11  C   UNL     1     -12.504  11.848  70.391  1.00  0.00    -0.252 A  
HETATM   12 CL   UNL     1     -11.846  16.197  69.444  1.00  0.00    -0.230 Cl 
HETATM   13  C   UNL     1     -12.498  12.790  71.404  1.00  0.00    -0.224 A  
ENDBRANCH   6   7
ENDBRANCH   3   6
BRANCH   3  14
HETATM   14  C   UNL     1      -9.406  12.674  67.189  1.00  0.00    -0.210 C  
BRANCH  14  15
HETATM   15  C   UNL     1      -9.399  11.121  67.407  1.00  0.00    -0.164 C  
BRANCH  15  16
HETATM   16  N   UNL     1      -9.008  10.616  68.715  1.00  0.00    -0.165 N  
HETATM   17  H   UNL     1      -8.568  11.237  69.394  1.00  0.00     0.000 HD 
HETATM   18  C   UNL     1      -9.239   9.281  69.034  1.00  0.00    -0.144 C  
HETATM   19  O   UNL     1      -9.927   8.534  68.359  1.00  0.00    -0.175 OA 
BRANCH  18  20
HETATM   20  C   UNL     1      -8.652   8.827  70.394  1.00  0.00    -0.163 C  
HETATM   21  N   UNL     1      -9.433   9.120  71.513  1.00  0.00    -0.239 N  
HETATM   22  O   UNL     1      -7.582   8.245  70.450  1.00  0.00    -0.071 OA 
HETATM   23  H   UNL     1     -10.146   9.849  71.478  1.00  0.00     0.000 HD 
BRANCH  21  24
HETATM   24  C   UNL     1      -9.205   8.358  72.735  1.00  0.00    -0.241 C  
BRANCH  24  25
HETATM   25  C   UNL     1     -10.418   7.523  73.231  1.00  0.00    -0.371 C  
BRANCH  25  26
HETATM   26  N   UNL     1     -10.440   6.056  72.738  1.00  0.00    -0.206 N  
BRANCH  26  27
HETATM   27  C   UNL     1     -10.729   5.090  73.924  1.00  0.00    -0.299 C  
HETATM   28  C   UNL     1     -11.340   3.750  73.538  1.00  0.00    -0.245 C  
ENDBRANCH  26  27
BRANCH  26  29
HETATM   29  C   UNL     1     -11.530   5.944  71.637  1.00  0.00    -0.172 C  
HETATM   30  C   UNL     1     -12.493   7.115  71.551  1.00  0.00    -0.418 C  
ENDBRANCH  26  29
BRANCH  26  31
HETATM   31  C   UNL     1      -9.038   5.660  72.142  1.00  0.00    -0.140 C  
BRANCH  31  32
HETATM   32  C   UNL     1      -8.982   4.737  70.936  1.00  0.00    -0.160 A  
HETATM   33  C   UNL     1      -9.708   5.042  69.766  1.00  0.00    -0.266 A  
HETATM   34  C   UNL     1      -9.778   4.146  68.694  1.00  0.00    -0.157 A  
HETATM   35  C   UNL     1      -9.140   2.915  68.775  1.00  0.00    -0.212 A  
HETATM   36  C   UNL     1      -8.401   2.596  69.909  1.00  0.00    -0.074 A  
HETATM   37  C   UNL     1      -8.313   3.497  70.975  1.00  0.00    -0.066 A  
HETATM   38 CL   UNL     1      -7.374   2.998  72.336  1.00  0.00    -0.046 Cl 
ENDBRANCH  31  32
ENDBRANCH  26  31
ENDBRANCH  25  26
ENDBRANCH  24  25
ENDBRANCH  21  24
ENDBRANCH  18  20
ENDBRANCH  15  16
ENDBRANCH  14  15
ENDBRANCH   3  14
ENDBRANCH   2   3
TORSDOF 15
ENDMDL
MODEL      295
REMARK 921   NORMALIZED FREE ENERGY PREDICTED BY IDOCK:   -3.61 KCAL/MOL
REMARK 922        TOTAL FREE ENERGY PREDICTED BY IDOCK:   -9.43 KCAL/MOL
REMARK 923 INTER-LIGAND FREE ENERGY PREDICTED BY IDOCK:   -7.94 KCAL/MOL
REMARK 924 INTRA-LIGAND FREE ENERGY PREDICTED BY IDOCK:   -1.49 KCAL/MOL
REMARK 927      BINDING AFFINITY PREDICTED BY RF-SCORE:    0.00 PKD
ROOT
HETATM    1  C   UNL     1      -8.132   8.087  74.034  1.00  0.00    -0.303 C  
HETATM    2  C   UNL     1      -8.696   7.738  72.664  1.00  0.00    -0.146 C  
ENDROOT
BRANCH   2   3
HETATM    3  N   UNL     1     -10.079   7.016  72.667  1.00  0.00    -0.175 N  
BRANCH   3   4
HETATM    4  C   UNL     1     -11.220   8.051  72.893  1.00  0.00    -0.322 C  
HETATM    5  C   UNL     1     -12.440   7.883  72.024  1.00  0.00    -0.338 C  
ENDBRANCH   3   4
BRANCH   3   6
HETATM    6  C   UNL     1     -10.180   6.050  73.871  1.00  0.00    -0.266 C  
BRANCH   6   7
HETATM    7  C   UNL     1     -10.134   4.533  73.716  1.00  0.00    -0.210 A  
HETATM    8  C   UNL     1      -8.752   2.520  73.437  1.00  0.00    -0.074 A  
HETATM    9  C   UNL     1     -11.253   3.695  73.577  1.00  0.00    -0.285 A  
HETATM   10  C   UNL     1      -8.878   3.892  73.690  1.00  0.00    -0.092 A  
HETATM   11  C   UNL     1     -11.137   2.317  73.386  1.00  0.00    -0.297 A  
HETATM   12 CL   UNL     1      -7.421   4.793  73.938  1.00  0.00    -0.085 Cl 
HETATM   13  C   UNL     1      -9.887   1.732  73.289  1.00  0.00    -0.133 A  
ENDBRANCH   6   7
ENDBRANCH   3   6
BRANCH   3  14
HETATM   14  C   UNL     1     -10.175   6.262  71.279  1.00  0.00    -0.200 C  
BRANCH  14  15
HETATM   15  C   UNL     1      -9.219   6.754  70.137  1.00  0.00    -0.155 C  
BRANCH  15  16
HETATM   16  N   UNL     1      -9.810   7.453  69.005  1.00  0.00    -0.164 N  
HETATM   17  H   UNL     1     -10.185   6.927  68.216  1.00  0.00     0.000 HD 
HETATM   18  C   UNL     1      -9.863   8.844  69.007  1.00  0.00    -0.180 C  
HETATM   19  O   UNL     1      -9.616   9.528  69.985  1.00  0.00    -0.206 OA 
BRANCH  18  20
HETATM   20  C   UNL     1     -10.381   9.476  67.690  1.00  0.00    -0.244 C  
HETATM   21  N   UNL     1     -10.828  10.794  67.793  1.00  0.00    -0.247 N  
HETATM   22  O   UNL     1     -10.375   8.844  66.648  1.00  0.00    -0.271 OA 
HETATM   23  H   UNL     1     -11.100  11.186  68.694  1.00  0.00     0.000 HD 
BRANCH  21  24
HETATM   24  C   UNL     1     -10.895  11.599  66.579  1.00  0.00    -0.284 C  
BRANCH  24  25
HETATM   25  C   UNL     1     -10.021  12.883  66.586  1.00  0.00    -0.251 C  
BRANCH  25  26
HETATM   26  N   UNL     1     -10.805  14.201  66.799  1.00  0.00    -0.293 N  
BRANCH  26  27
HETATM   27  C   UNL     1     -11.054  14.910  65.436  1.00  0.00    -0.364 C  
HETATM   28  C   UNL     1     -12.258  14.406  64.652  1.00  0.00    -0.479 C  
ENDBRANCH  26  27
BRANCH  26  29
HETATM   29  C   UNL     1     -12.142  13.846  67.507  1.00  0.00    -0.331 C  
HETATM   30  C   UNL     1     -12.148  14.023  69.015  1.00  0.00    -0.358 C  
ENDBRANCH  26  29
BRANCH  26  31
HETATM   31  C   UNL     1      -9.972  15.190  67.697  1.00  0.00    -0.229 C  
BRANCH  31  32
HETATM   32  C   UNL     1      -8.499  14.908  67.938  1.00  0.00    -0.154 A  
HETATM   33  C   UNL     1      -8.099  14.006  68.946  1.00  0.00    -0.001 A  
HETATM   34  C   UNL     1      -6.751  13.829  69.275  1.00  0.00    -0.101 A  
HETATM   35  C   UNL     1      -5.772  14.563  68.618  1.00  0.00    -0.092 A  
HETATM   36  C   UNL     1      -6.137  15.445  67.607  1.00  0.00    -0.151 A  
HETATM   37  C   UNL     1      -7.483  15.611  67.261  1.00  0.00    -0.222 A  
HETATM   38 CL   UNL     1      -7.825  16.735  65.995  1.00  0.00    -0.233 Cl 
ENDBRANCH  31  32
ENDBRANCH  26  31
ENDBRANCH  25  26
ENDBRANCH  24  25
ENDBRANCH  21  24
ENDBRANCH  18  20
ENDBRANCH  15  16
ENDBRANCH  14  15
ENDBRANCH   3  14
ENDBRANCH   2   3
TORSDOF 15
ENDMDL
MODEL      296
REMARK 921   NORMALIZED FREE ENERGY PREDICTED BY IDOCK:   -3.60 KCAL/MOL
REMARK 922        TOTAL FREE ENERGY PREDICTED BY IDOCK:   -9.41 KCAL/MOL
REMARK 923 INTER-LIGAND FREE ENERGY PREDICTED BY IDOCK:   -8.03 KCAL/MOL
REMARK 924 INTRA-LIGAND FREE ENERGY PREDICTED BY IDOCK:   -1.38 KCAL/MOL
REMARK 927      BINDING AFFINITY PREDICTED BY RF-SCORE:    0.00 PKD
ROOT
HETATM    1  C   UNL     1      -8.644   8.310  72.069  1.00  0.00    -0.238 C  
HETATM    2  C   UNL     1      -9.539   7.954  70.891  1.00  0.00    -0.161 C  
ENDROOT
BRANCH   2   3
HETATM    3  N   UNL     1      -9.529   6.453  70.464  1.00  0.00    -0.162 N  
BRANCH   3   4
HETATM    4  C   UNL     1     -10.988   5.945  70.271  1.00  0.00    -0.320 C  
HETATM    5  C   UNL     1     -12.072   6.837  70.821  1.00  0.00    -0.402 C  
ENDBRANCH   3   4
BRANCH   3   6
HETATM    6  C   UNL     1      -8.955   5.574  71.600  1.00  0.00    -0.136 C  
BRANCH   6   7
HETATM    7  C   UNL     1      -9.638   4.297  72.079  1.00  0.00    -0.209 A  
HETATM    8  C   UNL     1     -11.053   3.214  73.772  1.00  0.00    -0.288 A  
HETATM    9  C   UNL     1      -9.491   3.027  71.497  1.00  0.00    -0.216 A  
HETATM   10  C   UNL     1     -10.483   4.363  73.207  1.00  0.00    -0.187 A  
HETATM   11  C   UNL     1     -10.106   1.888  72.019  1.00  0.00    -0.227 A  
HETATM   12 CL   UNL     1     -10.823   5.879  73.969  1.00  0.00    -0.092 Cl 
HETATM   13  C   UNL     1     -10.866   1.975  73.172  1.00  0.00    -0.263 A  
ENDBRANCH   6   7
ENDBRANCH   3   6
BRANCH   3  14
HETATM   14  C   UNL     1      -8.655   6.384  69.147  1.00  0.00    -0.125 C  
BRANCH  14  15
HETATM   15  C   UNL     1      -7.906   7.695  68.724  1.00  0.00    -0.120 C  
BRANCH  15  16
HETATM   16  N   UNL     1      -7.921   8.066  67.316  1.00  0.00    -0.119 N  
HETATM   17  H   UNL     1      -7.171   7.758  66.697  1.00  0.00     0.000 HD 
HETATM   18  C   UNL     1      -8.964   8.843  66.821  1.00  0.00    -0.130 C  
HETATM   19  O   UNL     1      -9.982   9.085  67.446  1.00  0.00    -0.180 OA 
BRANCH  18  20
HETATM   20  C   UNL     1      -8.796   9.293  65.348  1.00  0.00    -0.192 C  
HETATM   21  N   UNL     1      -9.892   9.957  64.794  1.00  0.00    -0.412 N  
HETATM   22  O   UNL     1      -7.760   9.078  64.742  1.00  0.00    -0.102 OA 
HETATM   23  H   UNL     1     -10.823   9.859  65.200  1.00  0.00     0.000 HD 
BRANCH  21  24
HETATM   24  C   UNL     1      -9.674  10.795  63.621  1.00  0.00    -0.327 C  
BRANCH  24  25
HETATM   25  C   UNL     1      -9.485  12.308  63.914  1.00  0.00     0.240 C  
BRANCH  25  26
HETATM   26  N   UNL     1     -10.716  13.007  64.541  1.00  0.00    -0.362 N  
BRANCH  26  27
HETATM   27  C   UNL     1     -10.397  14.501  64.842  1.00  0.00    -0.371 C  
HETATM   28  C   UNL     1     -11.489  15.489  64.456  1.00  0.00    -0.311 C  
ENDBRANCH  26  27
BRANCH  26  29
HETATM   29  C   UNL     1     -11.898  12.870  63.541  1.00  0.00    -0.536 C  
HETATM   30  C   UNL     1     -13.104  12.105  64.058  1.00  0.00    -0.167 C  
ENDBRANCH  26  29
BRANCH  26  31
HETATM   31  C   UNL     1     -11.093  12.324  65.908  1.00  0.00    -0.322 C  
BRANCH  31  32
HETATM   32  C   UNL     1     -10.861  13.084  67.203  1.00  0.00    -0.278 A  
HETATM   33  C   UNL     1     -11.919  13.784  67.821  1.00  0.00    -0.391 A  
HETATM   34  C   UNL     1     -11.702  14.597  68.938  1.00  0.00    -0.343 A  
HETATM   35  C   UNL     1     -10.420  14.747  69.452  1.00  0.00    -0.210 A  
HETATM   36  C   UNL     1      -9.362  14.054  68.873  1.00  0.00     0.027 A  
HETATM   37  C   UNL     1      -9.578  13.224  67.768  1.00  0.00    -0.214 A  
HETATM   38 CL   UNL     1      -8.194  12.414  67.125  1.00  0.00    -0.184 Cl 
ENDBRANCH  31  32
ENDBRANCH  26  31
ENDBRANCH  25  26
ENDBRANCH  24  25
ENDBRANCH  21  24
ENDBRANCH  18  20
ENDBRANCH  15  16
ENDBRANCH  14  15
ENDBRANCH   3  14
ENDBRANCH   2   3
TORSDOF 15
ENDMDL
MODEL      297
REMARK 921   NORMALIZED FREE ENERGY PREDICTED BY IDOCK:   -3.60 KCAL/MOL
REMARK 922        TOTAL FREE ENERGY PREDICTED BY IDOCK:   -9.41 KCAL/MOL
REMARK 923 INTER-LIGAND FREE ENERGY PREDICTED BY IDOCK:   -7.78 KCAL/MOL
REMARK 924 INTRA-LIGAND FREE ENERGY PREDICTED BY IDOCK:   -1.63 KCAL/MOL
REMARK 927      BINDING AFFINITY PREDICTED BY RF-SCORE:    0.00 PKD
ROOT
HETATM    1  C   UNL     1     -12.158  13.601  64.530  1.00  0.00    -0.459 C  
HETATM    2  C   UNL     1     -12.256  13.477  66.043  1.00  0.00    -0.445 C  
ENDROOT
BRANCH   2   3
HETATM    3  N   UNL     1     -11.071  12.737  66.738  1.00  0.00    -0.267 N  
BRANCH   3   4
HETATM    4  C   UNL     1     -11.614  11.587  67.635  1.00  0.00    -0.247 C  
HETATM    5  C   UNL     1     -11.825  11.932  69.088  1.00  0.00    -0.371 C  
ENDBRANCH   3   4
BRANCH   3   6
HETATM    6  C   UNL     1     -10.343  13.688  67.716  1.00  0.00    -0.241 C  
BRANCH   6   7
HETATM    7  C   UNL     1     -10.168  15.179  67.440  1.00  0.00    -0.235 A  
HETATM    8  C   UNL     1     -10.680  17.485  68.116  1.00  0.00    -0.330 A  
HETATM    9  C   UNL     1      -9.523  15.728  66.319  1.00  0.00    -0.349 A  
HETATM   10  C   UNL     1     -10.701  16.106  68.360  1.00  0.00    -0.298 A  
HETATM   11  C   UNL     1      -9.445  17.105  66.100  1.00  0.00    -0.228 A  
HETATM   12 CL   UNL     1     -11.443  15.567  69.827  1.00  0.00    -0.307 Cl 
HETATM   13  C   UNL     1     -10.046  17.984  66.984  1.00  0.00    -0.348 A  
ENDBRANCH   6   7
ENDBRANCH   3   6
BRANCH   3  14
HETATM   14  C   UNL     1     -10.129  12.237  65.569  1.00  0.00    -0.256 C  
BRANCH  14  15
HETATM   15  C   UNL     1      -8.762  11.592  65.987  1.00  0.00    -0.095 C  
BRANCH  15  16
HETATM   16  N   UNL     1      -8.680  10.140  66.043  1.00  0.00    -0.137 N  
HETATM   17  H   UNL     1      -9.106   9.631  66.818  1.00  0.00     0.000 HD 
HETATM   18  C   UNL     1      -8.019   9.449  65.032  1.00  0.00    -0.118 C  
HETATM   19  O   UNL     1      -7.657   9.962  63.987  1.00  0.00    -0.129 OA 
BRANCH  18  20
HETATM   20  C   UNL     1      -7.873   7.925  65.274  1.00  0.00    -0.111 C  
HETATM   21  N   UNL     1      -7.181   7.565  66.432  1.00  0.00    -0.074 N  
HETATM   22  O   UNL     1      -8.352   7.119  64.494  1.00  0.00    -0.047 OA 
HETATM   23  H   UNL     1      -6.550   8.222  66.889  1.00  0.00     0.000 HD 
BRANCH  21  24
HETATM   24  C   UNL     1      -7.384   6.225  66.971  1.00  0.00    -0.083 C  
BRANCH  24  25
HETATM   25  C   UNL     1      -8.480   6.110  68.064  1.00  0.00    -0.116 C  
BRANCH  25  26
HETATM   26  N   UNL     1      -7.987   5.554  69.422  1.00  0.00    -0.093 N  
BRANCH  26  27
HETATM   27  C   UNL     1      -6.739   4.646  69.214  1.00  0.00    -0.045 C  
HETATM   28  C   UNL     1      -5.996   4.261  70.486  1.00  0.00    -0.014 C  
ENDBRANCH  26  27
BRANCH  26  29
HETATM   29  C   UNL     1      -7.661   6.765  70.339  1.00  0.00    -0.095 C  
HETATM   30  C   UNL     1      -8.176   8.108  69.854  1.00  0.00    -0.118 C  
ENDBRANCH  26  29
BRANCH  26  31
HETATM   31  C   UNL     1      -9.105   4.667  70.087  1.00  0.00    -0.098 C  
BRANCH  31  32
HETATM   32  C   UNL     1     -10.320   5.346  70.696  1.00  0.00    -0.333 A  
HETATM   33  C   UNL     1     -11.182   6.124  69.895  1.00  0.00    -0.484 A  
HETATM   34  C   UNL     1     -12.230   6.864  70.455  1.00  0.00    -0.175 A  
HETATM   35  C   UNL     1     -12.428   6.859  71.829  1.00  0.00    -0.397 A  
HETATM   36  C   UNL     1     -11.605   6.085  72.640  1.00  0.00    -0.266 A  
HETATM   37  C   UNL     1     -10.568   5.329  72.083  1.00  0.00    -0.221 A  
HETATM   38 CL   UNL     1      -9.604   4.408  73.181  1.00  0.00    -0.145 Cl 
ENDBRANCH  31  32
ENDBRANCH  26  31
ENDBRANCH  25  26
ENDBRANCH  24  25
ENDBRANCH  21  24
ENDBRANCH  18  20
ENDBRANCH  15  16
ENDBRANCH  14  15
ENDBRANCH   3  14
ENDBRANCH   2   3
TORSDOF 15
ENDMDL
MODEL      298
REMARK 921   NORMALIZED FREE ENERGY PREDICTED BY IDOCK:   -3.59 KCAL/MOL
REMARK 922        TOTAL FREE ENERGY PREDICTED BY IDOCK:   -9.40 KCAL/MOL
REMARK 923 INTER-LIGAND FREE ENERGY PREDICTED BY IDOCK:   -7.85 KCAL/MOL
REMARK 924 INTRA-LIGAND FREE ENERGY PREDICTED BY IDOCK:   -1.55 KCAL/MOL
REMARK 927      BINDING AFFINITY PREDICTED BY RF-SCORE:    0.00 PKD
ROOT
HETATM    1  C   UNL     1      -9.581   3.343  70.850  1.00  0.00    -0.239 C  
HETATM    2  C   UNL     1      -8.934   4.622  71.360  1.00  0.00    -0.128 C  
ENDROOT
BRANCH   2   3
HETATM    3  N   UNL     1      -9.900   5.648  72.030  1.00  0.00    -0.162 N  
BRANCH   3   4
HETATM    4  C   UNL     1     -10.916   4.903  72.944  1.00  0.00    -0.262 C  
HETATM    5  C   UNL     1     -10.500   4.729  74.383  1.00  0.00    -0.331 C  
ENDBRANCH   3   4
BRANCH   3   6
HETATM    6  C   UNL     1     -10.772   6.345  70.959  1.00  0.00    -0.251 C  
BRANCH   6   7
HETATM    7  C   UNL     1     -11.987   7.196  71.313  1.00  0.00    -0.374 A  
HETATM    8  C   UNL     1     -12.845   9.380  72.044  1.00  0.00    -0.496 A  
HETATM    9  C   UNL     1     -13.310   6.731  71.396  1.00  0.00    -0.150 A  
HETATM   10  C   UNL     1     -11.796   8.564  71.601  1.00  0.00    -0.311 A  
HETATM   11  C   UNL     1     -14.371   7.554  71.778  1.00  0.00    -0.588 A  
HETATM   12 CL   UNL     1     -10.232   9.287  71.452  1.00  0.00    -0.395 Cl 
HETATM   13  C   UNL     1     -14.136   8.872  72.128  1.00  0.00    -0.497 A  
ENDBRANCH   6   7
ENDBRANCH   3   6
BRANCH   3  14
HETATM   14  C   UNL     1      -8.975   6.666  72.811  1.00  0.00    -0.122 C  
BRANCH  14  15
HETATM   15  C   UNL     1      -7.524   6.878  72.254  1.00  0.00    -0.087 C  
BRANCH  15  16
HETATM   16  N   UNL     1      -7.378   7.516  70.954  1.00  0.00    -0.067 N  
HETATM   17  H   UNL     1      -7.639   7.015  70.105  1.00  0.00     0.000 HD 
HETATM   18  C   UNL     1      -6.880   8.813  70.877  1.00  0.00    -0.068 C  
HETATM   19  O   UNL     1      -6.730   9.538  71.846  1.00  0.00    -0.298 OA 
BRANCH  18  20
HETATM   20  C   UNL     1      -6.635   9.331  69.438  1.00  0.00    -0.044 C  
HETATM   21  N   UNL     1      -6.175   8.378  68.527  1.00  0.00    -0.052 N  
HETATM   22  O   UNL     1      -6.849  10.496  69.146  1.00  0.00    -0.060 OA 
HETATM   23  H   UNL     1      -5.728   7.520  68.850  1.00  0.00     0.000 HD 
BRANCH  21  24
HETATM   24  C   UNL     1      -6.351   8.638  67.103  1.00  0.00    -0.057 C  
BRANCH  24  25
HETATM   25  C   UNL     1      -7.730   8.228  66.520  1.00  0.00    -0.092 C  
BRANCH  25  26
HETATM   26  N   UNL     1      -8.138   8.978  65.229  1.00  0.00    -0.120 N  
BRANCH  26  27
HETATM   27  C   UNL     1      -7.326  10.301  65.092  1.00  0.00    -0.127 C  
HETATM   28  C   UNL     1      -6.196  10.267  64.073  1.00  0.00    -0.110 C  
ENDBRANCH  26  27
BRANCH  26  29
HETATM   29  C   UNL     1      -7.879   8.028  64.027  1.00  0.00    -0.145 C  
HETATM   30  C   UNL     1      -7.098   6.766  64.351  1.00  0.00    -0.061 C  
ENDBRANCH  26  29
BRANCH  26  31
HETATM   31  C   UNL     1      -9.662   9.367  65.282  1.00  0.00    -0.114 C  
BRANCH  31  32
HETATM   32  C   UNL     1     -10.114  10.455  66.242  1.00  0.00    -0.292 A  
HETATM   33  C   UNL     1     -10.275  10.176  67.615  1.00  0.00    -0.246 A  
HETATM   34  C   UNL     1     -10.815  11.121  68.494  1.00  0.00    -0.243 A  
HETATM   35  C   UNL     1     -11.223  12.360  68.018  1.00  0.00    -0.317 A  
HETATM   36  C   UNL     1     -11.057  12.669  66.672  1.00  0.00    -0.314 A  
HETATM   37  C   UNL     1     -10.501  11.734  65.793  1.00  0.00    -0.260 A  
HETATM   38 CL   UNL     1     -10.345  12.218  64.143  1.00  0.00    -0.367 Cl 
ENDBRANCH  31  32
ENDBRANCH  26  31
ENDBRANCH  25  26
ENDBRANCH  24  25
ENDBRANCH  21  24
ENDBRANCH  18  20
ENDBRANCH  15  16
ENDBRANCH  14  15
ENDBRANCH   3  14
ENDBRANCH   2   3
TORSDOF 15
ENDMDL
MODEL      299
REMARK 921   NORMALIZED FREE ENERGY PREDICTED BY IDOCK:   -3.59 KCAL/MOL
REMARK 922        TOTAL FREE ENERGY PREDICTED BY IDOCK:   -9.39 KCAL/MOL
REMARK 923 INTER-LIGAND FREE ENERGY PREDICTED BY IDOCK:   -8.74 KCAL/MOL
REMARK 924 INTRA-LIGAND FREE ENERGY PREDICTED BY IDOCK:   -0.65 KCAL/MOL
REMARK 927      BINDING AFFINITY PREDICTED BY RF-SCORE:    0.00 PKD
ROOT
HETATM    1  C   UNL     1      -7.911   7.407  70.477  1.00  0.00    -0.097 C  
HETATM    2  C   UNL     1      -9.414   7.324  70.252  1.00  0.00    -0.165 C  
ENDROOT
BRANCH   2   3
HETATM    3  N   UNL     1     -10.153   6.199  71.041  1.00  0.00    -0.184 N  
BRANCH   3   4
HETATM    4  C   UNL     1      -9.372   5.859  72.343  1.00  0.00    -0.143 C  
HETATM    5  C   UNL     1      -9.928   4.723  73.164  1.00  0.00    -0.179 C  
ENDBRANCH   3   4
BRANCH   3   6
HETATM    6  C   UNL     1     -10.153   4.883  70.228  1.00  0.00    -0.252 C  
BRANCH   6   7
HETATM    7  C   UNL     1      -9.724   4.819  68.765  1.00  0.00    -0.235 A  
HETATM    8  C   UNL     1      -7.930   4.355  67.150  1.00  0.00    -0.101 A  
HETATM    9  C   UNL     1     -10.507   5.218  67.669  1.00  0.00    -0.176 A  
HETATM   10  C   UNL     1      -8.435   4.337  68.457  1.00  0.00    -0.092 A  
HETATM   11  C   UNL     1     -10.032   5.182  66.357  1.00  0.00    -0.236 A  
HETATM   12 CL   UNL     1      -7.399   3.729  69.703  1.00  0.00    -0.048 Cl 
HETATM   13  C   UNL     1      -8.735   4.776  66.098  1.00  0.00    -0.116 A  
ENDBRANCH   6   7
ENDBRANCH   3   6
BRANCH   3  14
HETATM   14  C   UNL     1     -11.615   6.746  71.304  1.00  0.00    -0.320 C  
BRANCH  14  15
HETATM   15  C   UNL     1     -11.766   8.292  71.512  1.00  0.00    -0.292 C  
BRANCH  15  16
HETATM   16  N   UNL     1     -11.714   9.148  70.336  1.00  0.00    -0.453 N  
HETATM   17  H   UNL     1     -11.447   8.761  69.431  1.00  0.00     0.000 HD 
HETATM   18  C   UNL     1     -12.032  10.498  70.453  1.00  0.00    -0.335 C  
HETATM   19  O   UNL     1     -12.542  10.989  71.446  1.00  0.00    -0.390 OA 
BRANCH  18  20
HETATM   20  C   UNL     1     -11.802  11.334  69.169  1.00  0.00    -0.355 C  
HETATM   21  N   UNL     1     -10.870  12.367  69.284  1.00  0.00    -0.444 N  
HETATM   22  O   UNL     1     -12.401  11.076  68.138  1.00  0.00    -0.402 OA 
HETATM   23  H   UNL     1     -10.620  12.746  70.197  1.00  0.00     0.000 HD 
BRANCH  21  24
HETATM   24  C   UNL     1     -10.263  12.891  68.066  1.00  0.00    -0.229 C  
BRANCH  24  25
HETATM   25  C   UNL     1     -11.263  13.427  67.006  1.00  0.00    -0.305 C  
BRANCH  25  26
HETATM   26  N   UNL     1     -11.183  12.728  65.627  1.00  0.00    -0.292 N  
BRANCH  26  27
HETATM   27  C   UNL     1     -12.606  12.572  65.015  1.00  0.00    -0.345 C  
HETATM   28  C   UNL     1     -12.644  12.305  63.517  1.00  0.00    -0.589 C  
ENDBRANCH  26  27
BRANCH  26  29
HETATM   29  C   UNL     1     -10.264  13.586  64.714  1.00  0.00    -0.332 C  
HETATM   30  C   UNL     1     -10.161  15.054  65.087  1.00  0.00    -0.399 C  
ENDBRANCH  26  29
BRANCH  26  31
HETATM   31  C   UNL     1     -10.579  11.283  65.783  1.00  0.00    -0.248 C  
BRANCH  31  32
HETATM   32  C   UNL     1      -9.435  10.858  64.878  1.00  0.00    -0.277 A  
HETATM   33  C   UNL     1      -9.697  10.263  63.626  1.00  0.00    -0.276 A  
HETATM   34  C   UNL     1      -8.666   9.744  62.834  1.00  0.00    -0.229 A  
HETATM   35  C   UNL     1      -7.354   9.791  63.283  1.00  0.00    -0.123 A  
HETATM   36  C   UNL     1      -7.065  10.389  64.505  1.00  0.00    -0.007 A  
HETATM   37  C   UNL     1      -8.090  10.926  65.291  1.00  0.00     0.060 A  
HETATM   38 CL   UNL     1      -7.622  11.642  66.792  1.00  0.00    -0.136 Cl 
ENDBRANCH  31  32
ENDBRANCH  26  31
ENDBRANCH  25  26
ENDBRANCH  24  25
ENDBRANCH  21  24
ENDBRANCH  18  20
ENDBRANCH  15  16
ENDBRANCH  14  15
ENDBRANCH   3  14
ENDBRANCH   2   3
TORSDOF 15
ENDMDL
MODEL      300
REMARK 921   NORMALIZED FREE ENERGY PREDICTED BY IDOCK:   -3.59 KCAL/MOL
REMARK 922        TOTAL FREE ENERGY PREDICTED BY IDOCK:   -9.39 KCAL/MOL
REMARK 923 INTER-LIGAND FREE ENERGY PREDICTED BY IDOCK:   -7.75 KCAL/MOL
REMARK 924 INTRA-LIGAND FREE ENERGY PREDICTED BY IDOCK:   -1.64 KCAL/MOL
REMARK 927      BINDING AFFINITY PREDICTED BY RF-SCORE:    0.00 PKD
ROOT
HETATM    1  C   UNL     1      -8.688   2.894  70.404  1.00  0.00    -0.128 C  
HETATM    2  C   UNL     1      -9.822   3.733  70.974  1.00  0.00    -0.134 C  
ENDROOT
BRANCH   2   3
HETATM    3  N   UNL     1      -9.399   5.083  71.632  1.00  0.00    -0.145 N  
BRANCH   3   4
HETATM    4  C   UNL     1     -10.028   5.204  73.051  1.00  0.00    -0.164 C  
HETATM    5  C   UNL     1     -10.198   3.910  73.806  1.00  0.00    -0.214 C  
ENDBRANCH   3   4
BRANCH   3   6
HETATM    6  C   UNL     1      -9.985   6.275  70.840  1.00  0.00    -0.186 C  
BRANCH   6   7
HETATM    7  C   UNL     1     -11.322   6.920  71.192  1.00  0.00    -0.332 A  
HETATM    8  C   UNL     1     -12.503   8.754  72.325  1.00  0.00    -0.455 A  
HETATM    9  C   UNL     1     -12.587   6.377  70.912  1.00  0.00     0.267 A  
HETATM   10  C   UNL     1     -11.320   8.158  71.869  1.00  0.00    -0.296 A  
HETATM   11  C   UNL     1     -13.773   6.996  71.310  1.00  0.00    -0.233 A  
HETATM   12 CL   UNL     1      -9.835   8.982  72.199  1.00  0.00    -0.250 Cl 
HETATM   13  C   UNL     1     -13.732   8.171  72.039  1.00  0.00    -0.347 A  
ENDBRANCH   6   7
ENDBRANCH   3   6
BRANCH   3  14
HETATM   14  C   UNL     1      -7.817   5.083  71.639  1.00  0.00    -0.108 C  
BRANCH  14  15
HETATM   15  C   UNL     1      -7.111   6.245  72.419  1.00  0.00    -0.083 C  
BRANCH  15  16
HETATM   16  N   UNL     1      -7.217   7.593  71.879  1.00  0.00    -0.063 N  
HETATM   17  H   UNL     1      -8.008   8.185  72.130  1.00  0.00     0.000 HD 
HETATM   18  C   UNL     1      -6.231   8.069  71.020  1.00  0.00    -0.034 C  
HETATM   19  O   UNL     1      -5.169   7.501  70.828  1.00  0.00    -0.023 OA 
BRANCH  18  20
HETATM   20  C   UNL     1      -6.526   9.458  70.399  1.00  0.00    -0.071 C  
HETATM   21  N   UNL     1      -7.057   9.438  69.108  1.00  0.00    -0.061 N  
HETATM   22  O   UNL     1      -6.309  10.482  71.024  1.00  0.00    -0.340 OA 
HETATM   23  H   UNL     1      -6.948   8.619  68.510  1.00  0.00     0.000 HD 
BRANCH  21  24
HETATM   24  C   UNL     1      -7.773  10.617  68.635  1.00  0.00    -0.110 C  
BRANCH  24  25
HETATM   25  C   UNL     1      -9.212  10.787  69.195  1.00  0.00    -0.116 C  
BRANCH  25  26
HETATM   26  N   UNL     1     -10.311  10.955  68.118  1.00  0.00    -0.171 N  
BRANCH  26  27
HETATM   27  C   UNL     1     -10.857   9.564  67.680  1.00  0.00    -0.187 C  
HETATM   28  C   UNL     1     -10.081   8.884  66.561  1.00  0.00    -0.356 C  
ENDBRANCH  26  27
BRANCH  26  29
HETATM   29  C   UNL     1     -11.435  11.841  68.723  1.00  0.00    -0.291 C  
HETATM   30  C   UNL     1     -12.148  11.256  69.928  1.00  0.00    -0.414 C  
ENDBRANCH  26  29
BRANCH  26  31
HETATM   31  C   UNL     1      -9.717  11.649  66.836  1.00  0.00    -0.195 C  
BRANCH  31  32
HETATM   32  C   UNL     1     -10.604  12.570  66.015  1.00  0.00    -0.289 A  
HETATM   33  C   UNL     1     -11.685  12.047  65.274  1.00  0.00    -0.312 A  
HETATM   34  C   UNL     1     -12.434  12.852  64.409  1.00  0.00    -0.447 A  
HETATM   35  C   UNL     1     -12.109  14.192  64.249  1.00  0.00    -0.471 A  
HETATM   36  C   UNL     1     -11.061  14.738  64.983  1.00  0.00    -0.412 A  
HETATM   37  C   UNL     1     -10.321  13.942  65.864  1.00  0.00    -0.311 A  
HETATM   38 CL   UNL     1      -9.038  14.718  66.721  1.00  0.00    -0.274 Cl 
ENDBRANCH  31  32
ENDBRANCH  26  31
ENDBRANCH  25  26
ENDBRANCH  24  25
ENDBRANCH  21  24
ENDBRANCH  18  20
ENDBRANCH  15  16
ENDBRANCH  14  15
ENDBRANCH   3  14
ENDBRANCH   2   3
TORSDOF 15
ENDMDL
MODEL      301
REMARK 921   NORMALIZED FREE ENERGY PREDICTED BY IDOCK:   -3.57 KCAL/MOL
REMARK 922        TOTAL FREE ENERGY PREDICTED BY IDOCK:   -9.37 KCAL/MOL
REMARK 923 INTER-LIGAND FREE ENERGY PREDICTED BY IDOCK:   -7.87 KCAL/MOL
REMARK 924 INTRA-LIGAND FREE ENERGY PREDICTED BY IDOCK:   -1.50 KCAL/MOL
REMARK 927      BINDING AFFINITY PREDICTED BY RF-SCORE:    0.00 PKD
ROOT
HETATM    1  C   UNL     1      -5.351  17.905  70.063  1.00  0.00    -0.233 C  
HETATM    2  C   UNL     1      -5.158  17.550  68.596  1.00  0.00    -0.144 C  
ENDROOT
BRANCH   2   3
HETATM    3  N   UNL     1      -6.322  16.748  67.936  1.00  0.00    -0.133 N  
BRANCH   3   4
HETATM    4  C   UNL     1      -6.528  17.219  66.467  1.00  0.00    -0.237 C  
HETATM    5  C   UNL     1      -5.348  17.905  65.826  1.00  0.00    -0.225 C  
ENDBRANCH   3   4
BRANCH   3   6
HETATM    6  C   UNL     1      -7.662  17.064  68.642  1.00  0.00    -0.251 C  
BRANCH   6   7
HETATM    7  C   UNL     1      -8.660  18.081  68.096  1.00  0.00    -0.277 A  
HETATM    8  C   UNL     1     -10.879  18.490  67.122  1.00  0.00    -0.304 A  
HETATM    9  C   UNL     1      -8.404  19.449  67.902  1.00  0.00    -0.343 A  
HETATM   10  C   UNL     1      -9.950  17.639  67.735  1.00  0.00    -0.315 A  
HETATM   11  C   UNL     1      -9.348  20.316  67.348  1.00  0.00    -0.531 A  
HETATM   12 CL   UNL     1     -10.428  15.998  68.004  1.00  0.00    -0.266 Cl 
HETATM   13  C   UNL     1     -10.576  19.833  66.933  1.00  0.00    -0.588 A  
ENDBRANCH   6   7
ENDBRANCH   3   6
BRANCH   3  14
HETATM   14  C   UNL     1      -5.920  15.223  68.061  1.00  0.00    -0.145 C  
BRANCH  14  15
HETATM   15  C   UNL     1      -6.963  14.267  68.737  1.00  0.00    -0.102 C  
BRANCH  15  16
HETATM   16  N   UNL     1      -6.652  12.846  68.794  1.00  0.00    -0.084 N  
HETATM   17  H   UNL     1      -6.758  12.264  67.964  1.00  0.00     0.000 HD 
HETATM   18  C   UNL     1      -6.207  12.288  69.989  1.00  0.00    -0.085 C  
HETATM   19  O   UNL     1      -5.873  12.946  70.960  1.00  0.00    -0.297 OA 
BRANCH  18  20
HETATM   20  C   UNL     1      -6.046  10.747  69.966  1.00  0.00    -0.107 C  
HETATM   21  N   UNL     1      -6.631  10.066  71.035  1.00  0.00     0.031 N  
HETATM   22  O   UNL     1      -5.453  10.193  69.055  1.00  0.00    -0.035 OA 
HETATM   23  H   UNL     1      -6.846  10.549  71.907  1.00  0.00     0.000 HD 
BRANCH  21  24
HETATM   24  C   UNL     1      -6.928   8.648  70.874  1.00  0.00    -0.064 C  
BRANCH  24  25
HETATM   25  C   UNL     1      -8.421   8.259  71.053  1.00  0.00    -0.133 C  
BRANCH  25  26
HETATM   26  N   UNL     1      -9.307   8.499  69.806  1.00  0.00    -0.160 N  
BRANCH  26  27
HETATM   27  C   UNL     1      -9.943   9.920  69.859  1.00  0.00    -0.252 C  
HETATM   28  C   UNL     1     -11.411   9.960  70.261  1.00  0.00    -0.357 C  
ENDBRANCH  26  27
BRANCH  26  29
HETATM   29  C   UNL     1      -8.412   8.325  68.548  1.00  0.00    -0.126 C  
HETATM   30  C   UNL     1      -8.547   9.411  67.497  1.00  0.00    -0.122 C  
ENDBRANCH  26  29
BRANCH  26  31
HETATM   31  C   UNL     1     -10.488   7.459  69.769  1.00  0.00    -0.229 C  
BRANCH  31  32
HETATM   32  C   UNL     1     -10.199   6.028  69.348  1.00  0.00    -0.269 A  
HETATM   33  C   UNL     1      -9.689   5.097  70.277  1.00  0.00    -0.272 A  
HETATM   34  C   UNL     1      -9.292   3.815  69.884  1.00  0.00    -0.248 A  
HETATM   35  C   UNL     1      -9.376   3.439  68.550  1.00  0.00    -0.231 A  
HETATM   36  C   UNL     1      -9.894   4.330  67.615  1.00  0.00    -0.150 A  
HETATM   37  C   UNL     1     -10.310   5.607  68.007  1.00  0.00    -0.202 A  
HETATM   38 CL   UNL     1     -10.932   6.635  66.767  1.00  0.00    -0.380 Cl 
ENDBRANCH  31  32
ENDBRANCH  26  31
ENDBRANCH  25  26
ENDBRANCH  24  25
ENDBRANCH  21  24
ENDBRANCH  18  20
ENDBRANCH  15  16
ENDBRANCH  14  15
ENDBRANCH   3  14
ENDBRANCH   2   3
TORSDOF 15
ENDMDL
MODEL      302
REMARK 921   NORMALIZED FREE ENERGY PREDICTED BY IDOCK:   -3.57 KCAL/MOL
REMARK 922        TOTAL FREE ENERGY PREDICTED BY IDOCK:   -9.36 KCAL/MOL
REMARK 923 INTER-LIGAND FREE ENERGY PREDICTED BY IDOCK:   -8.65 KCAL/MOL
REMARK 924 INTRA-LIGAND FREE ENERGY PREDICTED BY IDOCK:   -0.71 KCAL/MOL
REMARK 927      BINDING AFFINITY PREDICTED BY RF-SCORE:    0.00 PKD
ROOT
HETATM    1  C   UNL     1     -10.832   7.101  67.041  1.00  0.00    -0.382 C  
HETATM    2  C   UNL     1     -10.097   8.424  66.877  1.00  0.00    -0.294 C  
ENDROOT
BRANCH   2   3
HETATM    3  N   UNL     1      -8.755   8.358  66.085  1.00  0.00    -0.142 N  
BRANCH   3   4
HETATM    4  C   UNL     1      -8.562   6.937  65.480  1.00  0.00    -0.077 C  
HETATM    5  C   UNL     1      -7.770   6.871  64.199  1.00  0.00    -0.116 C  
ENDBRANCH   3   4
BRANCH   3   6
HETATM    6  C   UNL     1      -7.555   8.543  67.044  1.00  0.00    -0.092 C  
BRANCH   6   7
HETATM    7  C   UNL     1      -7.633   8.218  68.533  1.00  0.00    -0.100 A  
HETATM    8  C   UNL     1      -7.837   9.066  70.830  1.00  0.00    -0.172 A  
HETATM    9  C   UNL     1      -7.475   6.941  69.096  1.00  0.00    -0.095 A  
HETATM   10  C   UNL     1      -7.866   9.269  69.445  1.00  0.00    -0.083 A  
HETATM   11  C   UNL     1      -7.505   6.722  70.474  1.00  0.00    -0.086 A  
HETATM   12 CL   UNL     1      -8.166  10.877  68.881  1.00  0.00    -0.146 Cl 
HETATM   13  C   UNL     1      -7.660   7.787  71.344  1.00  0.00    -0.081 A  
ENDBRANCH   6   7
ENDBRANCH   3   6
BRANCH   3  14
HETATM   14  C   UNL     1      -8.840   9.503  64.997  1.00  0.00    -0.195 C  
BRANCH  14  15
HETATM   15  C   UNL     1     -10.082  10.458  65.067  1.00  0.00    -0.309 C  
BRANCH  15  16
HETATM   16  N   UNL     1     -10.052  11.548  66.031  1.00  0.00    -0.223 N  
HETATM   17  H   UNL     1      -9.169  11.837  66.452  1.00  0.00     0.000 HD 
HETATM   18  C   UNL     1     -11.236  12.194  66.376  1.00  0.00    -0.331 C  
HETATM   19  O   UNL     1     -12.289  12.038  65.781  1.00  0.00    -0.469 OA 
BRANCH  18  20
HETATM   20  C   UNL     1     -11.100  13.236  67.514  1.00  0.00    -0.270 C  
HETATM   21  N   UNL     1      -9.881  13.914  67.565  1.00  0.00    -0.232 N  
HETATM   22  O   UNL     1     -12.018  13.438  68.291  1.00  0.00    -0.345 OA 
HETATM   23  H   UNL     1      -9.049  13.529  67.117  1.00  0.00     0.000 HD 
BRANCH  21  24
HETATM   24  C   UNL     1      -9.824  15.186  68.275  1.00  0.00    -0.223 C  
BRANCH  24  25
HETATM   25  C   UNL     1     -10.744  16.302  67.708  1.00  0.00    -0.325 C  
BRANCH  25  26
HETATM   26  N   UNL     1     -10.023  17.350  66.826  1.00  0.00    -0.294 N  
BRANCH  26  27
HETATM   27  C   UNL     1     -10.414  17.160  65.330  1.00  0.00    -0.080 C  
HETATM   28  C   UNL     1     -11.054  15.820  64.991  1.00  0.00    -0.380 C  
ENDBRANCH  26  27
BRANCH  26  29
HETATM   29  C   UNL     1     -10.425  18.759  67.342  1.00  0.00    -0.431 C  
HETATM   30  C   UNL     1     -10.598  19.821  66.270  1.00  0.00    -0.572 C  
ENDBRANCH  26  29
BRANCH  26  31
HETATM   31  C   UNL     1      -8.463  17.170  66.929  1.00  0.00    -0.222 C  
BRANCH  31  32
HETATM   32  C   UNL     1      -7.640  18.242  67.622  1.00  0.00    -0.222 A  
HETATM   33  C   UNL     1      -7.557  19.542  67.082  1.00  0.00    -0.271 A  
HETATM   34  C   UNL     1      -6.703  20.507  67.627  1.00  0.00    -0.350 A  
HETATM   35  C   UNL     1      -5.897  20.189  68.712  1.00  0.00    -0.307 A  
HETATM   36  C   UNL     1      -5.973  18.921  69.277  1.00  0.00    -0.255 A  
HETATM   37  C   UNL     1      -6.839  17.958  68.747  1.00  0.00    -0.255 A  
HETATM   38 CL   UNL     1      -6.851  16.415  69.522  1.00  0.00    -0.222 Cl 
ENDBRANCH  31  32
ENDBRANCH  26  31
ENDBRANCH  25  26
ENDBRANCH  24  25
ENDBRANCH  21  24
ENDBRANCH  18  20
ENDBRANCH  15  16
ENDBRANCH  14  15
ENDBRANCH   3  14
ENDBRANCH   2   3
TORSDOF 15
ENDMDL
MODEL      303
REMARK 921   NORMALIZED FREE ENERGY PREDICTED BY IDOCK:   -3.57 KCAL/MOL
REMARK 922        TOTAL FREE ENERGY PREDICTED BY IDOCK:   -9.35 KCAL/MOL
REMARK 923 INTER-LIGAND FREE ENERGY PREDICTED BY IDOCK:   -7.23 KCAL/MOL
REMARK 924 INTRA-LIGAND FREE ENERGY PREDICTED BY IDOCK:   -2.12 KCAL/MOL
REMARK 927      BINDING AFFINITY PREDICTED BY RF-SCORE:    0.00 PKD
ROOT
HETATM    1  C   UNL     1      -8.400   8.427  68.780  1.00  0.00    -0.116 C  
HETATM    2  C   UNL     1      -7.259   8.592  67.786  1.00  0.00    -0.088 C  
ENDROOT
BRANCH   2   3
HETATM    3  N   UNL     1      -7.683   8.818  66.302  1.00  0.00    -0.097 N  
BRANCH   3   4
HETATM    4  C   UNL     1      -6.877  10.002  65.692  1.00  0.00    -0.114 C  
HETATM    5  C   UNL     1      -6.115  10.852  66.676  1.00  0.00    -0.101 C  
ENDBRANCH   3   4
BRANCH   3   6
HETATM    6  C   UNL     1      -9.161   9.268  66.227  1.00  0.00    -0.171 C  
BRANCH   6   7
HETATM    7  C   UNL     1      -9.619  10.451  65.379  1.00  0.00    -0.303 A  
HETATM    8  C   UNL     1     -10.349  12.797  65.319  1.00  0.00    -0.313 A  
HETATM    9  C   UNL     1      -9.879  10.412  63.999  1.00  0.00    -0.355 A  
HETATM   10  C   UNL     1      -9.821  11.698  66.008  1.00  0.00    -0.230 A  
HETATM   11  C   UNL     1     -10.348  11.521  63.294  1.00  0.00    -0.435 A  
HETATM   12 CL   UNL     1      -9.454  11.910  67.686  1.00  0.00    -0.178 Cl 
HETATM   13  C   UNL     1     -10.608  12.707  63.957  1.00  0.00    -0.457 A  
ENDBRANCH   6   7
ENDBRANCH   3   6
BRANCH   3  14
HETATM   14  C   UNL     1      -7.434   7.438  65.568  1.00  0.00    -0.088 C  
BRANCH  14  15
HETATM   15  C   UNL     1      -8.613   6.404  65.584  1.00  0.00    -0.133 C  
BRANCH  15  16
HETATM   16  N   UNL     1      -8.600   5.369  66.608  1.00  0.00    -0.114 N  
HETATM   17  H   UNL     1      -8.115   5.528  67.491  1.00  0.00     0.000 HD 
HETATM   18  C   UNL     1      -9.253   4.162  66.375  1.00  0.00    -0.157 C  
HETATM   19  O   UNL     1     -10.007   3.973  65.435  1.00  0.00    -0.195 OA 
BRANCH  18  20
HETATM   20  C   UNL     1      -9.048   3.090  67.474  1.00  0.00    -0.180 C  
HETATM   21  N   UNL     1      -8.568   3.566  68.695  1.00  0.00    -0.086 N  
HETATM   22  O   UNL     1      -9.308   1.917  67.261  1.00  0.00    -0.109 OA 
HETATM   23  H   UNL     1      -8.086   4.463  68.754  1.00  0.00     0.000 HD 
BRANCH  21  24
HETATM   24  C   UNL     1      -8.775   2.750  69.886  1.00  0.00    -0.070 C  
BRANCH  24  25
HETATM   25  C   UNL     1      -7.930   3.159  71.123  1.00  0.00    -0.054 C  
BRANCH  25  26
HETATM   26  N   UNL     1      -8.659   4.080  72.131  1.00  0.00    -0.103 N  
BRANCH  26  27
HETATM   27  C   UNL     1     -10.110   3.570  72.379  1.00  0.00    -0.162 C  
HETATM   28  C   UNL     1     -10.554   3.558  73.835  1.00  0.00    -0.281 C  
ENDBRANCH  26  27
BRANCH  26  29
HETATM   29  C   UNL     1      -7.830   4.094  73.445  1.00  0.00    -0.085 C  
HETATM   30  C   UNL     1      -6.376   4.504  73.294  1.00  0.00    -0.041 C  
ENDBRANCH  26  29
BRANCH  26  31
HETATM   31  C   UNL     1      -8.769   5.540  71.555  1.00  0.00    -0.136 C  
BRANCH  31  32
HETATM   32  C   UNL     1     -10.086   6.287  71.679  1.00  0.00    -0.214 A  
HETATM   33  C   UNL     1     -11.113   6.090  70.731  1.00  0.00    -0.355 A  
HETATM   34  C   UNL     1     -12.280   6.860  70.748  1.00  0.00    -0.364 A  
HETATM   35  C   UNL     1     -12.441   7.858  71.699  1.00  0.00    -0.344 A  
HETATM   36  C   UNL     1     -11.453   8.062  72.657  1.00  0.00    -0.465 A  
HETATM   37  C   UNL     1     -10.293   7.281  72.656  1.00  0.00    -0.225 A  
HETATM   38 CL   UNL     1      -9.129   7.619  73.887  1.00  0.00    -0.314 Cl 
ENDBRANCH  31  32
ENDBRANCH  26  31
ENDBRANCH  25  26
ENDBRANCH  24  25
ENDBRANCH  21  24
ENDBRANCH  18  20
ENDBRANCH  15  16
ENDBRANCH  14  15
ENDBRANCH   3  14
ENDBRANCH   2   3
TORSDOF 15
ENDMDL
MODEL      304
REMARK 921   NORMALIZED FREE ENERGY PREDICTED BY IDOCK:   -3.56 KCAL/MOL
REMARK 922        TOTAL FREE ENERGY PREDICTED BY IDOCK:   -9.33 KCAL/MOL
REMARK 923 INTER-LIGAND FREE ENERGY PREDICTED BY IDOCK:   -8.02 KCAL/MOL
REMARK 924 INTRA-LIGAND FREE ENERGY PREDICTED BY IDOCK:   -1.32 KCAL/MOL
REMARK 927      BINDING AFFINITY PREDICTED BY RF-SCORE:    0.00 PKD
ROOT
HETATM    1  C   UNL     1      -9.717   3.876  70.544  1.00  0.00    -0.247 C  
HETATM    2  C   UNL     1     -10.273   5.289  70.447  1.00  0.00    -0.268 C  
ENDROOT
BRANCH   2   3
HETATM    3  N   UNL     1      -9.356   6.328  69.730  1.00  0.00    -0.145 N  
BRANCH   3   4
HETATM    4  C   UNL     1     -10.177   7.126  68.675  1.00  0.00    -0.179 C  
HETATM    5  C   UNL     1     -11.287   6.364  67.996  1.00  0.00    -0.086 C  
ENDBRANCH   3   4
BRANCH   3   6
HETATM    6  C   UNL     1      -8.261   5.605  68.911  1.00  0.00    -0.100 C  
BRANCH   6   7
HETATM    7  C   UNL     1      -7.616   6.222  67.673  1.00  0.00    -0.097 A  
HETATM    8  C   UNL     1      -7.172   6.045  65.263  1.00  0.00    -0.070 A  
HETATM    9  C   UNL     1      -6.804   7.368  67.664  1.00  0.00    -0.078 A  
HETATM   10  C   UNL     1      -7.822   5.604  66.422  1.00  0.00    -0.101 A  
HETATM   11  C   UNL     1      -6.201   7.849  66.501  1.00  0.00    -0.046 A  
HETATM   12 CL   UNL     1      -8.872   4.236  66.276  1.00  0.00    -0.114 Cl 
HETATM   13  C   UNL     1      -6.363   7.174  65.304  1.00  0.00    -0.037 A  
ENDBRANCH   6   7
ENDBRANCH   3   6
BRANCH   3  14
HETATM   14  C   UNL     1      -8.751   7.234  70.878  1.00  0.00    -0.148 C  
BRANCH  14  15
HETATM   15  C   UNL     1      -9.771   7.930  71.844  1.00  0.00    -0.177 C  
BRANCH  15  16
HETATM   16  N   UNL     1     -10.337   9.207  71.436  1.00  0.00    -0.324 N  
HETATM   17  H   UNL     1      -9.732   9.944  71.073  1.00  0.00     0.000 HD 
HETATM   18  C   UNL     1     -11.708   9.418  71.543  1.00  0.00    -0.394 C  
HETATM   19  O   UNL     1     -12.511   8.532  71.782  1.00  0.00    -0.308 OA 
BRANCH  18  20
HETATM   20  C   UNL     1     -12.172  10.860  71.216  1.00  0.00    -0.290 C  
HETATM   21  N   UNL     1     -11.394  11.542  70.278  1.00  0.00    -0.491 N  
HETATM   22  O   UNL     1     -13.160  11.336  71.749  1.00  0.00    -0.472 OA 
HETATM   23  H   UNL     1     -10.436  11.252  70.083  1.00  0.00     0.000 HD 
BRANCH  21  24
HETATM   24  C   UNL     1     -11.985  12.680  69.584  1.00  0.00    -0.286 C  
BRANCH  24  25
HETATM   25  C   UNL     1     -11.423  12.953  68.163  1.00  0.00    -0.315 C  
BRANCH  25  26
HETATM   26  N   UNL     1     -10.226  13.933  68.116  1.00  0.00    -0.242 N  
BRANCH  26  27
HETATM   27  C   UNL     1     -10.522  15.192  68.984  1.00  0.00    -0.248 C  
HETATM   28  C   UNL     1     -11.031  16.404  68.217  1.00  0.00    -0.355 C  
ENDBRANCH  26  27
BRANCH  26  29
HETATM   29  C   UNL     1      -8.972  13.172  68.629  1.00  0.00     0.049 C  
HETATM   30  C   UNL     1      -7.638  13.822  68.306  1.00  0.00    -0.129 C  
ENDBRANCH  26  29
BRANCH  26  31
HETATM   31  C   UNL     1      -9.983  14.427  66.641  1.00  0.00    -0.272 C  
BRANCH  31  32
HETATM   32  C   UNL     1     -10.723  13.746  65.503  1.00  0.00    -0.304 A  
HETATM   33  C   UNL     1     -10.740  12.339  65.401  1.00  0.00    -0.320 A  
HETATM   34  C   UNL     1     -11.301  11.693  64.293  1.00  0.00    -0.361 A  
HETATM   35  C   UNL     1     -11.839  12.438  63.253  1.00  0.00    -0.491 A  
HETATM   36  C   UNL     1     -11.853  13.827  63.336  1.00  0.00     0.037 A  
HETATM   37  C   UNL     1     -11.311  14.476  64.450  1.00  0.00    -0.236 A  
HETATM   38 CL   UNL     1     -11.375  16.202  64.450  1.00  0.00    -0.375 Cl 
ENDBRANCH  31  32
ENDBRANCH  26  31
ENDBRANCH  25  26
ENDBRANCH  24  25
ENDBRANCH  21  24
ENDBRANCH  18  20
ENDBRANCH  15  16
ENDBRANCH  14  15
ENDBRANCH   3  14
ENDBRANCH   2   3
TORSDOF 15
ENDMDL
MODEL      305
REMARK 921   NORMALIZED FREE ENERGY PREDICTED BY IDOCK:   -3.55 KCAL/MOL
REMARK 922        TOTAL FREE ENERGY PREDICTED BY IDOCK:   -9.33 KCAL/MOL
REMARK 923 INTER-LIGAND FREE ENERGY PREDICTED BY IDOCK:   -9.21 KCAL/MOL
REMARK 924 INTRA-LIGAND FREE ENERGY PREDICTED BY IDOCK:   -0.12 KCAL/MOL
REMARK 927      BINDING AFFINITY PREDICTED BY RF-SCORE:    0.00 PKD
ROOT
HETATM    1  C   UNL     1     -10.883   5.808  66.780  1.00  0.00    -0.327 C  
HETATM    2  C   UNL     1     -10.442   6.691  67.938  1.00  0.00    -0.219 C  
ENDROOT
BRANCH   2   3
HETATM    3  N   UNL     1      -9.175   6.210  68.710  1.00  0.00    -0.125 N  
BRANCH   3   4
HETATM    4  C   UNL     1      -8.398   5.163  67.859  1.00  0.00    -0.097 C  
HETATM    5  C   UNL     1      -6.938   5.461  67.625  1.00  0.00    -0.066 C  
ENDBRANCH   3   4
BRANCH   3   6
HETATM    6  C   UNL     1      -9.583   5.448  69.993  1.00  0.00    -0.169 C  
BRANCH   6   7
HETATM    7  C   UNL     1      -9.505   6.073  71.382  1.00  0.00    -0.172 A  
HETATM    8  C   UNL     1     -10.610   7.428  73.110  1.00  0.00    -0.424 A  
HETATM    9  C   UNL     1      -8.375   6.065  72.216  1.00  0.00    -0.113 A  
HETATM   10  C   UNL     1     -10.642   6.734  71.893  1.00  0.00    -0.209 A  
HETATM   11  C   UNL     1      -8.355   6.703  73.458  1.00  0.00    -0.127 A  
HETATM   12 CL   UNL     1     -12.129   6.744  71.009  1.00  0.00    -0.429 Cl 
HETATM   13  C   UNL     1      -9.463   7.408  73.894  1.00  0.00    -0.312 A  
ENDBRANCH   6   7
ENDBRANCH   3   6
BRANCH   3  14
HETATM   14  C   UNL     1      -8.339   7.516  69.025  1.00  0.00    -0.129 C  
BRANCH  14  15
HETATM   15  C   UNL     1      -9.144   8.776  69.496  1.00  0.00    -0.146 C  
BRANCH  15  16
HETATM   16  N   UNL     1      -8.943  10.024  68.774  1.00  0.00    -0.138 N  
HETATM   17  H   UNL     1      -9.603  10.311  68.052  1.00  0.00     0.000 HD 
HETATM   18  C   UNL     1      -7.844  10.825  69.075  1.00  0.00    -0.138 C  
HETATM   19  O   UNL     1      -7.126  10.649  70.045  1.00  0.00    -0.158 OA 
BRANCH  18  20
HETATM   20  C   UNL     1      -7.659  12.050  68.146  1.00  0.00    -0.120 C  
HETATM   21  N   UNL     1      -8.730  12.326  67.295  1.00  0.00    -0.180 N  
HETATM   22  O   UNL     1      -6.638  12.716  68.185  1.00  0.00    -0.065 OA 
HETATM   23  H   UNL     1      -9.417  11.607  67.068  1.00  0.00     0.000 HD 
BRANCH  21  24
HETATM   24  C   UNL     1      -8.845  13.669  66.738  1.00  0.00    -0.133 C  
BRANCH  24  25
HETATM   25  C   UNL     1      -9.091  14.797  67.776  1.00  0.00    -0.186 C  
BRANCH  25  26
HETATM   26  N   UNL     1     -10.548  14.900  68.289  1.00  0.00    -0.236 N  
BRANCH  26  27
HETATM   27  C   UNL     1     -10.760  16.239  69.056  1.00  0.00    -0.300 C  
HETATM   28  C   UNL     1     -10.392  17.496  68.280  1.00  0.00    -0.379 C  
ENDBRANCH  26  27
BRANCH  26  29
HETATM   29  C   UNL     1     -11.492  14.795  67.059  1.00  0.00    -0.353 C  
HETATM   30  C   UNL     1     -12.279  13.501  66.950  1.00  0.00    -0.377 C  
ENDBRANCH  26  29
BRANCH  26  31
HETATM   31  C   UNL     1     -10.855  13.730  69.297  1.00  0.00    -0.103 C  
BRANCH  31  32
HETATM   32  C   UNL     1     -11.940  13.921  70.344  1.00  0.00    -0.393 A  
HETATM   33  C   UNL     1     -12.405  15.214  70.664  1.00  0.00    -0.420 A  
HETATM   34  C   UNL     1     -13.305  15.428  71.713  1.00  0.00    -0.567 A  
HETATM   35  C   UNL     1     -13.747  14.357  72.479  1.00  0.00    -0.589 A  
HETATM   36  C   UNL     1     -13.319  13.069  72.173  1.00  0.00    -0.622 A  
HETATM   37  C   UNL     1     -12.434  12.849  71.112  1.00  0.00    -0.249 A  
HETATM   38 CL   UNL     1     -11.963  11.213  70.822  1.00  0.00    -0.438 Cl 
ENDBRANCH  31  32
ENDBRANCH  26  31
ENDBRANCH  25  26
ENDBRANCH  24  25
ENDBRANCH  21  24
ENDBRANCH  18  20
ENDBRANCH  15  16
ENDBRANCH  14  15
ENDBRANCH   3  14
ENDBRANCH   2   3
TORSDOF 15
ENDMDL
MODEL      306
REMARK 921   NORMALIZED FREE ENERGY PREDICTED BY IDOCK:   -3.55 KCAL/MOL
REMARK 922        TOTAL FREE ENERGY PREDICTED BY IDOCK:   -9.32 KCAL/MOL
REMARK 923 INTER-LIGAND FREE ENERGY PREDICTED BY IDOCK:   -6.82 KCAL/MOL
REMARK 924 INTRA-LIGAND FREE ENERGY PREDICTED BY IDOCK:   -2.50 KCAL/MOL
REMARK 927      BINDING AFFINITY PREDICTED BY RF-SCORE:    0.00 PKD
ROOT
HETATM    1  C   UNL     1      -9.616   3.570  70.900  1.00  0.00    -0.242 C  
HETATM    2  C   UNL     1      -9.152   4.993  71.175  1.00  0.00    -0.142 C  
ENDROOT
BRANCH   2   3
HETATM    3  N   UNL     1     -10.179   5.907  71.912  1.00  0.00    -0.198 N  
BRANCH   3   4
HETATM    4  C   UNL     1     -11.125   5.042  72.795  1.00  0.00    -0.241 C  
HETATM    5  C   UNL     1     -10.649   4.777  74.201  1.00  0.00    -0.351 C  
ENDBRANCH   3   4
BRANCH   3   6
HETATM    6  C   UNL     1     -11.116   6.596  70.892  1.00  0.00    -0.286 C  
BRANCH   6   7
HETATM    7  C   UNL     1     -11.893   7.869  71.216  1.00  0.00    -0.321 A  
HETATM    8  C   UNL     1     -12.031  10.315  71.030  1.00  0.00    -0.483 A  
HETATM    9  C   UNL     1     -13.039   7.939  72.025  1.00  0.00    -0.257 A  
HETATM   10  C   UNL     1     -11.438   9.094  70.685  1.00  0.00    -0.262 A  
HETATM   11  C   UNL     1     -13.672   9.147  72.324  1.00  0.00    -0.548 A  
HETATM   12 CL   UNL     1     -10.089   9.141  69.602  1.00  0.00    -0.194 Cl 
HETATM   13  C   UNL     1     -13.154  10.338  71.849  1.00  0.00    -0.568 A  
ENDBRANCH   6   7
ENDBRANCH   3   6
BRANCH   3  14
HETATM   14  C   UNL     1      -9.317   6.947  72.737  1.00  0.00    -0.135 C  
BRANCH  14  15
HETATM   15  C   UNL     1      -7.790   7.032  72.394  1.00  0.00    -0.094 C  
BRANCH  15  16
HETATM   16  N   UNL     1      -7.406   7.658  71.137  1.00  0.00    -0.072 N  
HETATM   17  H   UNL     1      -7.622   7.202  70.250  1.00  0.00     0.000 HD 
HETATM   18  C   UNL     1      -6.743   8.881  71.151  1.00  0.00    -0.081 C  
HETATM   19  O   UNL     1      -6.622   9.572  72.149  1.00  0.00    -0.281 OA 
BRANCH  18  20
HETATM   20  C   UNL     1      -6.260   9.375  69.765  1.00  0.00    -0.039 C  
HETATM   21  N   UNL     1      -5.634   8.413  68.970  1.00  0.00    -0.038 N  
HETATM   22  O   UNL     1      -6.439  10.529  69.414  1.00  0.00    -0.049 OA 
HETATM   23  H   UNL     1      -5.235   7.571  69.384  1.00  0.00     0.000 HD 
BRANCH  21  24
HETATM   24  C   UNL     1      -5.564   8.642  67.531  1.00  0.00    -0.039 C  
BRANCH  24  25
HETATM   25  C   UNL     1      -6.426   7.684  66.665  1.00  0.00    -0.053 C  
BRANCH  25  26
HETATM   26  N   UNL     1      -7.414   8.390  65.705  1.00  0.00    -0.076 N  
BRANCH  26  27
HETATM   27  C   UNL     1      -8.263   9.441  66.479  1.00  0.00    -0.115 C  
HETATM   28  C   UNL     1      -9.607   9.783  65.849  1.00  0.00    -0.313 C  
ENDBRANCH  26  27
BRANCH  26  29
HETATM   29  C   UNL     1      -6.582   9.055  64.574  1.00  0.00    -0.074 C  
HETATM   30  C   UNL     1      -6.831   8.515  63.178  1.00  0.00    -0.090 C  
ENDBRANCH  26  29
BRANCH  26  31
HETATM   31  C   UNL     1      -8.414   7.344  65.086  1.00  0.00    -0.022 C  
BRANCH  31  32
HETATM   32  C   UNL     1      -8.465   5.940  65.664  1.00  0.00    -0.153 A  
HETATM   33  C   UNL     1      -7.609   4.932  65.172  1.00  0.00    -0.078 A  
HETATM   34  C   UNL     1      -7.727   3.603  65.593  1.00  0.00    -0.085 A  
HETATM   35  C   UNL     1      -8.714   3.246  66.501  1.00  0.00    -0.130 A  
HETATM   36  C   UNL     1      -9.560   4.223  67.017  1.00  0.00    -0.227 A  
HETATM   37  C   UNL     1      -9.433   5.557  66.613  1.00  0.00    -0.146 A  
HETATM   38 CL   UNL     1     -10.536   6.687  67.312  1.00  0.00    -0.339 Cl 
ENDBRANCH  31  32
ENDBRANCH  26  31
ENDBRANCH  25  26
ENDBRANCH  24  25
ENDBRANCH  21  24
ENDBRANCH  18  20
ENDBRANCH  15  16
ENDBRANCH  14  15
ENDBRANCH   3  14
ENDBRANCH   2   3
TORSDOF 15
ENDMDL
MODEL      307
REMARK 921   NORMALIZED FREE ENERGY PREDICTED BY IDOCK:   -3.53 KCAL/MOL
REMARK 922        TOTAL FREE ENERGY PREDICTED BY IDOCK:   -9.28 KCAL/MOL
REMARK 923 INTER-LIGAND FREE ENERGY PREDICTED BY IDOCK:   -8.00 KCAL/MOL
REMARK 924 INTRA-LIGAND FREE ENERGY PREDICTED BY IDOCK:   -1.29 KCAL/MOL
REMARK 927      BINDING AFFINITY PREDICTED BY RF-SCORE:    0.00 PKD
ROOT
HETATM    1  C   UNL     1     -10.902  15.905  64.864  1.00  0.00    -0.420 C  
HETATM    2  C   UNL     1     -10.448  17.004  65.813  1.00  0.00    -0.251 C  
ENDROOT
BRANCH   2   3
HETATM    3  N   UNL     1      -9.248  16.641  66.742  1.00  0.00    -0.227 N  
BRANCH   3   4
HETATM    4  C   UNL     1      -9.613  16.944  68.225  1.00  0.00    -0.258 C  
HETATM    5  C   UNL     1     -11.035  17.376  68.476  1.00  0.00    -0.072 C  
ENDBRANCH   3   4
BRANCH   3   6
HETATM    6  C   UNL     1      -8.038  17.555  66.440  1.00  0.00    -0.274 C  
BRANCH   6   7
HETATM    7  C   UNL     1      -7.189  18.187  67.539  1.00  0.00    -0.205 A  
HETATM    8  C   UNL     1      -6.630  20.207  68.823  1.00  0.00    -0.339 A  
HETATM    9  C   UNL     1      -6.144  17.549  68.228  1.00  0.00    -0.167 A  
HETATM   10  C   UNL     1      -7.441  19.526  67.906  1.00  0.00    -0.275 A  
HETATM   11  C   UNL     1      -5.370  18.204  69.188  1.00  0.00    -0.193 A  
HETATM   12 CL   UNL     1      -8.755  20.402  67.200  1.00  0.00    -0.424 Cl 
HETATM   13  C   UNL     1      -5.595  19.540  69.468  1.00  0.00    -0.245 A  
ENDBRANCH   6   7
ENDBRANCH   3   6
BRANCH   3  14
HETATM   14  C   UNL     1      -8.935  15.114  66.467  1.00  0.00    -0.291 C  
BRANCH  14  15
HETATM   15  C   UNL     1      -9.055  14.135  67.685  1.00  0.00    -0.194 C  
BRANCH  15  16
HETATM   16  N   UNL     1      -8.936  12.707  67.428  1.00  0.00    -0.181 N  
HETATM   17  H   UNL     1      -8.201  12.164  67.880  1.00  0.00     0.000 HD 
HETATM   18  C   UNL     1      -9.833  12.087  66.562  1.00  0.00    -0.209 C  
HETATM   19  O   UNL     1     -10.844  12.621  66.140  1.00  0.00    -0.265 OA 
BRANCH  18  20
HETATM   20  C   UNL     1      -9.519  10.601  66.257  1.00  0.00    -0.177 C  
HETATM   21  N   UNL     1      -9.040   9.854  67.335  1.00  0.00    -0.134 N  
HETATM   22  O   UNL     1      -9.698  10.139  65.143  1.00  0.00    -0.262 OA 
HETATM   23  H   UNL     1      -8.623  10.313  68.145  1.00  0.00     0.000 HD 
BRANCH  21  24
HETATM   24  C   UNL     1      -9.152   8.402  67.276  1.00  0.00    -0.137 C  
BRANCH  24  25
HETATM   25  C   UNL     1     -10.420   7.807  67.947  1.00  0.00    -0.201 C  
BRANCH  25  26
HETATM   26  N   UNL     1     -10.413   7.843  69.495  1.00  0.00    -0.225 N  
BRANCH  26  27
HETATM   27  C   UNL     1      -8.951   7.854  70.029  1.00  0.00    -0.145 C  
HETATM   28  C   UNL     1      -8.636   8.949  71.039  1.00  0.00    -0.255 C  
ENDBRANCH  26  27
BRANCH  26  29
HETATM   29  C   UNL     1     -11.190   9.112  69.942  1.00  0.00    -0.102 C  
HETATM   30  C   UNL     1     -12.430   8.856  70.780  1.00  0.00     0.031 C  
ENDBRANCH  26  29
BRANCH  26  31
HETATM   31  C   UNL     1     -11.114   6.558  70.073  1.00  0.00    -0.363 C  
BRANCH  31  32
HETATM   32  C   UNL     1     -10.255   5.428  70.615  1.00  0.00    -0.323 A  
HETATM   33  C   UNL     1      -9.760   4.428  69.751  1.00  0.00    -0.291 A  
HETATM   34  C   UNL     1      -9.079   3.309  70.244  1.00  0.00    -0.196 A  
HETATM   35  C   UNL     1      -8.894   3.154  71.611  1.00  0.00    -0.126 A  
HETATM   36  C   UNL     1      -9.355   4.134  72.484  1.00  0.00    -0.158 A  
HETATM   37  C   UNL     1     -10.019   5.264  71.994  1.00  0.00    -0.187 A  
HETATM   38 CL   UNL     1     -10.554   6.416  73.164  1.00  0.00    -0.256 Cl 
ENDBRANCH  31  32
ENDBRANCH  26  31
ENDBRANCH  25  26
ENDBRANCH  24  25
ENDBRANCH  21  24
ENDBRANCH  18  20
ENDBRANCH  15  16
ENDBRANCH  14  15
ENDBRANCH   3  14
ENDBRANCH   2   3
TORSDOF 15
ENDMDL
MODEL      308
REMARK 921   NORMALIZED FREE ENERGY PREDICTED BY IDOCK:   -3.52 KCAL/MOL
REMARK 922        TOTAL FREE ENERGY PREDICTED BY IDOCK:   -9.26 KCAL/MOL
REMARK 923 INTER-LIGAND FREE ENERGY PREDICTED BY IDOCK:   -7.43 KCAL/MOL
REMARK 924 INTRA-LIGAND FREE ENERGY PREDICTED BY IDOCK:   -1.84 KCAL/MOL
REMARK 927      BINDING AFFINITY PREDICTED BY RF-SCORE:    0.00 PKD
ROOT
HETATM    1  C   UNL     1     -10.918  16.912  68.010  1.00  0.00    -0.271 C  
HETATM    2  C   UNL     1     -11.206  15.443  67.737  1.00  0.00    -0.321 C  
ENDROOT
BRANCH   2   3
HETATM    3  N   UNL     1     -10.613  14.873  66.411  1.00  0.00    -0.299 N  
BRANCH   3   4
HETATM    4  C   UNL     1     -10.620  15.972  65.309  1.00  0.00    -0.402 C  
HETATM    5  C   UNL     1     -11.771  15.919  64.337  1.00  0.00    -0.179 C  
ENDBRANCH   3   4
BRANCH   3   6
HETATM    6  C   UNL     1     -11.521  13.752  65.854  1.00  0.00    -0.322 C  
BRANCH   6   7
HETATM    7  C   UNL     1     -10.966  12.505  65.173  1.00  0.00    -0.332 A  
HETATM    8  C   UNL     1     -10.268  10.159  65.397  1.00  0.00    -0.281 A  
HETATM    9  C   UNL     1     -10.514  12.435  63.845  1.00  0.00    -0.469 A  
HETATM   10  C   UNL     1     -10.872  11.310  65.918  1.00  0.00    -0.202 A  
HETATM   11  C   UNL     1      -9.968  11.272  63.299  1.00  0.00    -0.428 A  
HETATM   12 CL   UNL     1     -11.473  11.231  67.539  1.00  0.00    -0.352 Cl 
HETATM   13  C   UNL     1      -9.820  10.141  64.082  1.00  0.00    -0.226 A  
ENDBRANCH   6   7
ENDBRANCH   3   6
BRANCH   3  14
HETATM   14  C   UNL     1      -9.164  14.351  66.775  1.00  0.00    -0.268 C  
BRANCH  14  15
HETATM   15  C   UNL     1      -8.940  13.846  68.242  1.00  0.00    -0.187 C  
BRANCH  15  16
HETATM   16  N   UNL     1      -8.531  12.462  68.434  1.00  0.00    -0.260 N  
HETATM   17  H   UNL     1      -9.122  11.701  68.100  1.00  0.00     0.000 HD 
HETATM   18  C   UNL     1      -7.327  12.184  69.074  1.00  0.00     0.000 C  
HETATM   19  O   UNL     1      -6.484  13.028  69.325  1.00  0.00    -0.101 OA 
BRANCH  18  20
HETATM   20  C   UNL     1      -7.069  10.680  69.346  1.00  0.00    -0.120 C  
HETATM   21  N   UNL     1      -7.555  10.199  70.563  1.00  0.00    -0.155 N  
HETATM   22  O   UNL     1      -6.487   9.987  68.529  1.00  0.00    -0.049 OA 
HETATM   23  H   UNL     1      -7.758  10.835  71.334  1.00  0.00     0.000 HD 
BRANCH  21  24
HETATM   24  C   UNL     1      -7.768   8.763  70.704  1.00  0.00    -0.094 C  
BRANCH  24  25
HETATM   25  C   UNL     1      -8.349   8.311  72.072  1.00  0.00    -0.165 C  
BRANCH  25  26
HETATM   26  N   UNL     1      -8.758   6.820  72.142  1.00  0.00    -0.132 N  
BRANCH  26  27
HETATM   27  C   UNL     1      -7.498   5.908  72.072  1.00  0.00    -0.096 C  
HETATM   28  C   UNL     1      -7.247   5.051  73.305  1.00  0.00    -0.086 C  
ENDBRANCH  26  27
BRANCH  26  29
HETATM   29  C   UNL     1      -9.541   6.606  73.467  1.00  0.00    -0.173 C  
HETATM   30  C   UNL     1     -11.024   6.319  73.309  1.00  0.00    -0.221 C  
ENDBRANCH  26  29
BRANCH  26  31
HETATM   31  C   UNL     1      -9.673   6.448  70.916  1.00  0.00    -0.176 C  
BRANCH  31  32
HETATM   32  C   UNL     1      -9.179   5.424  69.908  1.00  0.00    -0.174 A  
HETATM   33  C   UNL     1      -8.641   5.839  68.672  1.00  0.00    -0.109 A  
HETATM   34  C   UNL     1      -8.302   4.916  67.676  1.00  0.00    -0.105 A  
HETATM   35  C   UNL     1      -8.510   3.559  67.886  1.00  0.00    -0.108 A  
HETATM   36  C   UNL     1      -9.021   3.121  69.103  1.00  0.00    -0.181 A  
HETATM   37  C   UNL     1      -9.344   4.039  70.109  1.00  0.00    -0.170 A  
HETATM   38 CL   UNL     1      -9.975   3.389  71.579  1.00  0.00    -0.214 Cl 
ENDBRANCH  31  32
ENDBRANCH  26  31
ENDBRANCH  25  26
ENDBRANCH  24  25
ENDBRANCH  21  24
ENDBRANCH  18  20
ENDBRANCH  15  16
ENDBRANCH  14  15
ENDBRANCH   3  14
ENDBRANCH   2   3
TORSDOF 15
ENDMDL
MODEL      309
REMARK 921   NORMALIZED FREE ENERGY PREDICTED BY IDOCK:   -3.52 KCAL/MOL
REMARK 922        TOTAL FREE ENERGY PREDICTED BY IDOCK:   -9.26 KCAL/MOL
REMARK 923 INTER-LIGAND FREE ENERGY PREDICTED BY IDOCK:   -8.93 KCAL/MOL
REMARK 924 INTRA-LIGAND FREE ENERGY PREDICTED BY IDOCK:   -0.33 KCAL/MOL
REMARK 927      BINDING AFFINITY PREDICTED BY RF-SCORE:    0.00 PKD
ROOT
HETATM    1  C   UNL     1     -10.564  19.257  65.670  1.00  0.00    -0.338 C  
HETATM    2  C   UNL     1     -10.536  17.829  66.192  1.00  0.00    -0.301 C  
ENDROOT
BRANCH   2   3
HETATM    3  N   UNL     1      -9.466  17.531  67.288  1.00  0.00    -0.249 N  
BRANCH   3   4
HETATM    4  C   UNL     1      -9.714  18.431  68.533  1.00  0.00    -0.361 C  
HETATM    5  C   UNL     1     -10.611  19.623  68.314  1.00  0.00    -0.323 C  
ENDBRANCH   3   4
BRANCH   3   6
HETATM    6  C   UNL     1      -8.058  17.931  66.788  1.00  0.00    -0.238 C  
BRANCH   6   7
HETATM    7  C   UNL     1      -7.150  18.884  67.561  1.00  0.00    -0.219 A  
HETATM    8  C   UNL     1      -5.746  19.258  69.543  1.00  0.00    -0.258 A  
HETATM    9  C   UNL     1      -6.904  20.225  67.225  1.00  0.00    -0.287 A  
HETATM   10  C   UNL     1      -6.502  18.411  68.721  1.00  0.00    -0.231 A  
HETATM   11  C   UNL     1      -6.102  21.058  68.007  1.00  0.00    -0.398 A  
HETATM   12 CL   UNL     1      -6.647  16.755  69.201  1.00  0.00    -0.202 Cl 
HETATM   13  C   UNL     1      -5.544  20.584  69.180  1.00  0.00    -0.366 A  
ENDBRANCH   6   7
ENDBRANCH   3   6
BRANCH   3  14
HETATM   14  C   UNL     1      -9.580  15.982  67.594  1.00  0.00    -0.218 C  
BRANCH  14  15
HETATM   15  C   UNL     1      -9.401  15.005  66.381  1.00  0.00    -0.303 C  
BRANCH  15  16
HETATM   16  N   UNL     1      -9.282  13.582  66.662  1.00  0.00    -0.356 N  
HETATM   17  H   UNL     1     -10.035  12.943  66.406  1.00  0.00     0.000 HD 
HETATM   18  C   UNL     1      -8.133  13.097  67.281  1.00  0.00    -0.146 C  
HETATM   19  O   UNL     1      -7.121  13.759  67.440  1.00  0.00    -0.171 OA 
BRANCH  18  20
HETATM   20  C   UNL     1      -8.182  11.595  67.657  1.00  0.00    -0.141 C  
HETATM   21  N   UNL     1      -8.578  10.732  66.633  1.00  0.00    -0.139 N  
HETATM   22  O   UNL     1      -7.879  11.220  68.777  1.00  0.00    -0.135 OA 
HETATM   23  H   UNL     1      -9.101  11.080  65.829  1.00  0.00     0.000 HD 
BRANCH  21  24
HETATM   24  C   UNL     1      -8.224   9.322  66.740  1.00  0.00    -0.115 C  
BRANCH  24  25
HETATM   25  C   UNL     1      -9.426   8.342  66.824  1.00  0.00    -0.197 C  
BRANCH  25  26
HETATM   26  N   UNL     1      -9.461   7.466  68.100  1.00  0.00    -0.138 N  
BRANCH  26  27
HETATM   27  C   UNL     1     -10.810   6.694  68.190  1.00  0.00    -0.263 C  
HETATM   28  C   UNL     1     -10.784   5.275  67.639  1.00  0.00    -0.038 C  
ENDBRANCH  26  27
BRANCH  26  29
HETATM   29  C   UNL     1      -8.252   6.492  68.038  1.00  0.00    -0.116 C  
HETATM   30  C   UNL     1      -7.418   6.406  69.304  1.00  0.00    -0.094 C  
ENDBRANCH  26  29
BRANCH  26  31
HETATM   31  C   UNL     1      -9.351   8.370  69.384  1.00  0.00    -0.154 C  
BRANCH  31  32
HETATM   32  C   UNL     1     -10.603   9.042  69.923  1.00  0.00    -0.240 A  
HETATM   33  C   UNL     1     -11.056  10.259  69.371  1.00  0.00    -0.299 A  
HETATM   34  C   UNL     1     -12.126  10.963  69.933  1.00  0.00    -0.428 A  
HETATM   35  C   UNL     1     -12.755  10.479  71.072  1.00  0.00    -0.504 A  
HETATM   36  C   UNL     1     -12.342   9.272  71.626  1.00  0.00    -0.450 A  
HETATM   37  C   UNL     1     -11.285   8.554  71.055  1.00  0.00    -0.268 A  
HETATM   38 CL   UNL     1     -10.850   7.071  71.825  1.00  0.00    -0.242 Cl 
ENDBRANCH  31  32
ENDBRANCH  26  31
ENDBRANCH  25  26
ENDBRANCH  24  25
ENDBRANCH  21  24
ENDBRANCH  18  20
ENDBRANCH  15  16
ENDBRANCH  14  15
ENDBRANCH   3  14
ENDBRANCH   2   3
TORSDOF 15
ENDMDL
MODEL      310
REMARK 921   NORMALIZED FREE ENERGY PREDICTED BY IDOCK:   -3.51 KCAL/MOL
REMARK 922        TOTAL FREE ENERGY PREDICTED BY IDOCK:   -9.25 KCAL/MOL
REMARK 923 INTER-LIGAND FREE ENERGY PREDICTED BY IDOCK:   -7.89 KCAL/MOL
REMARK 924 INTRA-LIGAND FREE ENERGY PREDICTED BY IDOCK:   -1.37 KCAL/MOL
REMARK 927      BINDING AFFINITY PREDICTED BY RF-SCORE:    0.00 PKD
ROOT
HETATM    1  C   UNL     1      -5.650  19.823  69.670  1.00  0.00    -0.279 C  
HETATM    2  C   UNL     1      -5.639  18.301  69.686  1.00  0.00    -0.219 C  
ENDROOT
BRANCH   2   3
HETATM    3  N   UNL     1      -6.297  17.608  68.452  1.00  0.00    -0.182 N  
BRANCH   3   4
HETATM    4  C   UNL     1      -6.186  18.529  67.202  1.00  0.00    -0.170 C  
HETATM    5  C   UNL     1      -5.586  17.896  65.972  1.00  0.00    -0.241 C  
ENDBRANCH   3   4
BRANCH   3   6
HETATM    6  C   UNL     1      -7.817  17.436  68.679  1.00  0.00    -0.274 C  
BRANCH   6   7
HETATM    7  C   UNL     1      -8.859  18.288  67.960  1.00  0.00    -0.290 A  
HETATM    8  C   UNL     1     -10.295  18.576  65.986  1.00  0.00    -0.423 A  
HETATM    9  C   UNL     1      -9.312  19.549  68.382  1.00  0.00    -0.431 A  
HETATM   10  C   UNL     1      -9.420  17.802  66.760  1.00  0.00    -0.285 A  
HETATM   11  C   UNL     1     -10.231  20.299  67.646  1.00  0.00    -0.469 A  
HETATM   12 CL   UNL     1      -9.017  16.226  66.171  1.00  0.00    -0.370 Cl 
HETATM   13  C   UNL     1     -10.703  19.826  66.435  1.00  0.00    -0.499 A  
ENDBRANCH   6   7
ENDBRANCH   3   6
BRANCH   3  14
HETATM   14  C   UNL     1      -5.551  16.223  68.287  1.00  0.00    -0.108 C  
BRANCH  14  15
HETATM   15  C   UNL     1      -6.102  15.016  69.123  1.00  0.00    -0.103 C  
BRANCH  15  16
HETATM   16  N   UNL     1      -7.106  14.161  68.509  1.00  0.00    -0.095 N  
HETATM   17  H   UNL     1      -8.095  14.305  68.710  1.00  0.00     0.000 HD 
HETATM   18  C   UNL     1      -6.708  13.145  67.644  1.00  0.00    -0.160 C  
HETATM   19  O   UNL     1      -5.575  13.033  67.208  1.00  0.00    -0.338 OA 
BRANCH  18  20
HETATM   20  C   UNL     1      -7.850  12.213  67.168  1.00  0.00    -0.160 C  
HETATM   21  N   UNL     1      -7.627  10.847  67.351  1.00  0.00    -0.097 N  
HETATM   22  O   UNL     1      -8.870  12.671  66.679  1.00  0.00    -0.203 OA 
HETATM   23  H   UNL     1      -6.682  10.483  67.472  1.00  0.00     0.000 HD 
BRANCH  21  24
HETATM   24  C   UNL     1      -8.779   9.953  67.366  1.00  0.00    -0.128 C  
BRANCH  24  25
HETATM   25  C   UNL     1      -9.627   9.987  68.666  1.00  0.00    -0.155 C  
BRANCH  25  26
HETATM   26  N   UNL     1      -9.398   8.791  69.622  1.00  0.00    -0.156 N  
BRANCH  26  27
HETATM   27  C   UNL     1      -8.761   9.279  70.956  1.00  0.00    -0.116 C  
HETATM   28  C   UNL     1      -7.820   8.288  71.628  1.00  0.00    -0.139 C  
ENDBRANCH  26  27
BRANCH  26  29
HETATM   29  C   UNL     1     -10.773   8.110  69.866  1.00  0.00    -0.241 C  
HETATM   30  C   UNL     1     -11.563   8.641  71.049  1.00  0.00    -0.325 C  
ENDBRANCH  26  29
BRANCH  26  31
HETATM   31  C   UNL     1      -8.400   7.760  68.976  1.00  0.00    -0.131 C  
BRANCH  31  32
HETATM   32  C   UNL     1      -8.790   6.293  68.913  1.00  0.00    -0.124 A  
HETATM   33  C   UNL     1      -8.304   5.382  69.874  1.00  0.00    -0.100 A  
HETATM   34  C   UNL     1      -8.541   4.007  69.763  1.00  0.00    -0.098 A  
HETATM   35  C   UNL     1      -9.252   3.510  68.680  1.00  0.00    -0.225 A  
HETATM   36  C   UNL     1      -9.760   4.388  67.728  1.00  0.00    -0.191 A  
HETATM   37  C   UNL     1      -9.542   5.765  67.845  1.00  0.00    -0.115 A  
HETATM   38 CL   UNL     1     -10.211   6.764  66.606  1.00  0.00    -0.245 Cl 
ENDBRANCH  31  32
ENDBRANCH  26  31
ENDBRANCH  25  26
ENDBRANCH  24  25
ENDBRANCH  21  24
ENDBRANCH  18  20
ENDBRANCH  15  16
ENDBRANCH  14  15
ENDBRANCH   3  14
ENDBRANCH   2   3
TORSDOF 15
ENDMDL
MODEL      311
REMARK 921   NORMALIZED FREE ENERGY PREDICTED BY IDOCK:   -3.50 KCAL/MOL
REMARK 922        TOTAL FREE ENERGY PREDICTED BY IDOCK:   -9.23 KCAL/MOL
REMARK 923 INTER-LIGAND FREE ENERGY PREDICTED BY IDOCK:   -8.44 KCAL/MOL
REMARK 924 INTRA-LIGAND FREE ENERGY PREDICTED BY IDOCK:   -0.79 KCAL/MOL
REMARK 927      BINDING AFFINITY PREDICTED BY RF-SCORE:    0.00 PKD
ROOT
HETATM    1  C   UNL     1      -7.724   6.952  72.509  1.00  0.00    -0.095 C  
HETATM    2  C   UNL     1      -8.445   5.627  72.711  1.00  0.00    -0.120 C  
ENDROOT
BRANCH   2   3
HETATM    3  N   UNL     1      -9.969   5.729  73.030  1.00  0.00    -0.171 N  
BRANCH   3   4
HETATM    4  C   UNL     1     -10.357   4.681  74.114  1.00  0.00    -0.250 C  
HETATM    5  C   UNL     1     -11.236   3.549  73.647  1.00  0.00    -0.278 C  
ENDBRANCH   3   4
BRANCH   3   6
HETATM    6  C   UNL     1     -10.805   5.339  71.789  1.00  0.00    -0.128 C  
BRANCH   6   7
HETATM    7  C   UNL     1     -10.236   5.354  70.374  1.00  0.00    -0.332 A  
HETATM    8  C   UNL     1      -8.969   4.162  68.638  1.00  0.00    -0.158 A  
HETATM    9  C   UNL     1     -10.260   6.452  69.498  1.00  0.00    -0.228 A  
HETATM   10  C   UNL     1      -9.614   4.188  69.881  1.00  0.00    -0.211 A  
HETATM   11  C   UNL     1      -9.672   6.414  68.233  1.00  0.00    -0.127 A  
HETATM   12 CL   UNL     1      -9.591   2.735  70.820  1.00  0.00    -0.215 Cl 
HETATM   13  C   UNL     1      -9.003   5.279  67.811  1.00  0.00    -0.110 A  
ENDBRANCH   6   7
ENDBRANCH   3   6
BRANCH   3  14
HETATM   14  C   UNL     1     -10.217   7.226  73.479  1.00  0.00    -0.358 C  
BRANCH  14  15
HETATM   15  C   UNL     1     -11.337   8.018  72.720  1.00  0.00    -0.374 C  
BRANCH  15  16
HETATM   16  N   UNL     1     -10.933   8.910  71.643  1.00  0.00    -0.319 N  
HETATM   17  H   UNL     1     -10.113   8.692  71.076  1.00  0.00     0.000 HD 
HETATM   18  C   UNL     1     -11.672  10.062  71.391  1.00  0.00    -0.334 C  
HETATM   19  O   UNL     1     -12.760  10.290  71.891  1.00  0.00    -0.415 OA 
BRANCH  18  20
HETATM   20  C   UNL     1     -11.064  11.002  70.320  1.00  0.00    -0.003 C  
HETATM   21  N   UNL     1     -11.890  12.046  69.898  1.00  0.00    -0.373 N  
HETATM   22  O   UNL     1      -9.933  10.825  69.900  1.00  0.00     0.012 OA 
HETATM   23  H   UNL     1     -12.901  11.998  70.028  1.00  0.00     0.000 HD 
BRANCH  21  24
HETATM   24  C   UNL     1     -11.273  13.207  69.268  1.00  0.00    -0.206 C  
BRANCH  24  25
HETATM   25  C   UNL     1     -10.281  12.886  68.117  1.00  0.00    -0.239 C  
BRANCH  25  26
HETATM   26  N   UNL     1      -9.946  14.086  67.197  1.00  0.00    -0.248 N  
BRANCH  26  27
HETATM   27  C   UNL     1      -8.610  14.752  67.641  1.00  0.00    -0.174 C  
HETATM   28  C   UNL     1      -7.824  13.989  68.699  1.00  0.00    -0.130 C  
ENDBRANCH  26  27
BRANCH  26  29
HETATM   29  C   UNL     1      -9.858  13.555  65.740  1.00  0.00    -0.201 C  
HETATM   30  C   UNL     1      -9.478  12.091  65.601  1.00  0.00    -0.150 C  
ENDBRANCH  26  29
BRANCH  26  31
HETATM   31  C   UNL     1     -11.072  15.181  67.298  1.00  0.00    -0.332 C  
BRANCH  31  32
HETATM   32  C   UNL     1     -10.672  16.643  67.412  1.00  0.00    -0.253 A  
HETATM   33  C   UNL     1     -10.359  17.204  68.668  1.00  0.00    -0.359 A  
HETATM   34  C   UNL     1     -10.118  18.573  68.817  1.00  0.00    -0.394 A  
HETATM   35  C   UNL     1     -10.202  19.418  67.719  1.00  0.00    -0.530 A  
HETATM   36  C   UNL     1     -10.490  18.889  66.465  1.00  0.00    -0.500 A  
HETATM   37  C   UNL     1     -10.714  17.517  66.307  1.00  0.00    -0.087 A  
HETATM   38 CL   UNL     1     -11.068  16.967  64.709  1.00  0.00    -0.053 Cl 
ENDBRANCH  31  32
ENDBRANCH  26  31
ENDBRANCH  25  26
ENDBRANCH  24  25
ENDBRANCH  21  24
ENDBRANCH  18  20
ENDBRANCH  15  16
ENDBRANCH  14  15
ENDBRANCH   3  14
ENDBRANCH   2   3
TORSDOF 15
ENDMDL
MODEL      312
REMARK 921   NORMALIZED FREE ENERGY PREDICTED BY IDOCK:   -3.49 KCAL/MOL
REMARK 922        TOTAL FREE ENERGY PREDICTED BY IDOCK:   -9.21 KCAL/MOL
REMARK 923 INTER-LIGAND FREE ENERGY PREDICTED BY IDOCK:   -7.16 KCAL/MOL
REMARK 924 INTRA-LIGAND FREE ENERGY PREDICTED BY IDOCK:   -2.04 KCAL/MOL
REMARK 927      BINDING AFFINITY PREDICTED BY RF-SCORE:    0.00 PKD
ROOT
HETATM    1  C   UNL     1      -9.766   3.475  72.498  1.00  0.00    -0.209 C  
HETATM    2  C   UNL     1     -10.357   4.767  71.952  1.00  0.00    -0.172 C  
ENDROOT
BRANCH   2   3
HETATM    3  N   UNL     1      -9.325   5.823  71.448  1.00  0.00    -0.146 N  
BRANCH   3   4
HETATM    4  C   UNL     1      -9.893   6.574  70.209  1.00  0.00    -0.168 C  
HETATM    5  C   UNL     1     -11.292   6.192  69.795  1.00  0.00    -0.452 C  
ENDBRANCH   3   4
BRANCH   3   6
HETATM    6  C   UNL     1      -8.047   5.121  70.930  1.00  0.00    -0.105 C  
BRANCH   6   7
HETATM    7  C   UNL     1      -7.449   5.409  69.556  1.00  0.00    -0.069 A  
HETATM    8  C   UNL     1      -7.221   4.717  67.209  1.00  0.00    -0.073 A  
HETATM    9  C   UNL     1      -6.535   6.435  69.266  1.00  0.00    -0.043 A  
HETATM   10  C   UNL     1      -7.815   4.585  68.471  1.00  0.00    -0.079 A  
HETATM   11  C   UNL     1      -5.985   6.611  67.995  1.00  0.00    -0.024 A  
HETATM   12 CL   UNL     1      -8.999   3.339  68.668  1.00  0.00    -0.167 Cl 
HETATM   13  C   UNL     1      -6.307   5.737  66.972  1.00  0.00    -0.038 A  
ENDBRANCH   6   7
ENDBRANCH   3   6
BRANCH   3  14
HETATM   14  C   UNL     1      -9.035   6.768  72.684  1.00  0.00    -0.129 C  
BRANCH  14  15
HETATM   15  C   UNL     1     -10.163   7.782  73.081  1.00  0.00    -0.335 C  
BRANCH  15  16
HETATM   16  N   UNL     1     -10.491   8.842  72.139  1.00  0.00    -0.317 N  
HETATM   17  H   UNL     1      -9.750   9.328  71.635  1.00  0.00     0.000 HD 
HETATM   18  C   UNL     1     -11.823   9.188  71.930  1.00  0.00    -0.369 C  
HETATM   19  O   UNL     1     -12.765   8.533  72.344  1.00  0.00    -0.369 OA 
BRANCH  18  20
HETATM   20  C   UNL     1     -12.038  10.422  71.018  1.00  0.00    -0.385 C  
HETATM   21  N   UNL     1     -10.907  10.864  70.329  1.00  0.00    -0.430 N  
HETATM   22  O   UNL     1     -13.136  10.945  70.921  1.00  0.00    -0.298 OA 
HETATM   23  H   UNL     1      -9.971  10.615  70.647  1.00  0.00     0.000 HD 
BRANCH  21  24
HETATM   24  C   UNL     1     -11.098  11.689  69.142  1.00  0.00    -0.245 C  
BRANCH  24  25
HETATM   25  C   UNL     1      -9.960  11.607  68.089  1.00  0.00    -0.195 C  
BRANCH  25  26
HETATM   26  N   UNL     1     -10.432  11.305  66.645  1.00  0.00    -0.238 N  
BRANCH  26  27
HETATM   27  C   UNL     1     -10.733   9.786  66.481  1.00  0.00     0.011 C  
HETATM   28  C   UNL     1     -10.189   8.892  67.586  1.00  0.00    -0.296 C  
ENDBRANCH  26  27
BRANCH  26  29
HETATM   29  C   UNL     1     -11.695  12.167  66.371  1.00  0.00    -0.324 C  
HETATM   30  C   UNL     1     -12.092  12.297  64.911  1.00  0.00    -0.422 C  
ENDBRANCH  26  29
BRANCH  26  31
HETATM   31  C   UNL     1      -9.302  11.673  65.614  1.00  0.00    -0.180 C  
BRANCH  31  32
HETATM   32  C   UNL     1      -8.342  10.589  65.152  1.00  0.00    -0.150 A  
HETATM   33  C   UNL     1      -7.209  10.259  65.925  1.00  0.00    -0.131 A  
HETATM   34  C   UNL     1      -6.243   9.361  65.459  1.00  0.00    -0.065 A  
HETATM   35  C   UNL     1      -6.376   8.787  64.202  1.00  0.00    -0.072 A  
HETATM   36  C   UNL     1      -7.492   9.081  63.426  1.00  0.00    -0.099 A  
HETATM   37  C   UNL     1      -8.471   9.963  63.896  1.00  0.00    -0.181 A  
HETATM   38 CL   UNL     1      -9.813  10.261  62.851  1.00  0.00    -0.200 Cl 
ENDBRANCH  31  32
ENDBRANCH  26  31
ENDBRANCH  25  26
ENDBRANCH  24  25
ENDBRANCH  21  24
ENDBRANCH  18  20
ENDBRANCH  15  16
ENDBRANCH  14  15
ENDBRANCH   3  14
ENDBRANCH   2   3
TORSDOF 15
ENDMDL
MODEL      313
REMARK 921   NORMALIZED FREE ENERGY PREDICTED BY IDOCK:   -3.48 KCAL/MOL
REMARK 922        TOTAL FREE ENERGY PREDICTED BY IDOCK:   -9.19 KCAL/MOL
REMARK 923 INTER-LIGAND FREE ENERGY PREDICTED BY IDOCK:   -7.20 KCAL/MOL
REMARK 924 INTRA-LIGAND FREE ENERGY PREDICTED BY IDOCK:   -2.00 KCAL/MOL
REMARK 927      BINDING AFFINITY PREDICTED BY RF-SCORE:    0.00 PKD
ROOT
HETATM    1  C   UNL     1     -11.120  10.132  68.619  1.00  0.00    -0.254 C  
HETATM    2  C   UNL     1     -10.507  10.126  67.227  1.00  0.00    -0.256 C  
ENDROOT
BRANCH   2   3
HETATM    3  N   UNL     1      -9.175  10.924  67.071  1.00  0.00    -0.152 N  
BRANCH   3   4
HETATM    4  C   UNL     1      -8.539  11.177  68.469  1.00  0.00    -0.157 C  
HETATM    5  C   UNL     1      -7.312  12.053  68.483  1.00  0.00    -0.111 C  
ENDBRANCH   3   4
BRANCH   3   6
HETATM    6  C   UNL     1      -9.457  12.336  66.506  1.00  0.00    -0.236 C  
BRANCH   6   7
HETATM    7  C   UNL     1     -10.437  12.586  65.364  1.00  0.00    -0.308 A  
HETATM    8  C   UNL     1     -12.179  14.032  64.407  1.00  0.00    -0.457 A  
HETATM    9  C   UNL     1     -10.687  11.705  64.298  1.00  0.00    -0.398 A  
HETATM   10  C   UNL     1     -11.180  13.785  65.358  1.00  0.00    -0.302 A  
HETATM   11  C   UNL     1     -11.638  11.973  63.313  1.00  0.00    -0.409 A  
HETATM   12 CL   UNL     1     -10.909  14.998  66.562  1.00  0.00    -0.316 Cl 
HETATM   13  C   UNL     1     -12.403  13.123  63.380  1.00  0.00    -0.443 A  
ENDBRANCH   6   7
ENDBRANCH   3   6
BRANCH   3  14
HETATM   14  C   UNL     1      -8.264  10.060  66.108  1.00  0.00    -0.121 C  
BRANCH  14  15
HETATM   15  C   UNL     1      -8.647   8.549  65.936  1.00  0.00    -0.163 C  
BRANCH  15  16
HETATM   16  N   UNL     1      -8.003   7.578  66.808  1.00  0.00    -0.112 N  
HETATM   17  H   UNL     1      -7.845   7.797  67.792  1.00  0.00     0.000 HD 
HETATM   18  C   UNL     1      -7.604   6.348  66.292  1.00  0.00    -0.090 C  
HETATM   19  O   UNL     1      -7.927   5.942  65.189  1.00  0.00    -0.107 OA 
BRANCH  18  20
HETATM   20  C   UNL     1      -6.804   5.459  67.277  1.00  0.00    -0.060 C  
HETATM   21  N   UNL     1      -6.625   5.990  68.555  1.00  0.00    -0.056 N  
HETATM   22  O   UNL     1      -6.381   4.368  66.933  1.00  0.00    -0.035 OA 
HETATM   23  H   UNL     1      -6.715   6.992  68.723  1.00  0.00     0.000 HD 
BRANCH  21  24
HETATM   24  C   UNL     1      -6.306   5.077  69.646  1.00  0.00    -0.030 C  
BRANCH  24  25
HETATM   25  C   UNL     1      -7.399   4.944  70.741  1.00  0.00    -0.064 C  
BRANCH  25  26
HETATM   26  N   UNL     1      -7.983   3.519  70.905  1.00  0.00    -0.056 N  
BRANCH  26  27
HETATM   27  C   UNL     1      -7.444   2.581  69.786  1.00  0.00    -0.043 C  
HETATM   28  C   UNL     1      -8.503   2.004  68.856  1.00  0.00    -0.087 C  
ENDBRANCH  26  27
BRANCH  26  29
HETATM   29  C   UNL     1      -7.585   3.005  72.316  1.00  0.00    -0.053 C  
HETATM   30  C   UNL     1      -7.164   1.548  72.385  1.00  0.00    -0.030 C  
ENDBRANCH  26  29
BRANCH  26  31
HETATM   31  C   UNL     1      -9.551   3.554  70.773  1.00  0.00    -0.176 C  
BRANCH  31  32
HETATM   32  C   UNL     1     -10.281   4.869  70.987  1.00  0.00    -0.262 A  
HETATM   33  C   UNL     1     -10.647   5.282  72.285  1.00  0.00    -0.280 A  
HETATM   34  C   UNL     1     -11.433   6.420  72.496  1.00  0.00    -0.283 A  
HETATM   35  C   UNL     1     -11.889   7.161  71.413  1.00  0.00    -0.344 A  
HETATM   36  C   UNL     1     -11.527   6.787  70.123  1.00  0.00    -0.404 A  
HETATM   37  C   UNL     1     -10.725   5.661  69.909  1.00  0.00    -0.329 A  
HETATM   38 CL   UNL     1     -10.340   5.284  68.268  1.00  0.00    -0.211 Cl 
ENDBRANCH  31  32
ENDBRANCH  26  31
ENDBRANCH  25  26
ENDBRANCH  24  25
ENDBRANCH  21  24
ENDBRANCH  18  20
ENDBRANCH  15  16
ENDBRANCH  14  15
ENDBRANCH   3  14
ENDBRANCH   2   3
TORSDOF 15
ENDMDL
MODEL      314
REMARK 921   NORMALIZED FREE ENERGY PREDICTED BY IDOCK:   -3.46 KCAL/MOL
REMARK 922        TOTAL FREE ENERGY PREDICTED BY IDOCK:   -9.16 KCAL/MOL
REMARK 923 INTER-LIGAND FREE ENERGY PREDICTED BY IDOCK:   -7.98 KCAL/MOL
REMARK 924 INTRA-LIGAND FREE ENERGY PREDICTED BY IDOCK:   -1.18 KCAL/MOL
REMARK 927      BINDING AFFINITY PREDICTED BY RF-SCORE:    0.00 PKD
ROOT
HETATM    1  C   UNL     1      -7.558  15.513  67.440  1.00  0.00    -0.231 C  
HETATM    2  C   UNL     1      -8.681  15.053  66.521  1.00  0.00    -0.208 C  
ENDROOT
BRANCH   2   3
HETATM    3  N   UNL     1     -10.076  14.873  67.195  1.00  0.00    -0.238 N  
BRANCH   3   4
HETATM    4  C   UNL     1     -10.921  16.169  67.025  1.00  0.00    -0.123 C  
HETATM    5  C   UNL     1     -10.399  17.166  66.021  1.00  0.00    -0.317 C  
ENDBRANCH   3   4
BRANCH   3   6
HETATM    6  C   UNL     1      -9.917  14.707  68.725  1.00  0.00    -0.235 C  
BRANCH   6   7
HETATM    7  C   UNL     1     -11.102  14.738  69.684  1.00  0.00    -0.299 A  
HETATM    8  C   UNL     1     -12.385  16.007  71.353  1.00  0.00    -0.393 A  
HETATM    9  C   UNL     1     -11.951  13.654  69.964  1.00  0.00    -0.413 A  
HETATM   10  C   UNL     1     -11.386  15.936  70.373  1.00  0.00    -0.385 A  
HETATM   11  C   UNL     1     -12.988  13.736  70.895  1.00  0.00    -0.287 A  
HETATM   12 CL   UNL     1     -10.475  17.373  70.058  1.00  0.00     0.298 Cl 
HETATM   13  C   UNL     1     -13.190  14.903  71.610  1.00  0.00    -0.444 A  
ENDBRANCH   6   7
ENDBRANCH   3   6
BRANCH   3  14
HETATM   14  C   UNL     1     -10.724  13.601  66.514  1.00  0.00    -0.284 C  
BRANCH  14  15
HETATM   15  C   UNL     1      -9.900  12.268  66.573  1.00  0.00    -0.229 C  
BRANCH  15  16
HETATM   16  N   UNL     1      -9.783  11.593  67.857  1.00  0.00    -0.174 N  
HETATM   17  H   UNL     1      -8.909  11.636  68.382  1.00  0.00     0.000 HD 
HETATM   18  C   UNL     1     -10.871  10.889  68.366  1.00  0.00    -0.222 C  
HETATM   19  O   UNL     1     -11.995  10.952  67.898  1.00  0.00    -0.585 OA 
BRANCH  18  20
HETATM   20  C   UNL     1     -10.581  10.096  69.665  1.00  0.00    -0.257 C  
HETATM   21  N   UNL     1      -9.477   9.244  69.615  1.00  0.00    -0.170 N  
HETATM   22  O   UNL     1     -11.282  10.237  70.653  1.00  0.00    -0.315 OA 
HETATM   23  H   UNL     1      -9.104   8.923  68.721  1.00  0.00     0.000 HD 
BRANCH  21  24
HETATM   24  C   UNL     1      -8.868   8.825  70.871  1.00  0.00    -0.200 C  
BRANCH  24  25
HETATM   25  C   UNL     1      -9.593   7.662  71.603  1.00  0.00    -0.153 C  
BRANCH  25  26
HETATM   26  N   UNL     1      -9.362   6.262  70.983  1.00  0.00    -0.160 N  
BRANCH  26  27
HETATM   27  C   UNL     1      -9.066   5.218  72.100  1.00  0.00    -0.136 C  
HETATM   28  C   UNL     1      -9.902   3.947  72.040  1.00  0.00    -0.245 C  
ENDBRANCH  26  27
BRANCH  26  29
HETATM   29  C   UNL     1     -10.636   5.885  70.178  1.00  0.00    -0.292 C  
HETATM   30  C   UNL     1     -11.899   6.632  70.568  1.00  0.00    -0.430 C  
ENDBRANCH  26  29
BRANCH  26  31
HETATM   31  C   UNL     1      -8.114   6.289  70.025  1.00  0.00    -0.120 C  
BRANCH  31  32
HETATM   32  C   UNL     1      -8.261   5.770  68.604  1.00  0.00    -0.105 A  
HETATM   33  C   UNL     1      -8.694   6.626  67.570  1.00  0.00    -0.118 A  
HETATM   34  C   UNL     1      -8.964   6.142  66.286  1.00  0.00    -0.162 A  
HETATM   35  C   UNL     1      -8.826   4.788  66.009  1.00  0.00    -0.123 A  
HETATM   36  C   UNL     1      -8.382   3.925  67.005  1.00  0.00    -0.100 A  
HETATM   37  C   UNL     1      -8.093   4.407  68.286  1.00  0.00    -0.082 A  
HETATM   38 CL   UNL     1      -7.554   3.249  69.448  1.00  0.00    -0.048 Cl 
ENDBRANCH  31  32
ENDBRANCH  26  31
ENDBRANCH  25  26
ENDBRANCH  24  25
ENDBRANCH  21  24
ENDBRANCH  18  20
ENDBRANCH  15  16
ENDBRANCH  14  15
ENDBRANCH   3  14
ENDBRANCH   2   3
TORSDOF 15
ENDMDL
MODEL      315
REMARK 921   NORMALIZED FREE ENERGY PREDICTED BY IDOCK:   -3.45 KCAL/MOL
REMARK 922        TOTAL FREE ENERGY PREDICTED BY IDOCK:   -9.13 KCAL/MOL
REMARK 923 INTER-LIGAND FREE ENERGY PREDICTED BY IDOCK:   -8.64 KCAL/MOL
REMARK 924 INTRA-LIGAND FREE ENERGY PREDICTED BY IDOCK:   -0.49 KCAL/MOL
REMARK 927      BINDING AFFINITY PREDICTED BY RF-SCORE:    0.00 PKD
ROOT
HETATM    1  C   UNL     1      -8.862   8.302  70.530  1.00  0.00    -0.148 C  
HETATM    2  C   UNL     1      -8.080   7.364  69.622  1.00  0.00    -0.128 C  
ENDROOT
BRANCH   2   3
HETATM    3  N   UNL     1      -8.925   6.288  68.873  1.00  0.00    -0.126 N  
BRANCH   3   4
HETATM    4  C   UNL     1      -9.925   5.615  69.858  1.00  0.00    -0.204 C  
HETATM    5  C   UNL     1     -11.377   5.970  69.663  1.00  0.00    -0.328 C  
ENDBRANCH   3   4
BRANCH   3   6
HETATM    6  C   UNL     1      -8.017   5.134  68.387  1.00  0.00    -0.087 C  
BRANCH   6   7
HETATM    7  C   UNL     1      -7.566   3.999  69.301  1.00  0.00    -0.054 A  
HETATM    8  C   UNL     1      -7.905   1.684  70.052  1.00  0.00    -0.047 A  
HETATM    9  C   UNL     1      -6.577   4.098  70.294  1.00  0.00    -0.032 A  
HETATM   10  C   UNL     1      -8.185   2.738  69.173  1.00  0.00    -0.054 A  
HETATM   11  C   UNL     1      -6.249   3.032  71.133  1.00  0.00    -0.018 A  
HETATM   12 CL   UNL     1      -9.358   2.452  67.933  1.00  0.00    -0.248 Cl 
HETATM   13  C   UNL     1      -6.931   1.832  71.031  1.00  0.00    -0.032 A  
ENDBRANCH   6   7
ENDBRANCH   3   6
BRANCH   3  14
HETATM   14  C   UNL     1      -9.629   7.047  67.677  1.00  0.00    -0.131 C  
BRANCH  14  15
HETATM   15  C   UNL     1      -8.728   7.991  66.808  1.00  0.00    -0.133 C  
BRANCH  15  16
HETATM   16  N   UNL     1      -9.378   9.057  66.059  1.00  0.00    -0.224 N  
HETATM   17  H   UNL     1      -9.329   9.072  65.041  1.00  0.00     0.000 HD 
HETATM   18  C   UNL     1     -10.068  10.055  66.741  1.00  0.00    -0.226 C  
HETATM   19  O   UNL     1     -10.332  10.001  67.931  1.00  0.00    -0.180 OA 
BRANCH  18  20
HETATM   20  C   UNL     1     -10.592  11.208  65.850  1.00  0.00    -0.234 C  
HETATM   21  N   UNL     1     -11.725  11.869  66.327  1.00  0.00    -0.254 N  
HETATM   22  O   UNL     1     -10.026  11.504  64.811  1.00  0.00    -0.242 OA 
HETATM   23  H   UNL     1     -12.339  11.426  67.011  1.00  0.00     0.000 HD 
BRANCH  21  24
HETATM   24  C   UNL     1     -12.010  13.207  65.825  1.00  0.00    -0.423 C  
BRANCH  24  25
HETATM   25  C   UNL     1     -12.265  14.284  66.915  1.00  0.00    -0.331 C  
BRANCH  25  26
HETATM   26  N   UNL     1     -11.044  14.596  67.815  1.00  0.00    -0.287 N  
BRANCH  26  27
HETATM   27  C   UNL     1      -9.719  14.351  67.035  1.00  0.00    -0.254 C  
HETATM   28  C   UNL     1      -8.605  13.694  67.837  1.00  0.00    -0.181 C  
ENDBRANCH  26  27
BRANCH  26  29
HETATM   29  C   UNL     1     -11.164  16.074  68.279  1.00  0.00    -0.350 C  
HETATM   30  C   UNL     1     -10.772  17.115  67.246  1.00  0.00    -0.208 C  
ENDBRANCH  26  29
BRANCH  26  31
HETATM   31  C   UNL     1     -11.033  13.644  69.068  1.00  0.00    -0.234 C  
BRANCH  31  32
HETATM   32  C   UNL     1     -12.106  13.809  70.131  1.00  0.00    -0.429 A  
HETATM   33  C   UNL     1     -12.535  15.095  70.521  1.00  0.00    -0.429 A  
HETATM   34  C   UNL     1     -13.422  15.278  71.587  1.00  0.00    -0.573 A  
HETATM   35  C   UNL     1     -13.887  14.181  72.300  1.00  0.00    -0.643 A  
HETATM   36  C   UNL     1     -13.496  12.900  71.925  1.00  0.00    -0.478 A  
HETATM   37  C   UNL     1     -12.623  12.711  70.848  1.00  0.00    -0.249 A  
HETATM   38 CL   UNL     1     -12.198  11.081  70.470  1.00  0.00    -0.438 Cl 
ENDBRANCH  31  32
ENDBRANCH  26  31
ENDBRANCH  25  26
ENDBRANCH  24  25
ENDBRANCH  21  24
ENDBRANCH  18  20
ENDBRANCH  15  16
ENDBRANCH  14  15
ENDBRANCH   3  14
ENDBRANCH   2   3
TORSDOF 15
ENDMDL
MODEL      316
REMARK 921   NORMALIZED FREE ENERGY PREDICTED BY IDOCK:   -3.45 KCAL/MOL
REMARK 922        TOTAL FREE ENERGY PREDICTED BY IDOCK:   -9.13 KCAL/MOL
REMARK 923 INTER-LIGAND FREE ENERGY PREDICTED BY IDOCK:   -7.47 KCAL/MOL
REMARK 924 INTRA-LIGAND FREE ENERGY PREDICTED BY IDOCK:   -1.66 KCAL/MOL
REMARK 927      BINDING AFFINITY PREDICTED BY RF-SCORE:    0.00 PKD
ROOT
HETATM    1  C   UNL     1     -12.150  10.225  71.496  1.00  0.00    -0.407 C  
HETATM    2  C   UNL     1     -11.658   9.224  70.461  1.00  0.00    -0.217 C  
ENDROOT
BRANCH   2   3
HETATM    3  N   UNL     1     -11.642   7.733  70.919  1.00  0.00    -0.282 N  
BRANCH   3   4
HETATM    4  C   UNL     1     -13.010   7.063  70.602  1.00  0.00     0.220 C  
HETATM    5  C   UNL     1     -14.084   7.238  71.646  1.00  0.00    -0.522 C  
ENDBRANCH   3   4
BRANCH   3   6
HETATM    6  C   UNL     1     -11.507   7.643  72.457  1.00  0.00    -0.352 C  
BRANCH   6   7
HETATM    7  C   UNL     1     -10.847   6.460  73.159  1.00  0.00    -0.282 A  
HETATM    8  C   UNL     1      -8.883   5.593  74.355  1.00  0.00    -0.121 A  
HETATM    9  C   UNL     1     -11.370   5.157  73.224  1.00  0.00    -0.361 A  
HETATM   10  C   UNL     1      -9.601   6.655  73.791  1.00  0.00    -0.203 A  
HETATM   11  C   UNL     1     -10.687   4.106  73.838  1.00  0.00    -0.320 A  
HETATM   12 CL   UNL     1      -8.885   8.229  73.863  1.00  0.00    -0.229 Cl 
HETATM   13  C   UNL     1      -9.432   4.316  74.381  1.00  0.00    -0.128 A  
ENDBRANCH   6   7
ENDBRANCH   3   6
BRANCH   3  14
HETATM   14  C   UNL     1     -10.421   7.064  70.167  1.00  0.00    -0.214 C  
BRANCH  14  15
HETATM   15  C   UNL     1     -10.161   7.522  68.690  1.00  0.00    -0.184 C  
BRANCH  15  16
HETATM   16  N   UNL     1      -9.032   8.406  68.437  1.00  0.00    -0.136 N  
HETATM   17  H   UNL     1      -8.311   8.533  69.147  1.00  0.00     0.000 HD 
HETATM   18  C   UNL     1      -8.941   9.076  67.221  1.00  0.00    -0.127 C  
HETATM   19  O   UNL     1      -9.651   8.831  66.260  1.00  0.00    -0.223 OA 
BRANCH  18  20
HETATM   20  C   UNL     1      -7.778  10.094  67.124  1.00  0.00    -0.092 C  
HETATM   21  N   UNL     1      -8.156  11.420  66.906  1.00  0.00    -0.153 N  
HETATM   22  O   UNL     1      -6.619   9.734  67.247  1.00  0.00    -0.069 OA 
HETATM   23  H   UNL     1      -9.071  11.645  66.515  1.00  0.00     0.000 HD 
BRANCH  21  24
HETATM   24  C   UNL     1      -7.212  12.476  67.250  1.00  0.00    -0.114 C  
BRANCH  24  25
HETATM   25  C   UNL     1      -7.519  13.235  68.569  1.00  0.00    -0.115 C  
BRANCH  25  26
HETATM   26  N   UNL     1      -8.223  14.601  68.383  1.00  0.00    -0.146 N  
BRANCH  26  27
HETATM   27  C   UNL     1      -9.738  14.479  68.721  1.00  0.00    -0.210 C  
HETATM   28  C   UNL     1     -10.276  15.530  69.683  1.00  0.00    -0.289 C  
ENDBRANCH  26  27
BRANCH  26  29
HETATM   29  C   UNL     1      -7.516  15.629  69.308  1.00  0.00    -0.216 C  
HETATM   30  C   UNL     1      -5.998  15.610  69.263  1.00  0.00    -0.112 C  
ENDBRANCH  26  29
BRANCH  26  31
HETATM   31  C   UNL     1      -8.115  15.070  66.884  1.00  0.00    -0.126 C  
BRANCH  31  32
HETATM   32  C   UNL     1      -9.356  15.594  66.182  1.00  0.00    -0.382 A  
HETATM   33  C   UNL     1     -10.119  14.748  65.350  1.00  0.00    -0.406 A  
HETATM   34  C   UNL     1     -11.187  15.238  64.591  1.00  0.00    -0.366 A  
HETATM   35  C   UNL     1     -11.505  16.589  64.630  1.00  0.00     0.021 A  
HETATM   36  C   UNL     1     -10.781  17.443  65.456  1.00  0.00    -0.081 A  
HETATM   37  C   UNL     1      -9.725  16.953  66.232  1.00  0.00    -0.280 A  
HETATM   38 CL   UNL     1      -8.891  18.099  67.219  1.00  0.00    -0.248 Cl 
ENDBRANCH  31  32
ENDBRANCH  26  31
ENDBRANCH  25  26
ENDBRANCH  24  25
ENDBRANCH  21  24
ENDBRANCH  18  20
ENDBRANCH  15  16
ENDBRANCH  14  15
ENDBRANCH   3  14
ENDBRANCH   2   3
TORSDOF 15
ENDMDL
MODEL      317
REMARK 921   NORMALIZED FREE ENERGY PREDICTED BY IDOCK:   -3.44 KCAL/MOL
REMARK 922        TOTAL FREE ENERGY PREDICTED BY IDOCK:   -9.11 KCAL/MOL
REMARK 923 INTER-LIGAND FREE ENERGY PREDICTED BY IDOCK:   -7.12 KCAL/MOL
REMARK 924 INTRA-LIGAND FREE ENERGY PREDICTED BY IDOCK:   -1.99 KCAL/MOL
REMARK 927      BINDING AFFINITY PREDICTED BY RF-SCORE:    0.00 PKD
ROOT
HETATM    1  C   UNL     1      -8.411   2.763  70.180  1.00  0.00    -0.087 C  
HETATM    2  C   UNL     1      -9.469   3.781  69.780  1.00  0.00    -0.185 C  
ENDROOT
BRANCH   2   3
HETATM    3  N   UNL     1      -9.209   5.246  70.251  1.00  0.00    -0.139 N  
BRANCH   3   4
HETATM    4  C   UNL     1     -10.345   5.705  71.211  1.00  0.00    -0.228 C  
HETATM    5  C   UNL     1     -11.210   6.834  70.711  1.00  0.00    -0.352 C  
ENDBRANCH   3   4
BRANCH   3   6
HETATM    6  C   UNL     1      -9.290   6.219  69.052  1.00  0.00    -0.126 C  
BRANCH   6   7
HETATM    7  C   UNL     1      -8.447   6.046  67.792  1.00  0.00    -0.107 A  
HETATM    8  C   UNL     1      -8.375   5.416  65.418  1.00  0.00    -0.139 A  
HETATM    9  C   UNL     1      -7.051   6.185  67.722  1.00  0.00    -0.081 A  
HETATM   10  C   UNL     1      -9.093   5.703  66.586  1.00  0.00    -0.129 A  
HETATM   11  C   UNL     1      -6.334   5.960  66.545  1.00  0.00    -0.038 A  
HETATM   12 CL   UNL     1     -10.818   5.586  66.511  1.00  0.00    -0.319 Cl 
HETATM   13  C   UNL     1      -6.992   5.550  65.399  1.00  0.00    -0.064 A  
ENDBRANCH   6   7
ENDBRANCH   3   6
BRANCH   3  14
HETATM   14  C   UNL     1      -7.778   5.235  70.925  1.00  0.00    -0.093 C  
BRANCH  14  15
HETATM   15  C   UNL     1      -7.482   6.356  71.981  1.00  0.00    -0.093 C  
BRANCH  15  16
HETATM   16  N   UNL     1      -7.530   7.742  71.539  1.00  0.00    -0.074 N  
HETATM   17  H   UNL     1      -8.312   8.339  71.807  1.00  0.00     0.000 HD 
HETATM   18  C   UNL     1      -6.503   8.247  70.748  1.00  0.00    -0.037 C  
HETATM   19  O   UNL     1      -5.452   7.661  70.549  1.00  0.00    -0.023 OA 
BRANCH  18  20
HETATM   20  C   UNL     1      -6.735   9.686  70.222  1.00  0.00    -0.099 C  
HETATM   21  N   UNL     1      -7.412   9.778  69.005  1.00  0.00    -0.077 N  
HETATM   22  O   UNL     1      -6.351  10.654  70.856  1.00  0.00    -0.346 OA 
HETATM   23  H   UNL     1      -7.451   8.983  68.366  1.00  0.00     0.000 HD 
BRANCH  21  24
HETATM   24  C   UNL     1      -8.064  11.038  68.668  1.00  0.00    -0.149 C  
BRANCH  24  25
HETATM   25  C   UNL     1      -9.537  11.169  69.141  1.00  0.00    -0.003 C  
BRANCH  25  26
HETATM   26  N   UNL     1     -10.527  11.652  68.053  1.00  0.00    -0.188 N  
BRANCH  26  27
HETATM   27  C   UNL     1     -11.237  10.436  67.388  1.00  0.00    -0.129 C  
HETATM   28  C   UNL     1     -10.497   9.110  67.500  1.00  0.00    -0.335 C  
ENDBRANCH  26  27
BRANCH  26  29
HETATM   29  C   UNL     1     -11.549  12.604  68.733  1.00  0.00    -0.313 C  
HETATM   30  C   UNL     1     -10.992  13.941  69.188  1.00  0.00    -0.253 C  
ENDBRANCH  26  29
BRANCH  26  31
HETATM   31  C   UNL     1      -9.755  12.422  66.917  1.00  0.00    -0.215 C  
BRANCH  31  32
HETATM   32  C   UNL     1     -10.491  12.783  65.638  1.00  0.00    -0.297 A  
HETATM   33  C   UNL     1     -11.353  13.900  65.599  1.00  0.00    -0.310 A  
HETATM   34  C   UNL     1     -12.141  14.176  64.476  1.00  0.00    -0.489 A  
HETATM   35  C   UNL     1     -12.101  13.332  63.375  1.00  0.00    -0.508 A  
HETATM   36  C   UNL     1     -11.247  12.235  63.378  1.00  0.00    -0.497 A  
HETATM   37  C   UNL     1     -10.442  11.966  64.491  1.00  0.00    -0.296 A  
HETATM   38 CL   UNL     1      -9.422  10.576  64.393  1.00  0.00    -0.299 Cl 
ENDBRANCH  31  32
ENDBRANCH  26  31
ENDBRANCH  25  26
ENDBRANCH  24  25
ENDBRANCH  21  24
ENDBRANCH  18  20
ENDBRANCH  15  16
ENDBRANCH  14  15
ENDBRANCH   3  14
ENDBRANCH   2   3
TORSDOF 15
ENDMDL
MODEL      318
REMARK 921   NORMALIZED FREE ENERGY PREDICTED BY IDOCK:   -3.43 KCAL/MOL
REMARK 922        TOTAL FREE ENERGY PREDICTED BY IDOCK:   -9.10 KCAL/MOL
REMARK 923 INTER-LIGAND FREE ENERGY PREDICTED BY IDOCK:   -8.74 KCAL/MOL
REMARK 924 INTRA-LIGAND FREE ENERGY PREDICTED BY IDOCK:   -0.36 KCAL/MOL
REMARK 927      BINDING AFFINITY PREDICTED BY RF-SCORE:    0.00 PKD
ROOT
HETATM    1  C   UNL     1     -10.572   5.116  66.651  1.00  0.00    -0.295 C  
HETATM    2  C   UNL     1      -9.779   6.027  67.576  1.00  0.00    -0.116 C  
ENDROOT
BRANCH   2   3
HETATM    3  N   UNL     1      -8.921   5.306  68.662  1.00  0.00    -0.106 N  
BRANCH   3   4
HETATM    4  C   UNL     1      -8.400   3.946  68.113  1.00  0.00    -0.091 C  
HETATM    5  C   UNL     1      -7.380   3.240  68.969  1.00  0.00    -0.049 C  
ENDBRANCH   3   4
BRANCH   3   6
HETATM    6  C   UNL     1      -9.799   4.929  69.878  1.00  0.00    -0.225 C  
BRANCH   6   7
HETATM    7  C   UNL     1     -10.376   5.971  70.831  1.00  0.00    -0.277 A  
HETATM    8  C   UNL     1     -10.326   6.984  73.070  1.00  0.00    -0.291 A  
HETATM    9  C   UNL     1     -11.481   6.796  70.563  1.00  0.00    -0.413 A  
HETATM   10  C   UNL     1      -9.782   6.131  72.101  1.00  0.00    -0.154 A  
HETATM   11  C   UNL     1     -11.991   7.693  71.503  1.00  0.00    -0.331 A  
HETATM   12 CL   UNL     1      -8.361   5.241  72.529  1.00  0.00    -0.117 Cl 
HETATM   13  C   UNL     1     -11.431   7.770  72.766  1.00  0.00    -0.415 A  
ENDBRANCH   6   7
ENDBRANCH   3   6
BRANCH   3  14
HETATM   14  C   UNL     1      -7.766   6.319  69.042  1.00  0.00    -0.100 C  
BRANCH  14  15
HETATM   15  C   UNL     1      -8.156   7.835  69.140  1.00  0.00    -0.125 C  
BRANCH  15  16
HETATM   16  N   UNL     1      -8.646   8.494  67.938  1.00  0.00    -0.133 N  
HETATM   17  H   UNL     1      -9.455   8.120  67.442  1.00  0.00     0.000 HD 
HETATM   18  C   UNL     1      -8.004   9.636  67.469  1.00  0.00    -0.106 C  
HETATM   19  O   UNL     1      -7.161  10.247  68.105  1.00  0.00    -0.080 OA 
BRANCH  18  20
HETATM   20  C   UNL     1      -8.524  10.162  66.109  1.00  0.00    -0.130 C  
HETATM   21  N   UNL     1      -9.901  10.050  65.908  1.00  0.00    -0.246 N  
HETATM   22  O   UNL     1      -7.760  10.648  65.291  1.00  0.00    -0.119 OA 
HETATM   23  H   UNL     1     -10.456   9.388  66.451  1.00  0.00     0.000 HD 
BRANCH  21  24
HETATM   24  C   UNL     1     -10.527  10.900  64.903  1.00  0.00    -0.282 C  
BRANCH  24  25
HETATM   25  C   UNL     1     -10.350  12.427  65.124  1.00  0.00    -0.287 C  
BRANCH  25  26
HETATM   26  N   UNL     1     -11.135  13.003  66.328  1.00  0.00    -0.284 N  
BRANCH  26  27
HETATM   27  C   UNL     1     -12.224  14.002  65.836  1.00  0.00    -0.456 C  
HETATM   28  C   UNL     1     -12.178  14.335  64.351  1.00  0.00    -0.471 C  
ENDBRANCH  26  27
BRANCH  26  29
HETATM   29  C   UNL     1     -11.766  11.810  67.097  1.00  0.00    -0.188 C  
HETATM   30  C   UNL     1     -11.636  11.867  68.609  1.00  0.00    -0.366 C  
ENDBRANCH  26  29
BRANCH  26  31
HETATM   31  C   UNL     1     -10.166  13.799  67.280  1.00  0.00    -0.253 C  
BRANCH  31  32
HETATM   32  C   UNL     1     -10.122  15.315  67.190  1.00  0.00    -0.240 A  
HETATM   33  C   UNL     1      -9.278  15.952  66.255  1.00  0.00    -0.372 A  
HETATM   34  C   UNL     1      -9.120  17.342  66.242  1.00  0.00    -0.245 A  
HETATM   35  C   UNL     1      -9.787  18.126  67.174  1.00  0.00    -0.319 A  
HETATM   36  C   UNL     1     -10.640  17.526  68.094  1.00  0.00    -0.366 A  
HETATM   37  C   UNL     1     -10.815  16.138  68.099  1.00  0.00    -0.329 A  
HETATM   38 CL   UNL     1     -11.893  15.497  69.286  1.00  0.00    -0.367 Cl 
ENDBRANCH  31  32
ENDBRANCH  26  31
ENDBRANCH  25  26
ENDBRANCH  24  25
ENDBRANCH  21  24
ENDBRANCH  18  20
ENDBRANCH  15  16
ENDBRANCH  14  15
ENDBRANCH   3  14
ENDBRANCH   2   3
TORSDOF 15
ENDMDL
MODEL      319
REMARK 921   NORMALIZED FREE ENERGY PREDICTED BY IDOCK:   -3.39 KCAL/MOL
REMARK 922        TOTAL FREE ENERGY PREDICTED BY IDOCK:   -9.03 KCAL/MOL
REMARK 923 INTER-LIGAND FREE ENERGY PREDICTED BY IDOCK:   -8.41 KCAL/MOL
REMARK 924 INTRA-LIGAND FREE ENERGY PREDICTED BY IDOCK:   -0.62 KCAL/MOL
REMARK 927      BINDING AFFINITY PREDICTED BY RF-SCORE:    0.00 PKD
ROOT
HETATM    1  C   UNL     1     -11.861  10.567  70.822  1.00  0.00    -0.465 C  
HETATM    2  C   UNL     1     -11.626   9.128  70.383  1.00  0.00    -0.146 C  
ENDROOT
BRANCH   2   3
HETATM    3  N   UNL     1     -12.065   8.031  71.402  1.00  0.00    -0.300 N  
BRANCH   3   4
HETATM    4  C   UNL     1     -13.560   8.230  71.787  1.00  0.00    -0.361 C  
HETATM    5  C   UNL     1     -14.399   6.978  71.829  1.00  0.00    -0.457 C  
ENDBRANCH   3   4
BRANCH   3   6
HETATM    6  C   UNL     1     -11.293   8.192  72.732  1.00  0.00    -0.336 C  
BRANCH   6   7
HETATM    7  C   UNL     1     -10.182   7.238  73.160  1.00  0.00    -0.344 A  
HETATM    8  C   UNL     1      -7.842   6.531  72.898  1.00  0.00    -0.101 A  
HETATM    9  C   UNL     1     -10.336   6.148  74.032  1.00  0.00    -0.311 A  
HETATM   10  C   UNL     1      -8.884   7.432  72.641  1.00  0.00    -0.129 A  
HETATM   11  C   UNL     1      -9.286   5.281  74.341  1.00  0.00    -0.134 A  
HETATM   12 CL   UNL     1      -8.533   8.788  71.625  1.00  0.00    -0.229 Cl 
HETATM   13  C   UNL     1      -8.046   5.456  73.754  1.00  0.00    -0.112 A  
ENDBRANCH   6   7
ENDBRANCH   3   6
BRANCH   3  14
HETATM   14  C   UNL     1     -11.772   6.645  70.698  1.00  0.00    -0.394 C  
BRANCH  14  15
HETATM   15  C   UNL     1     -11.345   6.693  69.190  1.00  0.00    -0.194 C  
BRANCH  15  16
HETATM   16  N   UNL     1     -10.347   7.675  68.792  1.00  0.00    -0.204 N  
HETATM   17  H   UNL     1      -9.825   8.191  69.500  1.00  0.00     0.000 HD 
HETATM   18  C   UNL     1     -10.108   7.905  67.441  1.00  0.00    -0.226 C  
HETATM   19  O   UNL     1     -10.546   7.200  66.547  1.00  0.00    -0.162 OA 
BRANCH  18  20
HETATM   20  C   UNL     1      -9.132   9.070  67.142  1.00  0.00    -0.137 C  
HETATM   21  N   UNL     1      -9.652  10.106  66.364  1.00  0.00    -0.182 N  
HETATM   22  O   UNL     1      -7.994   9.062  67.581  1.00  0.00    -0.100 OA 
HETATM   23  H   UNL     1     -10.471   9.956  65.774  1.00  0.00     0.000 HD 
BRANCH  21  24
HETATM   24  C   UNL     1      -8.997  11.407  66.414  1.00  0.00    -0.191 C  
BRANCH  24  25
HETATM   25  C   UNL     1      -9.290  12.247  67.687  1.00  0.00    -0.186 C  
BRANCH  25  26
HETATM   26  N   UNL     1     -10.189  13.486  67.455  1.00  0.00    -0.236 N  
BRANCH  26  27
HETATM   27  C   UNL     1     -10.294  13.800  65.933  1.00  0.00    -0.309 C  
HETATM   28  C   UNL     1     -11.336  14.845  65.556  1.00  0.00    -0.339 C  
ENDBRANCH  26  27
BRANCH  26  29
HETATM   29  C   UNL     1     -11.583  13.180  68.068  1.00  0.00    -0.334 C  
HETATM   30  C   UNL     1     -11.988  14.061  69.237  1.00  0.00    -0.396 C  
ENDBRANCH  26  29
BRANCH  26  31
HETATM   31  C   UNL     1      -9.565  14.751  68.152  1.00  0.00    -0.209 C  
BRANCH  31  32
HETATM   32  C   UNL     1      -8.072  15.005  68.023  1.00  0.00    -0.132 A  
HETATM   33  C   UNL     1      -7.154  14.297  68.826  1.00  0.00    -0.105 A  
HETATM   34  C   UNL     1      -5.789  14.605  68.821  1.00  0.00    -0.085 A  
HETATM   35  C   UNL     1      -5.313  15.641  68.028  1.00  0.00    -0.133 A  
HETATM   36  C   UNL     1      -6.194  16.343  67.213  1.00  0.00    -0.212 A  
HETATM   37  C   UNL     1      -7.556  16.026  67.200  1.00  0.00    -0.211 A  
HETATM   38 CL   UNL     1      -8.562  16.964  66.155  1.00  0.00    -0.309 Cl 
ENDBRANCH  31  32
ENDBRANCH  26  31
ENDBRANCH  25  26
ENDBRANCH  24  25
ENDBRANCH  21  24
ENDBRANCH  18  20
ENDBRANCH  15  16
ENDBRANCH  14  15
ENDBRANCH   3  14
ENDBRANCH   2   3
TORSDOF 15
ENDMDL
MODEL      320
REMARK 921   NORMALIZED FREE ENERGY PREDICTED BY IDOCK:   -3.38 KCAL/MOL
REMARK 922        TOTAL FREE ENERGY PREDICTED BY IDOCK:   -9.00 KCAL/MOL
REMARK 923 INTER-LIGAND FREE ENERGY PREDICTED BY IDOCK:   -7.87 KCAL/MOL
REMARK 924 INTRA-LIGAND FREE ENERGY PREDICTED BY IDOCK:   -1.13 KCAL/MOL
REMARK 927      BINDING AFFINITY PREDICTED BY RF-SCORE:    0.00 PKD
ROOT
HETATM    1  C   UNL     1     -11.356  16.209  64.486  1.00  0.00    -0.273 C  
HETATM    2  C   UNL     1     -10.431  15.114  64.998  1.00  0.00    -0.389 C  
ENDROOT
BRANCH   2   3
HETATM    3  N   UNL     1     -10.323  14.993  66.550  1.00  0.00    -0.276 N  
BRANCH   3   4
HETATM    4  C   UNL     1     -11.650  14.428  67.134  1.00  0.00    -0.386 C  
HETATM    5  C   UNL     1     -12.355  13.401  66.285  1.00  0.00    -0.410 C  
ENDBRANCH   3   4
BRANCH   3   6
HETATM    6  C   UNL     1     -10.177  16.394  67.190  1.00  0.00    -0.282 C  
BRANCH   6   7
HETATM    7  C   UNL     1      -9.094  17.383  66.770  1.00  0.00    -0.276 A  
HETATM    8  C   UNL     1      -8.505  19.710  66.242  1.00  0.00    -0.383 A  
HETATM    9  C   UNL     1      -7.782  17.044  66.398  1.00  0.00    -0.350 A  
HETATM   10  C   UNL     1      -9.411  18.757  66.726  1.00  0.00    -0.318 A  
HETATM   11  C   UNL     1      -6.855  17.997  65.972  1.00  0.00    -0.332 A  
HETATM   12 CL   UNL     1     -10.963  19.322  67.242  1.00  0.00    -0.543 Cl 
HETATM   13  C   UNL     1      -7.223  19.326  65.869  1.00  0.00    -0.305 A  
ENDBRANCH   6   7
ENDBRANCH   3   6
BRANCH   3  14
HETATM   14  C   UNL     1      -9.067  14.071  66.824  1.00  0.00    -0.232 C  
BRANCH  14  15
HETATM   15  C   UNL     1      -9.217  12.981  67.942  1.00  0.00    -0.208 C  
BRANCH  15  16
HETATM   16  N   UNL     1      -8.841  11.613  67.617  1.00  0.00    -0.154 N  
HETATM   17  H   UNL     1      -9.363  11.090  66.915  1.00  0.00     0.000 HD 
HETATM   18  C   UNL     1      -7.763  11.023  68.272  1.00  0.00    -0.113 C  
HETATM   19  O   UNL     1      -6.979  11.639  68.974  1.00  0.00    -0.099 OA 
BRANCH  18  20
HETATM   20  C   UNL     1      -7.549   9.523  67.948  1.00  0.00    -0.087 C  
HETATM   21  N   UNL     1      -8.658   8.701  68.152  1.00  0.00    -0.140 N  
HETATM   22  O   UNL     1      -6.476   9.119  67.534  1.00  0.00    -0.062 OA 
HETATM   23  H   UNL     1      -9.420   8.992  68.765  1.00  0.00     0.000 HD 
BRANCH  21  24
HETATM   24  C   UNL     1      -8.703   7.414  67.467  1.00  0.00    -0.124 C  
BRANCH  24  25
HETATM   25  C   UNL     1      -9.106   6.205  68.354  1.00  0.00    -0.113 C  
BRANCH  25  26
HETATM   26  N   UNL     1      -7.917   5.425  68.967  1.00  0.00    -0.093 N  
BRANCH  26  27
HETATM   27  C   UNL     1      -8.257   3.909  69.063  1.00  0.00    -0.068 C  
HETATM   28  C   UNL     1      -9.539   3.484  68.360  1.00  0.00    -0.154 C  
ENDBRANCH  26  27
BRANCH  26  29
HETATM   29  C   UNL     1      -6.675   5.673  68.067  1.00  0.00    -0.055 C  
HETATM   30  C   UNL     1      -5.334   5.615  68.777  1.00  0.00     0.000 C  
ENDBRANCH  26  29
BRANCH  26  31
HETATM   31  C   UNL     1      -7.627   5.934  70.428  1.00  0.00    -0.091 C  
BRANCH  31  32
HETATM   32  C   UNL     1      -8.795   6.201  71.363  1.00  0.00    -0.139 A  
HETATM   33  C   UNL     1      -9.653   5.151  71.753  1.00  0.00    -0.199 A  
HETATM   34  C   UNL     1     -10.808   5.393  72.505  1.00  0.00    -0.304 A  
HETATM   35  C   UNL     1     -11.143   6.691  72.867  1.00  0.00    -0.263 A  
HETATM   36  C   UNL     1     -10.305   7.743  72.512  1.00  0.00    -0.328 A  
HETATM   37  C   UNL     1      -9.138   7.503  71.777  1.00  0.00    -0.125 A  
HETATM   38 CL   UNL     1      -8.172   8.880  71.385  1.00  0.00    -0.197 Cl 
ENDBRANCH  31  32
ENDBRANCH  26  31
ENDBRANCH  25  26
ENDBRANCH  24  25
ENDBRANCH  21  24
ENDBRANCH  18  20
ENDBRANCH  15  16
ENDBRANCH  14  15
ENDBRANCH   3  14
ENDBRANCH   2   3
TORSDOF 15
ENDMDL
MODEL      321
REMARK 921   NORMALIZED FREE ENERGY PREDICTED BY IDOCK:   -3.37 KCAL/MOL
REMARK 922        TOTAL FREE ENERGY PREDICTED BY IDOCK:   -8.99 KCAL/MOL
REMARK 923 INTER-LIGAND FREE ENERGY PREDICTED BY IDOCK:   -7.90 KCAL/MOL
REMARK 924 INTRA-LIGAND FREE ENERGY PREDICTED BY IDOCK:   -1.09 KCAL/MOL
REMARK 927      BINDING AFFINITY PREDICTED BY RF-SCORE:    0.00 PKD
ROOT
HETATM    1  C   UNL     1      -9.992  12.482  63.821  1.00  0.00    -0.154 C  
HETATM    2  C   UNL     1      -9.711  12.658  65.306  1.00  0.00    -0.026 C  
ENDROOT
BRANCH   2   3
HETATM    3  N   UNL     1     -10.967  12.836  66.214  1.00  0.00    -0.274 N  
BRANCH   3   4
HETATM    4  C   UNL     1     -12.212  13.170  65.342  1.00  0.00    -0.461 C  
HETATM    5  C   UNL     1     -12.730  14.582  65.451  1.00  0.00    -0.190 C  
ENDBRANCH   3   4
BRANCH   3   6
HETATM    6  C   UNL     1     -10.793  14.065  67.138  1.00  0.00    -0.286 C  
BRANCH   6   7
HETATM    7  C   UNL     1      -9.464  14.415  67.801  1.00  0.00    -0.211 A  
HETATM    8  C   UNL     1      -8.310  15.408  69.730  1.00  0.00    -0.006 A  
HETATM    9  C   UNL     1      -8.196  14.256  67.218  1.00  0.00    -0.212 A  
HETATM   10  C   UNL     1      -9.479  14.958  69.103  1.00  0.00    -0.158 A  
HETATM   11  C   UNL     1      -7.021  14.647  67.862  1.00  0.00    -0.172 A  
HETATM   12 CL   UNL     1     -10.965  15.125  69.973  1.00  0.00    -0.283 Cl 
HETATM   13  C   UNL     1      -7.078  15.247  69.107  1.00  0.00    -0.155 A  
ENDBRANCH   6   7
ENDBRANCH   3   6
BRANCH   3  14
HETATM   14  C   UNL     1     -11.107  11.486  67.027  1.00  0.00    -0.307 C  
BRANCH  14  15
HETATM   15  C   UNL     1     -11.709  11.586  68.471  1.00  0.00    -0.313 C  
BRANCH  15  16
HETATM   16  N   UNL     1     -11.884  10.354  69.226  1.00  0.00    -0.504 N  
HETATM   17  H   UNL     1     -11.534   9.471  68.855  1.00  0.00     0.000 HD 
HETATM   18  C   UNL     1     -12.531  10.388  70.458  1.00  0.00    -0.317 C  
HETATM   19  O   UNL     1     -12.802  11.419  71.051  1.00  0.00    -0.347 OA 
BRANCH  18  20
HETATM   20  C   UNL     1     -12.784   9.000  71.098  1.00  0.00    -0.192 C  
HETATM   21  N   UNL     1     -12.313   7.908  70.367  1.00  0.00    -0.304 N  
HETATM   22  O   UNL     1     -13.350   8.900  72.173  1.00  0.00    -0.378 OA 
HETATM   23  H   UNL     1     -12.126   7.988  69.368  1.00  0.00     0.000 HD 
BRANCH  21  24
HETATM   24  C   UNL     1     -12.094   6.648  71.068  1.00  0.00    -0.327 C  
BRANCH  24  25
HETATM   25  C   UNL     1     -10.694   6.487  71.720  1.00  0.00    -0.228 C  
BRANCH  25  26
HETATM   26  N   UNL     1      -9.683   5.659  70.889  1.00  0.00    -0.168 N  
BRANCH  26  27
HETATM   27  C   UNL     1      -8.576   6.584  70.303  1.00  0.00    -0.136 C  
HETATM   28  C   UNL     1      -8.483   7.966  70.935  1.00  0.00    -0.126 C  
ENDBRANCH  26  27
BRANCH  26  29
HETATM   29  C   UNL     1      -9.079   4.574  71.824  1.00  0.00    -0.127 C  
HETATM   30  C   UNL     1     -10.088   3.668  72.508  1.00  0.00    -0.237 C  
ENDBRANCH  26  29
BRANCH  26  31
HETATM   31  C   UNL     1     -10.410   4.971  69.675  1.00  0.00    -0.190 C  
BRANCH  31  32
HETATM   32  C   UNL     1      -9.690   4.875  68.340  1.00  0.00    -0.212 A  
HETATM   33  C   UNL     1      -8.595   3.999  68.180  1.00  0.00    -0.111 A  
HETATM   34  C   UNL     1      -7.835   3.988  67.006  1.00  0.00    -0.095 A  
HETATM   35  C   UNL     1      -8.138   4.865  65.973  1.00  0.00    -0.108 A  
HETATM   36  C   UNL     1      -9.223   5.726  66.097  1.00  0.00    -0.169 A  
HETATM   37  C   UNL     1      -9.999   5.727  67.261  1.00  0.00    -0.154 A  
HETATM   38 CL   UNL     1     -11.320   6.838  67.313  1.00  0.00    -0.266 Cl 
ENDBRANCH  31  32
ENDBRANCH  26  31
ENDBRANCH  25  26
ENDBRANCH  24  25
ENDBRANCH  21  24
ENDBRANCH  18  20
ENDBRANCH  15  16
ENDBRANCH  14  15
ENDBRANCH   3  14
ENDBRANCH   2   3
TORSDOF 15
ENDMDL
MODEL      322
REMARK 921   NORMALIZED FREE ENERGY PREDICTED BY IDOCK:   -3.37 KCAL/MOL
REMARK 922        TOTAL FREE ENERGY PREDICTED BY IDOCK:   -8.98 KCAL/MOL
REMARK 923 INTER-LIGAND FREE ENERGY PREDICTED BY IDOCK:   -7.89 KCAL/MOL
REMARK 924 INTRA-LIGAND FREE ENERGY PREDICTED BY IDOCK:   -1.09 KCAL/MOL
REMARK 927      BINDING AFFINITY PREDICTED BY RF-SCORE:    0.00 PKD
ROOT
HETATM    1  C   UNL     1      -9.050   6.116  66.515  1.00  0.00    -0.156 C  
HETATM    2  C   UNL     1      -8.160   7.218  67.071  1.00  0.00    -0.117 C  
ENDROOT
BRANCH   2   3
HETATM    3  N   UNL     1      -8.615   7.833  68.430  1.00  0.00    -0.128 N  
BRANCH   3   4
HETATM    4  C   UNL     1      -7.637   8.966  68.856  1.00  0.00    -0.087 C  
HETATM    5  C   UNL     1      -8.137   9.894  69.934  1.00  0.00    -0.200 C  
ENDBRANCH   3   4
BRANCH   3   6
HETATM    6  C   UNL     1      -8.512   6.780  69.559  1.00  0.00    -0.133 C  
BRANCH   6   7
HETATM    7  C   UNL     1      -7.455   5.679  69.563  1.00  0.00    -0.071 A  
HETATM    8  C   UNL     1      -6.972   3.272  69.669  1.00  0.00    -0.041 A  
HETATM    9  C   UNL     1      -6.066   5.885  69.594  1.00  0.00    -0.026 A  
HETATM   10  C   UNL     1      -7.878   4.333  69.551  1.00  0.00    -0.057 A  
HETATM   11  C   UNL     1      -5.154   4.829  69.651  1.00  0.00     0.000 A  
HETATM   12 CL   UNL     1      -9.558   3.937  69.424  1.00  0.00    -0.260 Cl 
HETATM   13  C   UNL     1      -5.606   3.523  69.714  1.00  0.00    -0.017 A  
ENDBRANCH   6   7
ENDBRANCH   3   6
BRANCH   3  14
HETATM   14  C   UNL     1     -10.100   8.331  68.203  1.00  0.00    -0.200 C  
BRANCH  14  15
HETATM   15  C   UNL     1     -10.402   9.071  66.855  1.00  0.00    -0.254 C  
BRANCH  15  16
HETATM   16  N   UNL     1     -10.713  10.492  66.910  1.00  0.00    -0.243 N  
HETATM   17  H   UNL     1     -11.538  10.817  67.414  1.00  0.00     0.000 HD 
HETATM   18  C   UNL     1      -9.877  11.405  66.273  1.00  0.00    -0.218 C  
HETATM   19  O   UNL     1      -8.781  11.116  65.821  1.00  0.00    -0.190 OA 
BRANCH  18  20
HETATM   20  C   UNL     1     -10.387  12.867  66.279  1.00  0.00    -0.268 C  
HETATM   21  N   UNL     1      -9.408  13.845  66.096  1.00  0.00    -0.493 N  
HETATM   22  O   UNL     1     -11.572  13.117  66.425  1.00  0.00    -0.317 OA 
HETATM   23  H   UNL     1      -8.425  13.642  66.277  1.00  0.00     0.000 HD 
BRANCH  21  24
HETATM   24  C   UNL     1      -9.825  15.166  65.639  1.00  0.00    -0.343 C  
BRANCH  24  25
HETATM   25  C   UNL     1     -10.554  16.034  66.701  1.00  0.00    -0.297 C  
BRANCH  25  26
HETATM   26  N   UNL     1      -9.863  17.382  67.022  1.00  0.00    -0.275 N  
BRANCH  26  27
HETATM   27  C   UNL     1     -10.467  18.521  66.149  1.00  0.00    -0.413 C  
HETATM   28  C   UNL     1     -10.885  19.771  66.911  1.00  0.00    -0.452 C  
ENDBRANCH  26  27
BRANCH  26  29
HETATM   29  C   UNL     1     -10.059  17.664  68.538  1.00  0.00    -0.375 C  
HETATM   30  C   UNL     1     -10.745  16.560  69.323  1.00  0.00    -0.331 C  
ENDBRANCH  26  29
BRANCH  26  31
HETATM   31  C   UNL     1      -8.327  17.300  66.689  1.00  0.00    -0.257 C  
BRANCH  31  32
HETATM   32  C   UNL     1      -7.318  17.684  67.758  1.00  0.00    -0.193 A  
HETATM   33  C   UNL     1      -6.832  16.717  68.664  1.00  0.00    -0.175 A  
HETATM   34  C   UNL     1      -6.006  17.071  69.736  1.00  0.00    -0.230 A  
HETATM   35  C   UNL     1      -5.662  18.401  69.940  1.00  0.00    -0.242 A  
HETATM   36  C   UNL     1      -6.111  19.372  69.051  1.00  0.00    -0.278 A  
HETATM   37  C   UNL     1      -6.921  19.020  67.966  1.00  0.00    -0.232 A  
HETATM   38 CL   UNL     1      -7.427  20.304  66.927  1.00  0.00    -0.320 Cl 
ENDBRANCH  31  32
ENDBRANCH  26  31
ENDBRANCH  25  26
ENDBRANCH  24  25
ENDBRANCH  21  24
ENDBRANCH  18  20
ENDBRANCH  15  16
ENDBRANCH  14  15
ENDBRANCH   3  14
ENDBRANCH   2   3
TORSDOF 15
ENDMDL
MODEL      323
REMARK 921   NORMALIZED FREE ENERGY PREDICTED BY IDOCK:   -3.36 KCAL/MOL
REMARK 922        TOTAL FREE ENERGY PREDICTED BY IDOCK:   -8.97 KCAL/MOL
REMARK 923 INTER-LIGAND FREE ENERGY PREDICTED BY IDOCK:   -7.57 KCAL/MOL
REMARK 924 INTRA-LIGAND FREE ENERGY PREDICTED BY IDOCK:   -1.40 KCAL/MOL
REMARK 927      BINDING AFFINITY PREDICTED BY RF-SCORE:    0.00 PKD
ROOT
HETATM    1  C   UNL     1     -11.867  11.149  69.790  1.00  0.00    -0.422 C  
HETATM    2  C   UNL     1     -11.541  12.602  69.475  1.00  0.00    -0.281 C  
ENDROOT
BRANCH   2   3
HETATM    3  N   UNL     1     -11.128  12.897  68.000  1.00  0.00    -0.241 N  
BRANCH   3   4
HETATM    4  C   UNL     1     -11.996  14.053  67.425  1.00  0.00    -0.404 C  
HETATM    5  C   UNL     1     -11.467  15.447  67.651  1.00  0.00    -0.255 C  
ENDBRANCH   3   4
BRANCH   3   6
HETATM    6  C   UNL     1     -11.447  11.681  67.098  1.00  0.00    -0.271 C  
BRANCH   6   7
HETATM    7  C   UNL     1     -10.914  11.549  65.675  1.00  0.00    -0.296 A  
HETATM    8  C   UNL     1      -9.560  10.259  64.080  1.00  0.00    -0.376 A  
HETATM    9  C   UNL     1     -11.082  12.498  64.652  1.00  0.00    -0.343 A  
HETATM   10  C   UNL     1     -10.176  10.397  65.331  1.00  0.00    -0.259 A  
HETATM   11  C   UNL     1     -10.521  12.338  63.383  1.00  0.00    -0.408 A  
HETATM   12 CL   UNL     1      -9.969   9.109  66.468  1.00  0.00    -0.341 Cl 
HETATM   13  C   UNL     1      -9.738  11.232  63.104  1.00  0.00    -0.408 A  
ENDBRANCH   6   7
ENDBRANCH   3   6
BRANCH   3  14
HETATM   14  C   UNL     1      -9.581  13.227  68.042  1.00  0.00    -0.220 C  
BRANCH  14  15
HETATM   15  C   UNL     1      -8.594  12.013  67.948  1.00  0.00    -0.165 C  
BRANCH  15  16
HETATM   16  N   UNL     1      -8.063  11.466  69.189  1.00  0.00    -0.366 N  
HETATM   17  H   UNL     1      -8.309  11.891  70.083  1.00  0.00     0.000 HD 
HETATM   18  C   UNL     1      -7.218  10.361  69.147  1.00  0.00    -0.089 C  
HETATM   19  O   UNL     1      -7.035   9.688  68.147  1.00  0.00    -0.075 OA 
BRANCH  18  20
HETATM   20  C   UNL     1      -6.605   9.961  70.512  1.00  0.00    -0.120 C  
HETATM   21  N   UNL     1      -6.928   8.680  70.964  1.00  0.00    -0.062 N  
HETATM   22  O   UNL     1      -5.882  10.730  71.124  1.00  0.00    -0.317 OA 
HETATM   23  H   UNL     1      -7.746   8.189  70.603  1.00  0.00     0.000 HD 
BRANCH  21  24
HETATM   24  C   UNL     1      -6.067   8.059  71.963  1.00  0.00    -0.043 C  
BRANCH  24  25
HETATM   25  C   UNL     1      -5.697   6.576  71.691  1.00  0.00    -0.036 C  
BRANCH  25  26
HETATM   26  N   UNL     1      -6.625   5.541  72.373  1.00  0.00    -0.063 N  
BRANCH  26  27
HETATM   27  C   UNL     1      -7.417   4.735  71.301  1.00  0.00    -0.076 C  
HETATM   28  C   UNL     1      -7.393   5.322  69.897  1.00  0.00    -0.064 C  
ENDBRANCH  26  27
BRANCH  26  29
HETATM   29  C   UNL     1      -5.736   4.609  73.241  1.00  0.00    -0.009 C  
HETATM   30  C   UNL     1      -5.785   3.136  72.877  1.00  0.00    -0.007 C  
ENDBRANCH  26  29
BRANCH  26  31
HETATM   31  C   UNL     1      -7.680   6.272  73.283  1.00  0.00    -0.099 C  
BRANCH  31  32
HETATM   32  C   UNL     1      -9.069   5.673  73.431  1.00  0.00    -0.129 A  
HETATM   33  C   UNL     1      -9.274   4.530  74.233  1.00  0.00    -0.116 A  
HETATM   34  C   UNL     1     -10.514   3.884  74.280  1.00  0.00    -0.274 A  
HETATM   35  C   UNL     1     -11.572   4.353  73.514  1.00  0.00    -0.193 A  
HETATM   36  C   UNL     1     -11.404   5.489  72.729  1.00  0.00    -0.359 A  
HETATM   37  C   UNL     1     -10.171   6.150  72.693  1.00  0.00    -0.182 A  
HETATM   38 CL   UNL     1     -10.069   7.547  71.683  1.00  0.00    -0.198 Cl 
ENDBRANCH  31  32
ENDBRANCH  26  31
ENDBRANCH  25  26
ENDBRANCH  24  25
ENDBRANCH  21  24
ENDBRANCH  18  20
ENDBRANCH  15  16
ENDBRANCH  14  15
ENDBRANCH   3  14
ENDBRANCH   2   3
TORSDOF 15
ENDMDL
MODEL      324
REMARK 921   NORMALIZED FREE ENERGY PREDICTED BY IDOCK:   -3.30 KCAL/MOL
REMARK 922        TOTAL FREE ENERGY PREDICTED BY IDOCK:   -8.86 KCAL/MOL
REMARK 923 INTER-LIGAND FREE ENERGY PREDICTED BY IDOCK:   -8.87 KCAL/MOL
REMARK 924 INTRA-LIGAND FREE ENERGY PREDICTED BY IDOCK:    0.01 KCAL/MOL
REMARK 927      BINDING AFFINITY PREDICTED BY RF-SCORE:    0.00 PKD
ROOT
HETATM    1  C   UNL     1      -8.581   7.316  72.512  1.00  0.00    -0.131 C  
HETATM    2  C   UNL     1     -10.029   7.328  72.045  1.00  0.00    -0.162 C  
ENDROOT
BRANCH   2   3
HETATM    3  N   UNL     1     -10.598   5.953  71.575  1.00  0.00    -0.236 N  
BRANCH   3   4
HETATM    4  C   UNL     1     -10.699   4.978  72.783  1.00  0.00    -0.236 C  
HETATM    5  C   UNL     1      -9.514   4.070  72.995  1.00  0.00    -0.145 C  
ENDBRANCH   3   4
BRANCH   3   6
HETATM    6  C   UNL     1      -9.614   5.269  70.598  1.00  0.00    -0.176 C  
BRANCH   6   7
HETATM    7  C   UNL     1      -9.560   5.607  69.111  1.00  0.00    -0.176 A  
HETATM    8  C   UNL     1      -8.592   5.111  66.907  1.00  0.00    -0.105 A  
HETATM    9  C   UNL     1     -10.219   6.685  68.497  1.00  0.00    -0.185 A  
HETATM   10  C   UNL     1      -8.780   4.796  68.259  1.00  0.00    -0.102 A  
HETATM   11  C   UNL     1     -10.084   6.968  67.137  1.00  0.00    -0.283 A  
HETATM   12 CL   UNL     1      -7.986   3.384  68.868  1.00  0.00    -0.057 Cl 
HETATM   13  C   UNL     1      -9.250   6.198  66.346  1.00  0.00    -0.166 A  
ENDBRANCH   6   7
ENDBRANCH   3   6
BRANCH   3  14
HETATM   14  C   UNL     1     -11.994   6.272  70.900  1.00  0.00    -0.052 C  
BRANCH  14  15
HETATM   15  C   UNL     1     -12.800   7.486  71.479  1.00  0.00    -0.360 C  
BRANCH  15  16
HETATM   16  N   UNL     1     -12.603   8.791  70.866  1.00  0.00    -0.494 N  
HETATM   17  H   UNL     1     -12.110   8.872  69.977  1.00  0.00     0.000 HD 
HETATM   18  C   UNL     1     -13.093   9.929  71.500  1.00  0.00    -0.418 C  
HETATM   19  O   UNL     1     -13.852   9.898  72.454  1.00  0.00    -0.280 OA 
BRANCH  18  20
HETATM   20  C   UNL     1     -12.698  11.268  70.828  1.00  0.00    -0.269 C  
HETATM   21  N   UNL     1     -12.921  12.414  71.595  1.00  0.00    -0.361 N  
HETATM   22  O   UNL     1     -12.216  11.288  69.708  1.00  0.00    -0.300 OA 
HETATM   23  H   UNL     1     -13.582  12.402  72.372  1.00  0.00     0.000 HD 
BRANCH  21  24
HETATM   24  C   UNL     1     -12.187  13.627  71.257  1.00  0.00    -0.171 C  
BRANCH  24  25
HETATM   25  C   UNL     1     -12.568  14.277  69.899  1.00  0.00    -0.165 C  
BRANCH  25  26
HETATM   26  N   UNL     1     -11.365  14.685  69.015  1.00  0.00    -0.261 N  
BRANCH  26  27
HETATM   27  C   UNL     1     -10.531  15.798  69.714  1.00  0.00    -0.317 C  
HETATM   28  C   UNL     1     -10.440  17.115  68.956  1.00  0.00    -0.321 C  
ENDBRANCH  26  27
BRANCH  26  29
HETATM   29  C   UNL     1     -10.511  13.412  68.760  1.00  0.00    -0.186 C  
HETATM   30  C   UNL     1      -9.063  13.663  68.380  1.00  0.00    -0.165 C  
ENDBRANCH  26  29
BRANCH  26  31
HETATM   31  C   UNL     1     -11.871  15.270  67.644  1.00  0.00    -0.059 C  
BRANCH  31  32
HETATM   32  C   UNL     1     -11.783  14.408  66.395  1.00  0.00    -0.397 A  
HETATM   33  C   UNL     1     -12.758  13.422  66.137  1.00  0.00    -0.143 A  
HETATM   34  C   UNL     1     -12.629  12.529  65.067  1.00  0.00    -0.424 A  
HETATM   35  C   UNL     1     -11.514  12.589  64.242  1.00  0.00    -0.423 A  
HETATM   36  C   UNL     1     -10.546  13.564  64.463  1.00  0.00    -0.439 A  
HETATM   37  C   UNL     1     -10.681  14.471  65.520  1.00  0.00    -0.341 A  
HETATM   38 CL   UNL     1      -9.421  15.637  65.706  1.00  0.00    -0.365 Cl 
ENDBRANCH  31  32
ENDBRANCH  26  31
ENDBRANCH  25  26
ENDBRANCH  24  25
ENDBRANCH  21  24
ENDBRANCH  18  20
ENDBRANCH  15  16
ENDBRANCH  14  15
ENDBRANCH   3  14
ENDBRANCH   2   3
TORSDOF 15
ENDMDL
MODEL      325
REMARK 921   NORMALIZED FREE ENERGY PREDICTED BY IDOCK:   -3.30 KCAL/MOL
REMARK 922        TOTAL FREE ENERGY PREDICTED BY IDOCK:   -8.85 KCAL/MOL
REMARK 923 INTER-LIGAND FREE ENERGY PREDICTED BY IDOCK:   -6.69 KCAL/MOL
REMARK 924 INTRA-LIGAND FREE ENERGY PREDICTED BY IDOCK:   -2.16 KCAL/MOL
REMARK 927      BINDING AFFINITY PREDICTED BY RF-SCORE:    0.00 PKD
ROOT
HETATM    1  C   UNL     1     -11.491  10.765  69.443  1.00  0.00    -0.366 C  
HETATM    2  C   UNL     1     -11.219  10.123  68.090  1.00  0.00    -0.180 C  
ENDROOT
BRANCH   2   3
HETATM    3  N   UNL     1      -9.736   9.723  67.819  1.00  0.00    -0.139 N  
BRANCH   3   4
HETATM    4  C   UNL     1      -8.916   9.789  69.140  1.00  0.00    -0.161 C  
HETATM    5  C   UNL     1      -8.000   8.621  69.403  1.00  0.00    -0.102 C  
ENDBRANCH   3   4
BRANCH   3   6
HETATM    6  C   UNL     1      -9.062  10.756  66.886  1.00  0.00    -0.149 C  
BRANCH   6   7
HETATM    7  C   UNL     1      -9.211  10.716  65.368  1.00  0.00    -0.226 A  
HETATM    8  C   UNL     1      -8.135  10.346  63.189  1.00  0.00    -0.141 A  
HETATM    9  C   UNL     1     -10.366  11.076  64.654  1.00  0.00    -0.410 A  
HETATM   10  C   UNL     1      -8.110  10.300  64.589  1.00  0.00    -0.154 A  
HETATM   11  C   UNL     1     -10.417  11.066  63.259  1.00  0.00    -0.257 A  
HETATM   12 CL   UNL     1      -6.655   9.745  65.343  1.00  0.00    -0.085 Cl 
HETATM   13  C   UNL     1      -9.295  10.727  62.524  1.00  0.00    -0.310 A  
ENDBRANCH   6   7
ENDBRANCH   3   6
BRANCH   3  14
HETATM   14  C   UNL     1      -9.789   8.276  67.179  1.00  0.00    -0.217 C  
BRANCH  14  15
HETATM   15  C   UNL     1     -10.910   7.312  67.698  1.00  0.00    -0.180 C  
BRANCH  15  16
HETATM   16  N   UNL     1     -10.501   6.093  68.382  1.00  0.00    -0.204 N  
HETATM   17  H   UNL     1     -10.477   6.060  69.401  1.00  0.00     0.000 HD 
HETATM   18  C   UNL     1     -10.143   4.974  67.637  1.00  0.00    -0.140 C  
HETATM   19  O   UNL     1     -10.328   4.874  66.435  1.00  0.00    -0.254 OA 
BRANCH  18  20
HETATM   20  C   UNL     1      -9.589   3.790  68.468  1.00  0.00    -0.105 C  
HETATM   21  N   UNL     1      -9.177   4.107  69.764  1.00  0.00    -0.126 N  
HETATM   22  O   UNL     1      -9.539   2.665  68.000  1.00  0.00    -0.197 OA 
HETATM   23  H   UNL     1      -8.948   5.067  70.020  1.00  0.00     0.000 HD 
BRANCH  21  24
HETATM   24  C   UNL     1      -9.081   3.031  70.743  1.00  0.00    -0.116 C  
BRANCH  24  25
HETATM   25  C   UNL     1      -8.686   3.475  72.178  1.00  0.00    -0.087 C  
BRANCH  25  26
HETATM   26  N   UNL     1      -9.642   2.987  73.294  1.00  0.00    -0.092 N  
BRANCH  26  27
HETATM   27  C   UNL     1     -10.802   2.145  72.684  1.00  0.00    -0.002 C  
HETATM   28  C   UNL     1     -11.753   1.521  73.696  1.00  0.00    -0.301 C  
ENDBRANCH  26  27
BRANCH  26  29
HETATM   29  C   UNL     1      -8.805   2.153  74.303  1.00  0.00    -0.069 C  
HETATM   30  C   UNL     1      -7.397   2.659  74.557  1.00  0.00    -0.042 C  
ENDBRANCH  26  29
BRANCH  26  31
HETATM   31  C   UNL     1     -10.293   4.217  74.030  1.00  0.00    -0.215 C  
BRANCH  31  32
HETATM   32  C   UNL     1      -9.761   5.612  73.748  1.00  0.00    -0.157 A  
HETATM   33  C   UNL     1      -8.621   6.094  74.425  1.00  0.00    -0.124 A  
HETATM   34  C   UNL     1      -8.191   7.417  74.281  1.00  0.00    -0.220 A  
HETATM   35  C   UNL     1      -8.901   8.296  73.474  1.00  0.00    -0.255 A  
HETATM   36  C   UNL     1     -10.018   7.843  72.780  1.00  0.00    -0.348 A  
HETATM   37  C   UNL     1     -10.440   6.515  72.905  1.00  0.00    -0.222 A  
HETATM   38 CL   UNL     1     -11.841   6.058  72.004  1.00  0.00    -0.331 Cl 
ENDBRANCH  31  32
ENDBRANCH  26  31
ENDBRANCH  25  26
ENDBRANCH  24  25
ENDBRANCH  21  24
ENDBRANCH  18  20
ENDBRANCH  15  16
ENDBRANCH  14  15
ENDBRANCH   3  14
ENDBRANCH   2   3
TORSDOF 15
ENDMDL
MODEL      326
REMARK 921   NORMALIZED FREE ENERGY PREDICTED BY IDOCK:   -3.29 KCAL/MOL
REMARK 922        TOTAL FREE ENERGY PREDICTED BY IDOCK:   -8.83 KCAL/MOL
REMARK 923 INTER-LIGAND FREE ENERGY PREDICTED BY IDOCK:   -7.40 KCAL/MOL
REMARK 924 INTRA-LIGAND FREE ENERGY PREDICTED BY IDOCK:   -1.42 KCAL/MOL
REMARK 927      BINDING AFFINITY PREDICTED BY RF-SCORE:    0.00 PKD
ROOT
HETATM    1  C   UNL     1     -12.750  15.388  70.897  1.00  0.00    -0.520 C  
HETATM    2  C   UNL     1     -11.495  14.535  70.784  1.00  0.00    -0.136 C  
ENDROOT
BRANCH   2   3
HETATM    3  N   UNL     1     -10.842  14.478  69.368  1.00  0.00    -0.247 N  
BRANCH   3   4
HETATM    4  C   UNL     1      -9.389  15.034  69.429  1.00  0.00    -0.116 C  
HETATM    5  C   UNL     1      -8.328  14.166  68.801  1.00  0.00    -0.069 C  
ENDBRANCH   3   4
BRANCH   3   6
HETATM    6  C   UNL     1     -11.584  15.424  68.395  1.00  0.00    -0.354 C  
BRANCH   6   7
HETATM    7  C   UNL     1     -10.906  16.618  67.731  1.00  0.00    -0.292 A  
HETATM    8  C   UNL     1      -9.529  17.450  65.873  1.00  0.00    -0.022 A  
HETATM    9  C   UNL     1     -10.844  17.918  68.261  1.00  0.00    -0.127 A  
HETATM   10  C   UNL     1     -10.268  16.430  66.486  1.00  0.00    -0.304 A  
HETATM   11  C   UNL     1     -10.160  18.955  67.624  1.00  0.00    -0.425 A  
HETATM   12 CL   UNL     1     -10.343  14.902  65.678  1.00  0.00    -0.341 Cl 
HETATM   13  C   UNL     1      -9.480  18.716  66.443  1.00  0.00    -0.319 A  
ENDBRANCH   6   7
ENDBRANCH   3   6
BRANCH   3  14
HETATM   14  C   UNL     1     -10.922  12.964  68.917  1.00  0.00    -0.228 C  
BRANCH  14  15
HETATM   15  C   UNL     1     -11.991  12.066  69.631  1.00  0.00    -0.293 C  
BRANCH  15  16
HETATM   16  N   UNL     1     -11.518  10.998  70.498  1.00  0.00    -0.446 N  
HETATM   17  H   UNL     1     -10.518  10.833  70.610  1.00  0.00     0.000 HD 
HETATM   18  C   UNL     1     -12.438  10.201  71.174  1.00  0.00    -0.387 C  
HETATM   19  O   UNL     1     -13.629  10.454  71.242  1.00  0.00    -0.207 OA 
BRANCH  18  20
HETATM   20  C   UNL     1     -11.821   9.011  71.949  1.00  0.00    -0.376 C  
HETATM   21  N   UNL     1     -10.432   8.894  71.865  1.00  0.00    -0.347 N  
HETATM   22  O   UNL     1     -12.525   8.249  72.591  1.00  0.00    -0.308 OA 
HETATM   23  H   UNL     1      -9.915   9.338  71.106  1.00  0.00     0.000 HD 
BRANCH  21  24
HETATM   24  C   UNL     1      -9.738   8.123  72.889  1.00  0.00    -0.270 C  
BRANCH  24  25
HETATM   25  C   UNL     1      -9.886   6.581  72.771  1.00  0.00    -0.169 C  
BRANCH  25  26
HETATM   26  N   UNL     1      -8.961   5.920  71.720  1.00  0.00    -0.139 N  
BRANCH  26  27
HETATM   27  C   UNL     1      -8.498   4.517  72.214  1.00  0.00    -0.110 C  
HETATM   28  C   UNL     1      -7.379   4.528  73.246  1.00  0.00    -0.081 C  
ENDBRANCH  26  27
BRANCH  26  29
HETATM   29  C   UNL     1      -9.753   5.819  70.388  1.00  0.00    -0.176 C  
HETATM   30  C   UNL     1      -9.942   4.414  69.846  1.00  0.00    -0.233 C  
ENDBRANCH  26  29
BRANCH  26  31
HETATM   31  C   UNL     1      -7.668   6.791  71.507  1.00  0.00    -0.096 C  
BRANCH  31  32
HETATM   32  C   UNL     1      -6.869   6.627  70.225  1.00  0.00    -0.058 A  
HETATM   33  C   UNL     1      -6.029   5.509  70.043  1.00  0.00    -0.021 A  
HETATM   34  C   UNL     1      -5.186   5.401  68.932  1.00  0.00     0.000 A  
HETATM   35  C   UNL     1      -5.148   6.418  67.987  1.00  0.00    -0.004 A  
HETATM   36  C   UNL     1      -5.979   7.523  68.132  1.00  0.00    -0.035 A  
HETATM   37  C   UNL     1      -6.838   7.626  69.231  1.00  0.00    -0.052 A  
HETATM   38 CL   UNL     1      -7.824   9.042  69.316  1.00  0.00    -0.093 Cl 
ENDBRANCH  31  32
ENDBRANCH  26  31
ENDBRANCH  25  26
ENDBRANCH  24  25
ENDBRANCH  21  24
ENDBRANCH  18  20
ENDBRANCH  15  16
ENDBRANCH  14  15
ENDBRANCH   3  14
ENDBRANCH   2   3
TORSDOF 15
ENDMDL
MODEL      327
REMARK 921   NORMALIZED FREE ENERGY PREDICTED BY IDOCK:   -3.28 KCAL/MOL
REMARK 922        TOTAL FREE ENERGY PREDICTED BY IDOCK:   -8.81 KCAL/MOL
REMARK 923 INTER-LIGAND FREE ENERGY PREDICTED BY IDOCK:   -7.80 KCAL/MOL
REMARK 924 INTRA-LIGAND FREE ENERGY PREDICTED BY IDOCK:   -1.01 KCAL/MOL
REMARK 927      BINDING AFFINITY PREDICTED BY RF-SCORE:    0.00 PKD
ROOT
HETATM    1  C   UNL     1     -10.285  16.656  68.470  1.00  0.00    -0.282 C  
HETATM    2  C   UNL     1     -10.861  15.385  67.862  1.00  0.00    -0.300 C  
ENDROOT
BRANCH   2   3
HETATM    3  N   UNL     1      -9.883  14.558  66.971  1.00  0.00    -0.244 N  
BRANCH   3   4
HETATM    4  C   UNL     1      -9.874  15.126  65.522  1.00  0.00    -0.321 C  
HETATM    5  C   UNL     1     -10.890  16.202  65.232  1.00  0.00    -0.349 C  
ENDBRANCH   3   4
BRANCH   3   6
HETATM    6  C   UNL     1     -10.391  13.105  66.820  1.00  0.00    -0.252 C  
BRANCH   6   7
HETATM    7  C   UNL     1     -11.180  12.631  65.604  1.00  0.00    -0.344 A  
HETATM    8  C   UNL     1     -11.182  11.351  63.506  1.00  0.00    -0.322 A  
HETATM    9  C   UNL     1     -12.491  13.019  65.282  1.00  0.00    -0.555 A  
HETATM   10  C   UNL     1     -10.563  11.739  64.701  1.00  0.00    -0.308 A  
HETATM   11  C   UNL     1     -13.137  12.587  64.122  1.00  0.00    -0.086 A  
HETATM   12 CL   UNL     1      -8.983  11.111  65.022  1.00  0.00    -0.135 Cl 
HETATM   13  C   UNL     1     -12.474  11.774  63.220  1.00  0.00    -0.411 A  
ENDBRANCH   6   7
ENDBRANCH   3   6
BRANCH   3  14
HETATM   14  C   UNL     1      -8.476  14.634  67.690  1.00  0.00    -0.180 C  
BRANCH  14  15
HETATM   15  C   UNL     1      -8.182  13.556  68.790  1.00  0.00     0.044 C  
BRANCH  15  16
HETATM   16  N   UNL     1      -7.953  12.185  68.359  1.00  0.00    -0.153 N  
HETATM   17  H   UNL     1      -8.273  11.875  67.441  1.00  0.00     0.000 HD 
HETATM   18  C   UNL     1      -7.293  11.298  69.205  1.00  0.00    -0.068 C  
HETATM   19  O   UNL     1      -6.717  11.640  70.224  1.00  0.00    -0.083 OA 
BRANCH  18  20
HETATM   20  C   UNL     1      -7.236   9.836  68.698  1.00  0.00    -0.073 C  
HETATM   21  N   UNL     1      -6.521   8.948  69.504  1.00  0.00    -0.043 N  
HETATM   22  O   UNL     1      -7.797   9.509  67.666  1.00  0.00    -0.101 OA 
HETATM   23  H   UNL     1      -5.830   9.289  70.172  1.00  0.00     0.000 HD 
BRANCH  21  24
HETATM   24  C   UNL     1      -6.786   7.521  69.367  1.00  0.00    -0.048 C  
BRANCH  24  25
HETATM   25  C   UNL     1      -6.397   6.655  70.596  1.00  0.00    -0.040 C  
BRANCH  25  26
HETATM   26  N   UNL     1      -7.565   6.329  71.557  1.00  0.00    -0.097 N  
BRANCH  26  27
HETATM   27  C   UNL     1      -8.774   5.750  70.764  1.00  0.00    -0.130 C  
HETATM   28  C   UNL     1      -8.602   4.319  70.273  1.00  0.00    -0.102 C  
ENDBRANCH  26  27
BRANCH  26  29
HETATM   29  C   UNL     1      -7.042   5.317  72.613  1.00  0.00    -0.087 C  
HETATM   30  C   UNL     1      -7.098   5.791  74.055  1.00  0.00    -0.082 C  
ENDBRANCH  26  29
BRANCH  26  31
HETATM   31  C   UNL     1      -8.061   7.639  72.275  1.00  0.00    -0.107 C  
BRANCH  31  32
HETATM   32  C   UNL     1      -9.466   8.148  71.996  1.00  0.00    -0.279 A  
HETATM   33  C   UNL     1      -9.691   9.115  70.994  1.00  0.00    -0.359 A  
HETATM   34  C   UNL     1     -10.950   9.695  70.807  1.00  0.00    -0.397 A  
HETATM   35  C   UNL     1     -12.009   9.336  71.630  1.00  0.00    -0.448 A  
HETATM   36  C   UNL     1     -11.820   8.372  72.614  1.00  0.00    -0.360 A  
HETATM   37  C   UNL     1     -10.567   7.775  72.792  1.00  0.00    -0.341 A  
HETATM   38 CL   UNL     1     -10.441   6.593  74.045  1.00  0.00    -0.362 Cl 
ENDBRANCH  31  32
ENDBRANCH  26  31
ENDBRANCH  25  26
ENDBRANCH  24  25
ENDBRANCH  21  24
ENDBRANCH  18  20
ENDBRANCH  15  16
ENDBRANCH  14  15
ENDBRANCH   3  14
ENDBRANCH   2   3
TORSDOF 15
ENDMDL
MODEL      328
REMARK 921   NORMALIZED FREE ENERGY PREDICTED BY IDOCK:   -3.28 KCAL/MOL
REMARK 922        TOTAL FREE ENERGY PREDICTED BY IDOCK:   -8.81 KCAL/MOL
REMARK 923 INTER-LIGAND FREE ENERGY PREDICTED BY IDOCK:   -8.32 KCAL/MOL
REMARK 924 INTRA-LIGAND FREE ENERGY PREDICTED BY IDOCK:   -0.49 KCAL/MOL
REMARK 927      BINDING AFFINITY PREDICTED BY RF-SCORE:    0.00 PKD
ROOT
HETATM    1  C   UNL     1     -11.028   6.458  66.895  1.00  0.00    -0.413 C  
HETATM    2  C   UNL     1     -10.544   6.490  68.337  1.00  0.00    -0.246 C  
ENDROOT
BRANCH   2   3
HETATM    3  N   UNL     1      -9.279   5.630  68.645  1.00  0.00    -0.120 N  
BRANCH   3   4
HETATM    4  C   UNL     1      -9.654   4.119  68.662  1.00  0.00    -0.130 C  
HETATM    5  C   UNL     1      -8.494   3.156  68.652  1.00  0.00    -0.101 C  
ENDBRANCH   3   4
BRANCH   3   6
HETATM    6  C   UNL     1      -8.764   5.924  70.073  1.00  0.00    -0.133 C  
BRANCH   6   7
HETATM    7  C   UNL     1      -9.546   5.541  71.326  1.00  0.00    -0.198 A  
HETATM    8  C   UNL     1      -9.662   4.159  73.355  1.00  0.00    -0.147 A  
HETATM    9  C   UNL     1     -10.834   5.998  71.653  1.00  0.00    -0.314 A  
HETATM   10  C   UNL     1      -8.961   4.643  72.243  1.00  0.00    -0.126 A  
HETATM   11  C   UNL     1     -11.515   5.566  72.792  1.00  0.00    -0.339 A  
HETATM   12 CL   UNL     1      -7.345   4.071  72.009  1.00  0.00    -0.058 Cl 
HETATM   13  C   UNL     1     -10.942   4.626  73.630  1.00  0.00    -0.392 A  
ENDBRANCH   6   7
ENDBRANCH   3   6
BRANCH   3  14
HETATM   14  C   UNL     1      -8.220   6.007  67.531  1.00  0.00    -0.106 C  
BRANCH  14  15
HETATM   15  C   UNL     1      -7.040   6.945  67.964  1.00  0.00    -0.086 C  
BRANCH  15  16
HETATM   16  N   UNL     1      -7.273   8.382  67.961  1.00  0.00    -0.089 N  
HETATM   17  H   UNL     1      -7.567   8.855  68.816  1.00  0.00     0.000 HD 
HETATM   18  C   UNL     1      -7.093   9.106  66.787  1.00  0.00    -0.082 C  
HETATM   19  O   UNL     1      -6.564   8.651  65.787  1.00  0.00    -0.056 OA 
BRANCH  18  20
HETATM   20  C   UNL     1      -7.509  10.596  66.872  1.00  0.00    -0.115 C  
HETATM   21  N   UNL     1      -8.879  10.843  66.778  1.00  0.00    -0.142 N  
HETATM   22  O   UNL     1      -6.673  11.472  67.022  1.00  0.00    -0.119 OA 
HETATM   23  H   UNL     1      -9.507  10.156  66.361  1.00  0.00     0.000 HD 
BRANCH  21  24
HETATM   24  C   UNL     1      -9.392  12.108  67.291  1.00  0.00    -0.183 C  
BRANCH  24  25
HETATM   25  C   UNL     1      -9.373  13.288  66.281  1.00  0.00    -0.120 C  
BRANCH  25  26
HETATM   26  N   UNL     1     -10.534  14.299  66.445  1.00  0.00    -0.278 N  
BRANCH  26  27
HETATM   27  C   UNL     1     -10.088  15.497  67.334  1.00  0.00    -0.246 C  
HETATM   28  C   UNL     1      -9.555  16.706  66.578  1.00  0.00    -0.292 C  
ENDBRANCH  26  27
BRANCH  26  29
HETATM   29  C   UNL     1     -10.952  14.773  65.025  1.00  0.00    -0.414 C  
HETATM   30  C   UNL     1     -12.090  13.994  64.387  1.00  0.00    -0.486 C  
ENDBRANCH  26  29
BRANCH  26  31
HETATM   31  C   UNL     1     -11.757  13.614  67.160  1.00  0.00    -0.383 C  
BRANCH  31  32
HETATM   32  C   UNL     1     -12.063  13.972  68.605  1.00  0.00    -0.332 A  
HETATM   33  C   UNL     1     -12.118  15.322  69.012  1.00  0.00    -0.244 A  
HETATM   34  C   UNL     1     -12.266  15.673  70.358  1.00  0.00    -0.429 A  
HETATM   35  C   UNL     1     -12.345  14.686  71.330  1.00  0.00    -0.411 A  
HETATM   36  C   UNL     1     -12.313  13.347  70.955  1.00  0.00    -0.436 A  
HETATM   37  C   UNL     1     -12.184  12.990  69.608  1.00  0.00    -0.158 A  
HETATM   38 CL   UNL     1     -12.151  11.300  69.253  1.00  0.00    -0.394 Cl 
ENDBRANCH  31  32
ENDBRANCH  26  31
ENDBRANCH  25  26
ENDBRANCH  24  25
ENDBRANCH  21  24
ENDBRANCH  18  20
ENDBRANCH  15  16
ENDBRANCH  14  15
ENDBRANCH   3  14
ENDBRANCH   2   3
TORSDOF 15
ENDMDL
MODEL      329
REMARK 921   NORMALIZED FREE ENERGY PREDICTED BY IDOCK:   -3.28 KCAL/MOL
REMARK 922        TOTAL FREE ENERGY PREDICTED BY IDOCK:   -8.81 KCAL/MOL
REMARK 923 INTER-LIGAND FREE ENERGY PREDICTED BY IDOCK:   -6.77 KCAL/MOL
REMARK 924 INTRA-LIGAND FREE ENERGY PREDICTED BY IDOCK:   -2.04 KCAL/MOL
REMARK 927      BINDING AFFINITY PREDICTED BY RF-SCORE:    0.00 PKD
ROOT
HETATM    1  C   UNL     1      -8.263  12.685  67.139  1.00  0.00    -0.159 C  
HETATM    2  C   UNL     1      -9.645  12.226  66.698  1.00  0.00    -0.223 C  
ENDROOT
BRANCH   2   3
HETATM    3  N   UNL     1     -10.422  11.341  67.720  1.00  0.00    -0.180 N  
BRANCH   3   4
HETATM    4  C   UNL     1     -10.759   9.962  67.083  1.00  0.00    -0.207 C  
HETATM    5  C   UNL     1      -9.818   9.490  66.004  1.00  0.00    -0.353 C  
ENDBRANCH   3   4
BRANCH   3   6
HETATM    6  C   UNL     1     -11.797  11.972  68.042  1.00  0.00    -0.269 C  
BRANCH   6   7
HETATM    7  C   UNL     1     -12.062  12.763  69.320  1.00  0.00    -0.224 A  
HETATM    8  C   UNL     1     -12.021  14.943  70.453  1.00  0.00    -0.368 A  
HETATM    9  C   UNL     1     -12.441  12.211  70.555  1.00  0.00    -0.282 A  
HETATM   10  C   UNL     1     -11.907  14.165  69.294  1.00  0.00    -0.338 A  
HETATM   11  C   UNL     1     -12.616  12.989  71.700  1.00  0.00    -0.222 A  
HETATM   12 CL   UNL     1     -11.528  14.984  67.817  1.00  0.00    -0.341 Cl 
HETATM   13  C   UNL     1     -12.381  14.351  71.658  1.00  0.00    -0.415 A  
ENDBRANCH   6   7
ENDBRANCH   3   6
BRANCH   3  14
HETATM   14  C   UNL     1      -9.492  11.238  68.996  1.00  0.00    -0.013 C  
BRANCH  14  15
HETATM   15  C   UNL     1      -9.640   9.951  69.879  1.00  0.00    -0.227 C  
BRANCH  15  16
HETATM   16  N   UNL     1      -8.576   8.959  69.824  1.00  0.00    -0.128 N  
HETATM   17  H   UNL     1      -8.766   8.022  69.468  1.00  0.00     0.000 HD 
HETATM   18  C   UNL     1      -7.297   9.296  70.259  1.00  0.00    -0.100 C  
HETATM   19  O   UNL     1      -6.949  10.437  70.513  1.00  0.00    -0.305 OA 
BRANCH  18  20
HETATM   20  C   UNL     1      -6.289   8.120  70.287  1.00  0.00    -0.036 C  
HETATM   21  N   UNL     1      -6.809   6.894  70.705  1.00  0.00    -0.057 N  
HETATM   22  O   UNL     1      -5.129   8.282  69.949  1.00  0.00    -0.023 OA 
HETATM   23  H   UNL     1      -7.667   6.849  71.254  1.00  0.00     0.000 HD 
BRANCH  21  24
HETATM   24  C   UNL     1      -6.094   5.677  70.339  1.00  0.00    -0.026 C  
BRANCH  24  25
HETATM   25  C   UNL     1      -6.364   5.157  68.901  1.00  0.00    -0.031 C  
BRANCH  25  26
HETATM   26  N   UNL     1      -6.879   3.699  68.824  1.00  0.00    -0.045 N  
BRANCH  26  27
HETATM   27  C   UNL     1      -6.001   2.866  67.844  1.00  0.00    -0.024 C  
HETATM   28  C   UNL     1      -6.160   3.217  66.371  1.00  0.00    -0.024 C  
ENDBRANCH  26  27
BRANCH  26  29
HETATM   29  C   UNL     1      -6.842   3.108  70.260  1.00  0.00    -0.034 C  
HETATM   30  C   UNL     1      -5.827   2.002  70.484  1.00  0.00    -0.018 C  
ENDBRANCH  26  29
BRANCH  26  31
HETATM   31  C   UNL     1      -8.353   3.669  68.273  1.00  0.00    -0.083 C  
BRANCH  31  32
HETATM   32  C   UNL     1      -9.346   4.709  68.764  1.00  0.00    -0.197 A  
HETATM   33  C   UNL     1      -9.746   4.734  70.117  1.00  0.00    -0.288 A  
HETATM   34  C   UNL     1     -10.755   5.594  70.565  1.00  0.00    -0.344 A  
HETATM   35  C   UNL     1     -11.401   6.434  69.669  1.00  0.00    -0.479 A  
HETATM   36  C   UNL     1     -11.014   6.444  68.333  1.00  0.00    -0.390 A  
HETATM   37  C   UNL     1      -9.992   5.600  67.884  1.00  0.00    -0.143 A  
HETATM   38 CL   UNL     1      -9.593   5.689  66.206  1.00  0.00    -0.173 Cl 
ENDBRANCH  31  32
ENDBRANCH  26  31
ENDBRANCH  25  26
ENDBRANCH  24  25
ENDBRANCH  21  24
ENDBRANCH  18  20
ENDBRANCH  15  16
ENDBRANCH  14  15
ENDBRANCH   3  14
ENDBRANCH   2   3
TORSDOF 15
ENDMDL
MODEL      330
REMARK 921   NORMALIZED FREE ENERGY PREDICTED BY IDOCK:   -3.26 KCAL/MOL
REMARK 922        TOTAL FREE ENERGY PREDICTED BY IDOCK:   -8.77 KCAL/MOL
REMARK 923 INTER-LIGAND FREE ENERGY PREDICTED BY IDOCK:   -7.44 KCAL/MOL
REMARK 924 INTRA-LIGAND FREE ENERGY PREDICTED BY IDOCK:   -1.33 KCAL/MOL
REMARK 927      BINDING AFFINITY PREDICTED BY RF-SCORE:    0.00 PKD
ROOT
HETATM    1  C   UNL     1     -12.789  13.786  65.620  1.00  0.00    -0.456 C  
HETATM    2  C   UNL     1     -11.996  13.038  66.681  1.00  0.00    -0.387 C  
ENDROOT
BRANCH   2   3
HETATM    3  N   UNL     1     -10.641  13.689  67.097  1.00  0.00    -0.271 N  
BRANCH   3   4
HETATM    4  C   UNL     1     -10.368  13.432  68.607  1.00  0.00    -0.205 C  
HETATM    5  C   UNL     1     -11.562  13.018  69.429  1.00  0.00    -0.360 C  
ENDBRANCH   3   4
BRANCH   3   6
HETATM    6  C   UNL     1     -10.722  15.228  66.969  1.00  0.00    -0.313 C  
BRANCH   6   7
HETATM    7  C   UNL     1      -9.505  16.133  67.131  1.00  0.00    -0.231 A  
HETATM    8  C   UNL     1      -8.406  17.918  68.414  1.00  0.00    -0.307 A  
HETATM    9  C   UNL     1      -8.427  16.216  66.234  1.00  0.00    -0.357 A  
HETATM   10  C   UNL     1      -9.434  16.980  68.257  1.00  0.00    -0.265 A  
HETATM   11  C   UNL     1      -7.367  17.107  66.416  1.00  0.00    -0.334 A  
HETATM   12 CL   UNL     1     -10.650  16.917  69.487  1.00  0.00    -0.305 Cl 
HETATM   13  C   UNL     1      -7.368  17.976  67.492  1.00  0.00    -0.213 A  
ENDBRANCH   6   7
ENDBRANCH   3   6
BRANCH   3  14
HETATM   14  C   UNL     1      -9.549  13.061  66.140  1.00  0.00    -0.202 C  
BRANCH  14  15
HETATM   15  C   UNL     1      -8.775  11.806  66.675  1.00  0.00    -0.186 C  
BRANCH  15  16
HETATM   16  N   UNL     1      -9.497  10.546  66.767  1.00  0.00    -0.160 N  
HETATM   17  H   UNL     1     -10.071  10.225  65.987  1.00  0.00     0.000 HD 
HETATM   18  C   UNL     1      -9.400   9.780  67.925  1.00  0.00    -0.127 C  
HETATM   19  O   UNL     1      -8.592   9.996  68.812  1.00  0.00    -0.119 OA 
BRANCH  18  20
HETATM   20  C   UNL     1     -10.323   8.536  67.961  1.00  0.00    -0.217 C  
HETATM   21  N   UNL     1     -10.290   7.730  66.821  1.00  0.00    -0.427 N  
HETATM   22  O   UNL     1     -11.014   8.297  68.937  1.00  0.00    -0.031 OA 
HETATM   23  H   UNL     1      -9.955   8.097  65.931  1.00  0.00     0.000 HD 
BRANCH  21  24
HETATM   24  C   UNL     1     -10.746   6.350  66.935  1.00  0.00    -0.338 C  
BRANCH  24  25
HETATM   25  C   UNL     1      -9.964   5.476  67.952  1.00  0.00    -0.149 C  
BRANCH  25  26
HETATM   26  N   UNL     1      -9.166   4.306  67.324  1.00  0.00    -0.138 N  
BRANCH  26  27
HETATM   27  C   UNL     1      -9.672   4.021  65.880  1.00  0.00    -0.188 C  
HETATM   28  C   UNL     1      -8.582   3.833  64.834  1.00  0.00    -0.113 C  
ENDBRANCH  26  27
BRANCH  26  29
HETATM   29  C   UNL     1      -7.664   4.701  67.331  1.00  0.00    -0.090 C  
HETATM   30  C   UNL     1      -7.304   5.882  68.215  1.00  0.00    -0.081 C  
ENDBRANCH  26  29
BRANCH  26  31
HETATM   31  C   UNL     1      -9.376   2.991  68.163  1.00  0.00    -0.198 C  
BRANCH  31  32
HETATM   32  C   UNL     1      -9.015   2.991  69.639  1.00  0.00    -0.166 A  
HETATM   33  C   UNL     1      -9.831   3.660  70.576  1.00  0.00    -0.111 A  
HETATM   34  C   UNL     1      -9.452   3.785  71.916  1.00  0.00    -0.207 A  
HETATM   35  C   UNL     1      -8.241   3.263  72.349  1.00  0.00    -0.075 A  
HETATM   36  C   UNL     1      -7.426   2.581  71.451  1.00  0.00    -0.040 A  
HETATM   37  C   UNL     1      -7.810   2.436  70.113  1.00  0.00    -0.042 A  
HETATM   38 CL   UNL     1      -6.722   1.577  69.083  1.00  0.00    -0.029 Cl 
ENDBRANCH  31  32
ENDBRANCH  26  31
ENDBRANCH  25  26
ENDBRANCH  24  25
ENDBRANCH  21  24
ENDBRANCH  18  20
ENDBRANCH  15  16
ENDBRANCH  14  15
ENDBRANCH   3  14
ENDBRANCH   2   3
TORSDOF 15
ENDMDL
MODEL      331
REMARK 921   NORMALIZED FREE ENERGY PREDICTED BY IDOCK:   -3.25 KCAL/MOL
REMARK 922        TOTAL FREE ENERGY PREDICTED BY IDOCK:   -8.75 KCAL/MOL
REMARK 923 INTER-LIGAND FREE ENERGY PREDICTED BY IDOCK:   -7.21 KCAL/MOL
REMARK 924 INTRA-LIGAND FREE ENERGY PREDICTED BY IDOCK:   -1.54 KCAL/MOL
REMARK 927      BINDING AFFINITY PREDICTED BY RF-SCORE:    0.00 PKD
ROOT
HETATM    1  C   UNL     1     -11.064  15.210  64.885  1.00  0.00    -0.425 C  
HETATM    2  C   UNL     1     -10.478  16.287  65.787  1.00  0.00    -0.364 C  
ENDROOT
BRANCH   2   3
HETATM    3  N   UNL     1      -9.397  15.803  66.802  1.00  0.00    -0.228 N  
BRANCH   3   4
HETATM    4  C   UNL     1      -9.716  16.353  68.223  1.00  0.00    -0.224 C  
HETATM    5  C   UNL     1     -11.033  17.074  68.367  1.00  0.00    -0.263 C  
ENDBRANCH   3   4
BRANCH   3   6
HETATM    6  C   UNL     1      -8.018  16.408  66.448  1.00  0.00    -0.294 C  
BRANCH   6   7
HETATM    7  C   UNL     1      -7.497  17.697  67.077  1.00  0.00    -0.226 A  
HETATM    8  C   UNL     1      -5.928  18.748  68.650  1.00  0.00    -0.218 A  
HETATM    9  C   UNL     1      -8.040  18.977  66.878  1.00  0.00    -0.277 A  
HETATM   10  C   UNL     1      -6.389  17.627  67.948  1.00  0.00    -0.167 A  
HETATM   11  C   UNL     1      -7.547  20.109  67.529  1.00  0.00    -0.333 A  
HETATM   12 CL   UNL     1      -5.569  16.126  68.214  1.00  0.00    -0.101 Cl 
HETATM   13  C   UNL     1      -6.508  19.992  68.435  1.00  0.00    -0.324 A  
ENDBRANCH   6   7
ENDBRANCH   3   6
BRANCH   3  14
HETATM   14  C   UNL     1      -9.402  14.223  66.719  1.00  0.00    -0.276 C  
BRANCH  14  15
HETATM   15  C   UNL     1      -9.838  13.447  68.010  1.00  0.00    -0.229 C  
BRANCH  15  16
HETATM   16  N   UNL     1      -9.850  11.992  67.960  1.00  0.00    -0.193 N  
HETATM   17  H   UNL     1      -9.182  11.493  67.373  1.00  0.00     0.000 HD 
HETATM   18  C   UNL     1     -10.778  11.286  68.720  1.00  0.00    -0.203 C  
HETATM   19  O   UNL     1     -11.473  11.795  69.583  1.00  0.00    -0.276 OA 
BRANCH  18  20
HETATM   20  C   UNL     1     -10.789   9.756  68.475  1.00  0.00    -0.188 C  
HETATM   21  N   UNL     1     -10.877   8.965  69.622  1.00  0.00    -0.335 N  
HETATM   22  O   UNL     1     -10.734   9.303  67.344  1.00  0.00    -0.279 OA 
HETATM   23  H   UNL     1     -10.622   9.339  70.536  1.00  0.00     0.000 HD 
BRANCH  21  24
HETATM   24  C   UNL     1     -11.344   7.591  69.482  1.00  0.00     0.152 C  
BRANCH  24  25
HETATM   25  C   UNL     1     -10.226   6.525  69.319  1.00  0.00    -0.187 C  
BRANCH  25  26
HETATM   26  N   UNL     1      -9.843   5.784  70.623  1.00  0.00    -0.180 N  
BRANCH  26  27
HETATM   27  C   UNL     1     -10.776   6.221  71.789  1.00  0.00    -0.236 C  
HETATM   28  C   UNL     1     -11.158   5.117  72.765  1.00  0.00    -0.330 C  
ENDBRANCH  26  27
BRANCH  26  29
HETATM   29  C   UNL     1      -9.954   4.258  70.349  1.00  0.00    -0.142 C  
HETATM   30  C   UNL     1      -8.709   3.447  70.663  1.00  0.00    -0.128 C  
ENDBRANCH  26  29
BRANCH  26  31
HETATM   31  C   UNL     1      -8.369   6.144  71.041  1.00  0.00    -0.124 C  
BRANCH  31  32
HETATM   32  C   UNL     1      -7.687   7.336  70.391  1.00  0.00    -0.094 A  
HETATM   33  C   UNL     1      -7.772   8.617  70.977  1.00  0.00    -0.120 A  
HETATM   34  C   UNL     1      -7.267   9.751  70.331  1.00  0.00    -0.149 A  
HETATM   35  C   UNL     1      -6.681   9.634  69.078  1.00  0.00    -0.050 A  
HETATM   36  C   UNL     1      -6.567   8.381  68.486  1.00  0.00    -0.059 A  
HETATM   37  C   UNL     1      -7.054   7.242  69.136  1.00  0.00    -0.080 A  
HETATM   38 CL   UNL     1      -6.864   5.737  68.310  1.00  0.00    -0.061 Cl 
ENDBRANCH  31  32
ENDBRANCH  26  31
ENDBRANCH  25  26
ENDBRANCH  24  25
ENDBRANCH  21  24
ENDBRANCH  18  20
ENDBRANCH  15  16
ENDBRANCH  14  15
ENDBRANCH   3  14
ENDBRANCH   2   3
TORSDOF 15
ENDMDL
MODEL      332
REMARK 921   NORMALIZED FREE ENERGY PREDICTED BY IDOCK:   -3.22 KCAL/MOL
REMARK 922        TOTAL FREE ENERGY PREDICTED BY IDOCK:   -8.70 KCAL/MOL
REMARK 923 INTER-LIGAND FREE ENERGY PREDICTED BY IDOCK:   -8.49 KCAL/MOL
REMARK 924 INTRA-LIGAND FREE ENERGY PREDICTED BY IDOCK:   -0.21 KCAL/MOL
REMARK 927      BINDING AFFINITY PREDICTED BY RF-SCORE:    0.00 PKD
ROOT
HETATM    1  C   UNL     1     -10.498  16.049  66.215  1.00  0.00    -0.326 C  
HETATM    2  C   UNL     1     -10.451  14.631  65.665  1.00  0.00    -0.342 C  
ENDROOT
BRANCH   2   3
HETATM    3  N   UNL     1     -10.695  13.495  66.705  1.00  0.00    -0.281 N  
BRANCH   3   4
HETATM    4  C   UNL     1     -11.411  12.293  66.021  1.00  0.00    -0.350 C  
HETATM    5  C   UNL     1     -12.318  12.639  64.868  1.00  0.00    -0.563 C  
ENDBRANCH   3   4
BRANCH   3   6
HETATM    6  C   UNL     1     -11.681  13.969  67.798  1.00  0.00    -0.368 C  
BRANCH   6   7
HETATM    7  C   UNL     1     -12.072  13.097  68.988  1.00  0.00    -0.240 A  
HETATM    8  C   UNL     1     -12.639  12.986  71.377  1.00  0.00    -0.329 A  
HETATM    9  C   UNL     1     -12.138  11.694  68.983  1.00  0.00    -0.288 A  
HETATM   10  C   UNL     1     -12.384  13.723  70.214  1.00  0.00    -0.337 A  
HETATM   11  C   UNL     1     -12.452  10.955  70.124  1.00  0.00    -0.356 A  
HETATM   12 CL   UNL     1     -12.427  15.449  70.337  1.00  0.00    -0.431 Cl 
HETATM   13  C   UNL     1     -12.677  11.598  71.328  1.00  0.00    -0.444 A  
ENDBRANCH   6   7
ENDBRANCH   3   6
BRANCH   3  14
HETATM   14  C   UNL     1      -9.271  13.132  67.291  1.00  0.00    -0.221 C  
BRANCH  14  15
HETATM   15  C   UNL     1      -8.972  11.614  67.540  1.00  0.00    -0.165 C  
BRANCH  15  16
HETATM   16  N   UNL     1      -8.688  11.188  68.903  1.00  0.00    -0.315 N  
HETATM   17  H   UNL     1      -8.336  11.857  69.587  1.00  0.00     0.000 HD 
HETATM   18  C   UNL     1      -8.900   9.861  69.267  1.00  0.00    -0.174 C  
HETATM   19  O   UNL     1      -9.493   9.056  68.570  1.00  0.00    -0.143 OA 
BRANCH  18  20
HETATM   20  C   UNL     1      -8.427   9.497  70.697  1.00  0.00    -0.115 C  
HETATM   21  N   UNL     1      -9.442   9.188  71.604  1.00  0.00    -0.208 N  
HETATM   22  O   UNL     1      -7.240   9.478  70.978  1.00  0.00    -0.269 OA 
HETATM   23  H   UNL     1     -10.400   9.496  71.442  1.00  0.00     0.000 HD 
BRANCH  21  24
HETATM   24  C   UNL     1      -9.098   8.414  72.791  1.00  0.00    -0.229 C  
BRANCH  24  25
HETATM   25  C   UNL     1     -10.192   7.424  73.276  1.00  0.00    -0.335 C  
BRANCH  25  26
HETATM   26  N   UNL     1     -10.184   6.049  72.564  1.00  0.00    -0.183 N  
BRANCH  26  27
HETATM   27  C   UNL     1     -10.301   4.899  73.607  1.00  0.00    -0.214 C  
HETATM   28  C   UNL     1     -11.586   4.085  73.536  1.00  0.00    -0.126 C  
ENDBRANCH  26  27
BRANCH  26  29
HETATM   29  C   UNL     1     -11.370   6.028  71.561  1.00  0.00    -0.246 C  
HETATM   30  C   UNL     1     -10.982   6.023  70.093  1.00  0.00    -0.429 C  
ENDBRANCH  26  29
BRANCH  26  31
HETATM   31  C   UNL     1      -8.828   5.844  71.791  1.00  0.00    -0.139 C  
BRANCH  31  32
HETATM   32  C   UNL     1      -7.674   5.150  72.495  1.00  0.00    -0.098 A  
HETATM   33  C   UNL     1      -7.842   4.615  73.789  1.00  0.00    -0.098 A  
HETATM   34  C   UNL     1      -6.764   4.090  74.509  1.00  0.00    -0.054 A  
HETATM   35  C   UNL     1      -5.489   4.105  73.961  1.00  0.00    -0.007 A  
HETATM   36  C   UNL     1      -5.297   4.610  72.679  1.00  0.00    -0.008 A  
HETATM   37  C   UNL     1      -6.376   5.118  71.947  1.00  0.00    -0.035 A  
HETATM   38 CL   UNL     1      -6.026   5.723  70.368  1.00  0.00    -0.024 Cl 
ENDBRANCH  31  32
ENDBRANCH  26  31
ENDBRANCH  25  26
ENDBRANCH  24  25
ENDBRANCH  21  24
ENDBRANCH  18  20
ENDBRANCH  15  16
ENDBRANCH  14  15
ENDBRANCH   3  14
ENDBRANCH   2   3
TORSDOF 15
ENDMDL
MODEL      333
REMARK 921   NORMALIZED FREE ENERGY PREDICTED BY IDOCK:   -3.20 KCAL/MOL
REMARK 922        TOTAL FREE ENERGY PREDICTED BY IDOCK:   -8.66 KCAL/MOL
REMARK 923 INTER-LIGAND FREE ENERGY PREDICTED BY IDOCK:   -8.36 KCAL/MOL
REMARK 924 INTRA-LIGAND FREE ENERGY PREDICTED BY IDOCK:   -0.29 KCAL/MOL
REMARK 927      BINDING AFFINITY PREDICTED BY RF-SCORE:    0.00 PKD
ROOT
HETATM    1  C   UNL     1      -6.821   8.557  69.832  1.00  0.00    -0.042 C  
HETATM    2  C   UNL     1      -7.130   8.351  68.357  1.00  0.00    -0.080 C  
ENDROOT
BRANCH   2   3
HETATM    3  N   UNL     1      -8.212   9.300  67.754  1.00  0.00    -0.115 N  
BRANCH   3   4
HETATM    4  C   UNL     1      -8.480  10.487  68.724  1.00  0.00    -0.141 C  
HETATM    5  C   UNL     1      -7.547  11.664  68.594  1.00  0.00    -0.133 C  
ENDBRANCH   3   4
BRANCH   3   6
HETATM    6  C   UNL     1      -9.570   8.567  67.645  1.00  0.00    -0.153 C  
BRANCH   6   7
HETATM    7  C   UNL     1      -9.691   7.047  67.691  1.00  0.00    -0.163 A  
HETATM    8  C   UNL     1     -10.014   5.035  69.064  1.00  0.00    -0.251 A  
HETATM    9  C   UNL     1      -9.508   6.183  66.599  1.00  0.00    -0.173 A  
HETATM   10  C   UNL     1      -9.998   6.428  68.921  1.00  0.00    -0.147 A  
HETATM   11  C   UNL     1      -9.582   4.794  66.722  1.00  0.00    -0.184 A  
HETATM   12 CL   UNL     1     -10.336   7.378  70.327  1.00  0.00    -0.210 Cl 
HETATM   13  C   UNL     1      -9.809   4.218  67.959  1.00  0.00    -0.111 A  
ENDBRANCH   6   7
ENDBRANCH   3   6
BRANCH   3  14
HETATM   14  C   UNL     1      -7.654   9.749  66.343  1.00  0.00    -0.099 C  
BRANCH  14  15
HETATM   15  C   UNL     1      -8.703  10.259  65.295  1.00  0.00    -0.172 C  
BRANCH  15  16
HETATM   16  N   UNL     1      -9.700  11.222  65.740  1.00  0.00    -0.218 N  
HETATM   17  H   UNL     1      -9.561  11.742  66.606  1.00  0.00     0.000 HD 
HETATM   18  C   UNL     1     -10.844  11.430  64.975  1.00  0.00    -0.246 C  
HETATM   19  O   UNL     1     -10.990  10.995  63.845  1.00  0.00    -0.307 OA 
BRANCH  18  20
HETATM   20  C   UNL     1     -11.895  12.367  65.621  1.00  0.00    -0.409 C  
HETATM   21  N   UNL     1     -11.591  12.816  66.907  1.00  0.00    -0.347 N  
HETATM   22  O   UNL     1     -12.906  12.684  65.017  1.00  0.00    -0.765 OA 
HETATM   23  H   UNL     1     -10.920  12.315  67.490  1.00  0.00     0.000 HD 
BRANCH  21  24
HETATM   24  C   UNL     1     -12.255  14.017  67.398  1.00  0.00    -0.254 C  
BRANCH  24  25
HETATM   25  C   UNL     1     -11.823  15.341  66.710  1.00  0.00     0.132 C  
BRANCH  25  26
HETATM   26  N   UNL     1     -10.569  16.010  67.322  1.00  0.00    -0.313 N  
BRANCH  26  27
HETATM   27  C   UNL     1     -10.957  16.837  68.583  1.00  0.00    -0.298 C  
HETATM   28  C   UNL     1     -11.679  16.058  69.674  1.00  0.00    -0.278 C  
ENDBRANCH  26  27
BRANCH  26  29
HETATM   29  C   UNL     1      -9.555  14.886  67.670  1.00  0.00    -0.200 C  
HETATM   30  C   UNL     1      -8.440  15.286  68.621  1.00  0.00    -0.168 C  
ENDBRANCH  26  29
BRANCH  26  31
HETATM   31  C   UNL     1      -9.924  17.007  66.288  1.00  0.00    -0.310 C  
BRANCH  31  32
HETATM   32  C   UNL     1      -9.282  18.287  66.798  1.00  0.00    -0.288 A  
HETATM   33  C   UNL     1     -10.079  19.348  67.275  1.00  0.00    -0.497 A  
HETATM   34  C   UNL     1      -9.521  20.582  67.626  1.00  0.00    -0.456 A  
HETATM   35  C   UNL     1      -8.155  20.791  67.489  1.00  0.00    -0.203 A  
HETATM   36  C   UNL     1      -7.342  19.756  67.038  1.00  0.00    -0.251 A  
HETATM   37  C   UNL     1      -7.894  18.514  66.705  1.00  0.00    -0.242 A  
HETATM   38 CL   UNL     1      -6.796  17.300  66.153  1.00  0.00    -0.273 Cl 
ENDBRANCH  31  32
ENDBRANCH  26  31
ENDBRANCH  25  26
ENDBRANCH  24  25
ENDBRANCH  21  24
ENDBRANCH  18  20
ENDBRANCH  15  16
ENDBRANCH  14  15
ENDBRANCH   3  14
ENDBRANCH   2   3
TORSDOF 15
ENDMDL
MODEL      334
REMARK 921   NORMALIZED FREE ENERGY PREDICTED BY IDOCK:   -3.18 KCAL/MOL
REMARK 922        TOTAL FREE ENERGY PREDICTED BY IDOCK:   -8.63 KCAL/MOL
REMARK 923 INTER-LIGAND FREE ENERGY PREDICTED BY IDOCK:   -8.41 KCAL/MOL
REMARK 924 INTRA-LIGAND FREE ENERGY PREDICTED BY IDOCK:   -0.22 KCAL/MOL
REMARK 927      BINDING AFFINITY PREDICTED BY RF-SCORE:    0.00 PKD
ROOT
HETATM    1  C   UNL     1     -11.659  13.858  69.570  1.00  0.00    -0.358 C  
HETATM    2  C   UNL     1     -10.358  14.436  69.032  1.00  0.00    -0.198 C  
ENDROOT
BRANCH   2   3
HETATM    3  N   UNL     1      -9.594  13.541  68.008  1.00  0.00    -0.214 N  
BRANCH   3   4
HETATM    4  C   UNL     1      -9.277  14.357  66.721  1.00  0.00    -0.268 C  
HETATM    5  C   UNL     1      -9.825  15.762  66.683  1.00  0.00    -0.266 C  
ENDBRANCH   3   4
BRANCH   3   6
HETATM    6  C   UNL     1     -10.498  12.382  67.526  1.00  0.00    -0.215 C  
BRANCH   6   7
HETATM    7  C   UNL     1     -11.110  12.342  66.129  1.00  0.00    -0.349 A  
HETATM    8  C   UNL     1     -11.004  11.441  63.845  1.00  0.00    -0.442 A  
HETATM    9  C   UNL     1     -12.180  13.138  65.687  1.00  0.00    -0.521 A  
HETATM   10  C   UNL     1     -10.570  11.452  65.177  1.00  0.00    -0.293 A  
HETATM   11  C   UNL     1     -12.658  13.088  64.376  1.00  0.00    -0.356 A  
HETATM   12 CL   UNL     1      -9.308  10.352  65.614  1.00  0.00    -0.224 Cl 
HETATM   13  C   UNL     1     -12.055  12.259  63.447  1.00  0.00    -0.615 A  
ENDBRANCH   6   7
ENDBRANCH   3   6
BRANCH   3  14
HETATM   14  C   UNL     1      -8.303  13.026  68.764  1.00  0.00     0.134 C  
BRANCH  14  15
HETATM   15  C   UNL     1      -7.897  11.529  68.534  1.00  0.00    -0.140 C  
BRANCH  15  16
HETATM   16  N   UNL     1      -7.752  10.673  69.703  1.00  0.00    -0.333 N  
HETATM   17  H   UNL     1      -6.956  10.792  70.330  1.00  0.00     0.000 HD 
HETATM   18  C   UNL     1      -8.705   9.693  69.961  1.00  0.00    -0.231 C  
HETATM   19  O   UNL     1      -9.772   9.618  69.375  1.00  0.00    -0.173 OA 
BRANCH  18  20
HETATM   20  C   UNL     1      -8.368   8.755  71.147  1.00  0.00    -0.176 C  
HETATM   21  N   UNL     1      -7.699   7.577  70.809  1.00  0.00    -0.082 N  
HETATM   22  O   UNL     1      -8.670   9.057  72.289  1.00  0.00    -0.367 OA 
HETATM   23  H   UNL     1      -7.729   7.213  69.857  1.00  0.00     0.000 HD 
BRANCH  21  24
HETATM   24  C   UNL     1      -6.956   6.879  71.852  1.00  0.00    -0.069 C  
BRANCH  24  25
HETATM   25  C   UNL     1      -6.398   5.487  71.448  1.00  0.00    -0.035 C  
BRANCH  25  26
HETATM   26  N   UNL     1      -7.466   4.375  71.310  1.00  0.00    -0.058 N  
BRANCH  26  27
HETATM   27  C   UNL     1      -8.068   4.377  69.874  1.00  0.00    -0.063 C  
HETATM   28  C   UNL     1      -7.052   4.479  68.744  1.00  0.00    -0.052 C  
ENDBRANCH  26  27
BRANCH  26  29
HETATM   29  C   UNL     1      -6.782   3.019  71.637  1.00  0.00    -0.023 C  
HETATM   30  C   UNL     1      -6.554   2.743  73.112  1.00  0.00    -0.021 C  
ENDBRANCH  26  29
BRANCH  26  31
HETATM   31  C   UNL     1      -8.651   4.630  72.314  1.00  0.00    -0.119 C  
BRANCH  31  32
HETATM   32  C   UNL     1      -9.882   5.379  71.830  1.00  0.00    -0.218 A  
HETATM   33  C   UNL     1     -10.272   5.314  70.476  1.00  0.00    -0.334 A  
HETATM   34  C   UNL     1     -11.321   6.096  69.980  1.00  0.00    -0.443 A  
HETATM   35  C   UNL     1     -11.990   6.975  70.820  1.00  0.00    -0.392 A  
HETATM   36  C   UNL     1     -11.639   7.045  72.164  1.00  0.00    -0.320 A  
HETATM   37  C   UNL     1     -10.604   6.251  72.669  1.00  0.00    -0.217 A  
HETATM   38 CL   UNL     1     -10.246   6.420  74.350  1.00  0.00    -0.359 Cl 
ENDBRANCH  31  32
ENDBRANCH  26  31
ENDBRANCH  25  26
ENDBRANCH  24  25
ENDBRANCH  21  24
ENDBRANCH  18  20
ENDBRANCH  15  16
ENDBRANCH  14  15
ENDBRANCH   3  14
ENDBRANCH   2   3
TORSDOF 15
ENDMDL
MODEL      335
REMARK 921   NORMALIZED FREE ENERGY PREDICTED BY IDOCK:   -3.18 KCAL/MOL
REMARK 922        TOTAL FREE ENERGY PREDICTED BY IDOCK:   -8.62 KCAL/MOL
REMARK 923 INTER-LIGAND FREE ENERGY PREDICTED BY IDOCK:   -7.41 KCAL/MOL
REMARK 924 INTRA-LIGAND FREE ENERGY PREDICTED BY IDOCK:   -1.20 KCAL/MOL
REMARK 927      BINDING AFFINITY PREDICTED BY RF-SCORE:    0.00 PKD
ROOT
HETATM    1  C   UNL     1      -9.820  18.426  68.706  1.00  0.00    -0.388 C  
HETATM    2  C   UNL     1      -9.887  16.907  68.762  1.00  0.00    -0.269 C  
ENDROOT
BRANCH   2   3
HETATM    3  N   UNL     1      -9.684  16.170  67.403  1.00  0.00    -0.231 N  
BRANCH   3   4
HETATM    4  C   UNL     1     -10.750  16.647  66.374  1.00  0.00    -0.123 C  
HETATM    5  C   UNL     1     -10.422  17.915  65.628  1.00  0.00    -0.105 C  
ENDBRANCH   3   4
BRANCH   3   6
HETATM    6  C   UNL     1      -9.947  14.655  67.567  1.00  0.00    -0.223 C  
BRANCH   6   7
HETATM    7  C   UNL     1     -10.856  13.870  66.626  1.00  0.00    -0.289 A  
HETATM    8  C   UNL     1     -11.126  11.921  65.153  1.00  0.00    -0.360 A  
HETATM    9  C   UNL     1     -12.133  14.273  66.204  1.00  0.00    -0.424 A  
HETATM   10  C   UNL     1     -10.396  12.640  66.109  1.00  0.00    -0.256 A  
HETATM   11  C   UNL     1     -12.892  13.530  65.298  1.00  0.00    -0.410 A  
HETATM   12 CL   UNL     1      -8.878  11.981  66.614  1.00  0.00    -0.201 Cl 
HETATM   13  C   UNL     1     -12.379  12.368  64.751  1.00  0.00    -0.497 A  
ENDBRANCH   6   7
ENDBRANCH   3   6
BRANCH   3  14
HETATM   14  C   UNL     1      -8.196  16.480  66.962  1.00  0.00    -0.196 C  
BRANCH  14  15
HETATM   15  C   UNL     1      -7.059  16.059  67.956  1.00  0.00    -0.132 C  
BRANCH  15  16
HETATM   16  N   UNL     1      -6.689  14.652  68.015  1.00  0.00    -0.127 N  
HETATM   17  H   UNL     1      -6.442  14.151  67.162  1.00  0.00     0.000 HD 
HETATM   18  C   UNL     1      -6.673  13.996  69.242  1.00  0.00    -0.120 C  
HETATM   19  O   UNL     1      -6.766  14.568  70.316  1.00  0.00    -0.156 OA 
BRANCH  18  20
HETATM   20  C   UNL     1      -6.404  12.473  69.161  1.00  0.00    -0.095 C  
HETATM   21  N   UNL     1      -7.283  11.668  69.888  1.00  0.00    -0.254 N  
HETATM   22  O   UNL     1      -5.486  12.034  68.489  1.00  0.00    -0.052 OA 
HETATM   23  H   UNL     1      -7.831  12.054  70.658  1.00  0.00     0.000 HD 
BRANCH  21  24
HETATM   24  C   UNL     1      -7.400  10.262  69.522  1.00  0.00    -0.132 C  
BRANCH  24  25
HETATM   25  C   UNL     1      -8.324   9.413  70.438  1.00  0.00    -0.205 C  
BRANCH  25  26
HETATM   26  N   UNL     1      -9.483   8.696  69.703  1.00  0.00    -0.161 N  
BRANCH  26  27
HETATM   27  C   UNL     1      -9.650   7.245  70.244  1.00  0.00    -0.165 C  
HETATM   28  C   UNL     1     -10.935   6.984  71.017  1.00  0.00    -0.279 C  
ENDBRANCH  26  27
BRANCH  26  29
HETATM   29  C   UNL     1     -10.772   9.535  69.921  1.00  0.00    -0.240 C  
HETATM   30  C   UNL     1     -11.395  10.112  68.662  1.00  0.00    -0.172 C  
ENDBRANCH  26  29
BRANCH  26  31
HETATM   31  C   UNL     1      -9.170   8.590  68.165  1.00  0.00    -0.137 C  
BRANCH  31  32
HETATM   32  C   UNL     1      -8.635   7.280  67.608  1.00  0.00    -0.126 A  
HETATM   33  C   UNL     1      -7.250   7.015  67.610  1.00  0.00    -0.091 A  
HETATM   34  C   UNL     1      -6.723   5.879  66.986  1.00  0.00    -0.061 A  
HETATM   35  C   UNL     1      -7.566   4.992  66.329  1.00  0.00    -0.087 A  
HETATM   36  C   UNL     1      -8.938   5.220  66.328  1.00  0.00    -0.133 A  
HETATM   37  C   UNL     1      -9.471   6.344  66.967  1.00  0.00    -0.139 A  
HETATM   38 CL   UNL     1     -11.187   6.533  66.902  1.00  0.00    -0.378 Cl 
ENDBRANCH  31  32
ENDBRANCH  26  31
ENDBRANCH  25  26
ENDBRANCH  24  25
ENDBRANCH  21  24
ENDBRANCH  18  20
ENDBRANCH  15  16
ENDBRANCH  14  15
ENDBRANCH   3  14
ENDBRANCH   2   3
TORSDOF 15
ENDMDL
MODEL      336
REMARK 921   NORMALIZED FREE ENERGY PREDICTED BY IDOCK:   -3.17 KCAL/MOL
REMARK 922        TOTAL FREE ENERGY PREDICTED BY IDOCK:   -8.62 KCAL/MOL
REMARK 923 INTER-LIGAND FREE ENERGY PREDICTED BY IDOCK:   -8.91 KCAL/MOL
REMARK 924 INTRA-LIGAND FREE ENERGY PREDICTED BY IDOCK:    0.29 KCAL/MOL
REMARK 927      BINDING AFFINITY PREDICTED BY RF-SCORE:    0.00 PKD
ROOT
HETATM    1  C   UNL     1      -9.846   8.522  69.826  1.00  0.00    -0.186 C  
HETATM    2  C   UNL     1      -8.910   7.722  68.932  1.00  0.00    -0.135 C  
ENDROOT
BRANCH   2   3
HETATM    3  N   UNL     1      -9.603   6.806  67.877  1.00  0.00    -0.121 N  
BRANCH   3   4
HETATM    4  C   UNL     1     -10.786   6.037  68.534  1.00  0.00    -0.286 C  
HETATM    5  C   UNL     1     -10.408   5.034  69.595  1.00  0.00    -0.260 C  
ENDBRANCH   3   4
BRANCH   3   6
HETATM    6  C   UNL     1      -8.630   5.700  67.403  1.00  0.00    -0.109 C  
BRANCH   6   7
HETATM    7  C   UNL     1      -8.780   4.992  66.060  1.00  0.00    -0.127 A  
HETATM    8  C   UNL     1      -7.765   4.417  63.897  1.00  0.00    -0.079 A  
HETATM    9  C   UNL     1      -9.952   4.378  65.590  1.00  0.00    -0.247 A  
HETATM   10  C   UNL     1      -7.670   4.948  65.189  1.00  0.00    -0.082 A  
HETATM   11  C   UNL     1     -10.036   3.792  64.325  1.00  0.00    -0.196 A  
HETATM   12 CL   UNL     1      -6.139   5.588  65.678  1.00  0.00    -0.028 Cl 
HETATM   13  C   UNL     1      -8.951   3.834  63.467  1.00  0.00    -0.103 A  
ENDBRANCH   6   7
ENDBRANCH   3   6
BRANCH   3  14
HETATM   14  C   UNL     1     -10.047   7.764  66.698  1.00  0.00    -0.224 C  
BRANCH  14  15
HETATM   15  C   UNL     1      -9.011   8.845  66.234  1.00  0.00    -0.170 C  
BRANCH  15  16
HETATM   16  N   UNL     1      -9.521  10.062  65.619  1.00  0.00    -0.201 N  
HETATM   17  H   UNL     1      -9.189  10.350  64.699  1.00  0.00     0.000 HD 
HETATM   18  C   UNL     1     -10.466  10.829  66.294  1.00  0.00    -0.226 C  
HETATM   19  O   UNL     1     -11.049  10.454  67.298  1.00  0.00    -0.278 OA 
BRANCH  18  20
HETATM   20  C   UNL     1     -10.825  12.170  65.607  1.00  0.00    -0.284 C  
HETATM   21  N   UNL     1     -10.864  13.284  66.448  1.00  0.00    -0.286 N  
HETATM   22  O   UNL     1     -11.043  12.221  64.408  1.00  0.00    -0.298 OA 
HETATM   23  H   UNL     1     -10.977  13.175  67.456  1.00  0.00     0.000 HD 
BRANCH  21  24
HETATM   24  C   UNL     1     -10.738  14.608  65.851  1.00  0.00    -0.309 C  
BRANCH  24  25
HETATM   25  C   UNL     1     -10.482  15.766  66.854  1.00  0.00    -0.315 C  
BRANCH  25  26
HETATM   26  N   UNL     1     -10.569  15.362  68.346  1.00  0.00    -0.241 N  
BRANCH  26  27
HETATM   27  C   UNL     1      -9.468  14.315  68.689  1.00  0.00    -0.178 C  
HETATM   28  C   UNL     1      -8.046  14.858  68.733  1.00  0.00    -0.162 C  
ENDBRANCH  26  27
BRANCH  26  29
HETATM   29  C   UNL     1     -10.408  16.653  69.195  1.00  0.00    -0.326 C  
HETATM   30  C   UNL     1     -10.393  17.952  68.409  1.00  0.00    -0.380 C  
ENDBRANCH  26  29
BRANCH  26  31
HETATM   31  C   UNL     1     -11.961  14.694  68.649  1.00  0.00    -0.270 C  
BRANCH  31  32
HETATM   32  C   UNL     1     -12.441  14.609  70.088  1.00  0.00    -0.369 A  
HETATM   33  C   UNL     1     -12.822  15.774  70.786  1.00  0.00    -0.338 A  
HETATM   34  C   UNL     1     -13.141  15.739  72.148  1.00  0.00    -0.517 A  
HETATM   35  C   UNL     1     -13.068  14.543  72.849  1.00  0.00    -0.614 A  
HETATM   36  C   UNL     1     -12.715  13.375  72.181  1.00  0.00    -0.201 A  
HETATM   37  C   UNL     1     -12.414  13.402  70.815  1.00  0.00    -0.341 A  
HETATM   38 CL   UNL     1     -11.982  11.897  70.086  1.00  0.00    -0.424 Cl 
ENDBRANCH  31  32
ENDBRANCH  26  31
ENDBRANCH  25  26
ENDBRANCH  24  25
ENDBRANCH  21  24
ENDBRANCH  18  20
ENDBRANCH  15  16
ENDBRANCH  14  15
ENDBRANCH   3  14
ENDBRANCH   2   3
TORSDOF 15
ENDMDL
MODEL      337
REMARK 921   NORMALIZED FREE ENERGY PREDICTED BY IDOCK:   -3.17 KCAL/MOL
REMARK 922        TOTAL FREE ENERGY PREDICTED BY IDOCK:   -8.61 KCAL/MOL
REMARK 923 INTER-LIGAND FREE ENERGY PREDICTED BY IDOCK:   -8.25 KCAL/MOL
REMARK 924 INTRA-LIGAND FREE ENERGY PREDICTED BY IDOCK:   -0.36 KCAL/MOL
REMARK 927      BINDING AFFINITY PREDICTED BY RF-SCORE:    0.00 PKD
ROOT
HETATM    1  C   UNL     1      -8.342   4.895  68.193  1.00  0.00    -0.099 C  
HETATM    2  C   UNL     1      -8.214   5.658  66.883  1.00  0.00    -0.105 C  
ENDROOT
BRANCH   2   3
HETATM    3  N   UNL     1      -7.995   7.197  67.015  1.00  0.00    -0.111 N  
BRANCH   3   4
HETATM    4  C   UNL     1      -6.613   7.592  66.416  1.00  0.00    -0.053 C  
HETATM    5  C   UNL     1      -6.391   9.066  66.196  1.00  0.00    -0.064 C  
ENDBRANCH   3   4
BRANCH   3   6
HETATM    6  C   UNL     1      -7.908   7.602  68.505  1.00  0.00    -0.121 C  
BRANCH   6   7
HETATM    7  C   UNL     1      -9.129   8.025  69.316  1.00  0.00    -0.148 A  
HETATM    8  C   UNL     1     -10.208   9.755  70.688  1.00  0.00    -0.290 A  
HETATM    9  C   UNL     1     -10.233   7.207  69.610  1.00  0.00    -0.215 A  
HETATM   10  C   UNL     1      -9.175   9.334  69.840  1.00  0.00    -0.195 A  
HETATM   11  C   UNL     1     -11.296   7.642  70.404  1.00  0.00    -0.235 A  
HETATM   12 CL   UNL     1      -7.923  10.473  69.482  1.00  0.00    -0.148 Cl 
HETATM   13  C   UNL     1     -11.272   8.906  70.965  1.00  0.00    -0.342 A  
ENDBRANCH   6   7
ENDBRANCH   3   6
BRANCH   3  14
HETATM   14  C   UNL     1      -9.221   7.872  66.276  1.00  0.00    -0.178 C  
BRANCH  14  15
HETATM   15  C   UNL     1      -8.888   8.833  65.083  1.00  0.00    -0.133 C  
BRANCH  15  16
HETATM   16  N   UNL     1      -9.531  10.139  65.057  1.00  0.00    -0.248 N  
HETATM   17  H   UNL     1      -9.656  10.666  65.921  1.00  0.00     0.000 HD 
HETATM   18  C   UNL     1      -9.974  10.664  63.847  1.00  0.00    -0.326 C  
HETATM   19  O   UNL     1      -9.692  10.188  62.760  1.00  0.00    -0.260 OA 
BRANCH  18  20
HETATM   20  C   UNL     1     -10.768  11.989  63.965  1.00  0.00    -0.375 C  
HETATM   21  N   UNL     1     -10.317  12.873  64.946  1.00  0.00    -0.337 N  
HETATM   22  O   UNL     1     -11.712  12.221  63.228  1.00  0.00    -0.433 OA 
HETATM   23  H   UNL     1      -9.746  12.544  65.724  1.00  0.00     0.000 HD 
BRANCH  21  24
HETATM   24  C   UNL     1     -10.684  14.280  64.833  1.00  0.00    -0.432 C  
BRANCH  24  25
HETATM   25  C   UNL     1      -9.622  15.285  65.355  1.00  0.00    -0.115 C  
BRANCH  25  26
HETATM   26  N   UNL     1      -9.537  15.396  66.897  1.00  0.00    -0.220 N  
BRANCH  26  27
HETATM   27  C   UNL     1      -8.946  14.088  67.502  1.00  0.00    -0.195 C  
HETATM   28  C   UNL     1      -7.437  13.933  67.365  1.00  0.00    -0.147 C  
ENDBRANCH  26  27
BRANCH  26  29
HETATM   29  C   UNL     1      -8.652  16.627  67.235  1.00  0.00    -0.191 C  
HETATM   30  C   UNL     1      -8.962  17.888  66.448  1.00  0.00    -0.247 C  
ENDBRANCH  26  29
BRANCH  26  31
HETATM   31  C   UNL     1     -10.974  15.588  67.510  1.00  0.00    -0.316 C  
BRANCH  31  32
HETATM   32  C   UNL     1     -11.209  15.230  68.968  1.00  0.00    -0.287 A  
HETATM   33  C   UNL     1     -11.734  13.968  69.319  1.00  0.00    -0.372 A  
HETATM   34  C   UNL     1     -12.083  13.664  70.639  1.00  0.00    -0.398 A  
HETATM   35  C   UNL     1     -11.933  14.618  71.636  1.00  0.00    -0.379 A  
HETATM   36  C   UNL     1     -11.399  15.864  71.321  1.00  0.00    -0.425 A  
HETATM   37  C   UNL     1     -11.031  16.166  70.006  1.00  0.00    -0.364 A  
HETATM   38 CL   UNL     1     -10.384  17.742  69.724  1.00  0.00     0.258 Cl 
ENDBRANCH  31  32
ENDBRANCH  26  31
ENDBRANCH  25  26
ENDBRANCH  24  25
ENDBRANCH  21  24
ENDBRANCH  18  20
ENDBRANCH  15  16
ENDBRANCH  14  15
ENDBRANCH   3  14
ENDBRANCH   2   3
TORSDOF 15
ENDMDL
MODEL      338
REMARK 921   NORMALIZED FREE ENERGY PREDICTED BY IDOCK:   -3.16 KCAL/MOL
REMARK 922        TOTAL FREE ENERGY PREDICTED BY IDOCK:   -8.59 KCAL/MOL
REMARK 923 INTER-LIGAND FREE ENERGY PREDICTED BY IDOCK:   -8.19 KCAL/MOL
REMARK 924 INTRA-LIGAND FREE ENERGY PREDICTED BY IDOCK:   -0.40 KCAL/MOL
REMARK 927      BINDING AFFINITY PREDICTED BY RF-SCORE:    0.00 PKD
ROOT
HETATM    1  C   UNL     1     -11.299   4.648  73.502  1.00  0.00    -0.353 C  
HETATM    2  C   UNL     1      -9.813   4.974  73.496  1.00  0.00    -0.151 C  
ENDROOT
BRANCH   2   3
HETATM    3  N   UNL     1      -8.954   4.193  72.455  1.00  0.00    -0.110 N  
BRANCH   3   4
HETATM    4  C   UNL     1      -8.173   3.047  73.161  1.00  0.00    -0.076 C  
HETATM    5  C   UNL     1      -6.832   3.424  73.737  1.00  0.00    -0.040 C  
ENDBRANCH   3   4
BRANCH   3   6
HETATM    6  C   UNL     1      -7.857   5.110  71.865  1.00  0.00    -0.110 C  
BRANCH   6   7
HETATM    7  C   UNL     1      -8.097   6.583  71.550  1.00  0.00    -0.112 A  
HETATM    8  C   UNL     1      -7.176   8.696  70.697  1.00  0.00    -0.058 A  
HETATM    9  C   UNL     1      -9.266   7.300  71.853  1.00  0.00    -0.147 A  
HETATM   10  C   UNL     1      -7.072   7.316  70.914  1.00  0.00    -0.068 A  
HETATM   11  C   UNL     1      -9.400   8.663  71.583  1.00  0.00    -0.333 A  
HETATM   12 CL   UNL     1      -5.614   6.537  70.406  1.00  0.00    -0.018 Cl 
HETATM   13  C   UNL     1      -8.346   9.369  71.030  1.00  0.00    -0.028 A  
ENDBRANCH   6   7
ENDBRANCH   3   6
BRANCH   3  14
HETATM   14  C   UNL     1      -9.969   3.682  71.354  1.00  0.00    -0.093 C  
BRANCH  14  15
HETATM   15  C   UNL     1      -9.605   3.984  69.859  1.00  0.00    -0.211 C  
BRANCH  15  16
HETATM   16  N   UNL     1     -10.256   5.113  69.212  1.00  0.00    -0.222 N  
HETATM   17  H   UNL     1     -11.241   5.309  69.391  1.00  0.00     0.000 HD 
HETATM   18  C   UNL     1      -9.527   5.925  68.347  1.00  0.00    -0.120 C  
HETATM   19  O   UNL     1      -8.314   5.872  68.233  1.00  0.00    -0.111 OA 
BRANCH  18  20
HETATM   20  C   UNL     1     -10.360   7.003  67.611  1.00  0.00    -0.211 C  
HETATM   21  N   UNL     1     -10.053   8.326  67.936  1.00  0.00    -0.191 N  
HETATM   22  O   UNL     1     -11.214   6.688  66.798  1.00  0.00    -0.333 OA 
HETATM   23  H   UNL     1      -9.572   8.552  68.806  1.00  0.00     0.000 HD 
BRANCH  21  24
HETATM   24  C   UNL     1     -10.436   9.376  67.000  1.00  0.00    -0.231 C  
BRANCH  24  25
HETATM   25  C   UNL     1     -11.220  10.563  67.622  1.00  0.00    -0.265 C  
BRANCH  25  26
HETATM   26  N   UNL     1     -10.657  11.964  67.280  1.00  0.00    -0.221 N  
BRANCH  26  27
HETATM   27  C   UNL     1      -9.103  11.916  67.194  1.00  0.00    -0.178 C  
HETATM   28  C   UNL     1      -8.383  13.128  67.770  1.00  0.00    -0.171 C  
ENDBRANCH  26  27
BRANCH  26  29
HETATM   29  C   UNL     1     -11.286  12.410  65.931  1.00  0.00    -0.336 C  
HETATM   30  C   UNL     1     -12.120  13.677  65.988  1.00  0.00    -0.480 C  
ENDBRANCH  26  29
BRANCH  26  31
HETATM   31  C   UNL     1     -11.032  12.994  68.409  1.00  0.00    -0.262 C  
BRANCH  31  32
HETATM   32  C   UNL     1     -11.722  12.492  69.667  1.00  0.00    -0.372 A  
HETATM   33  C   UNL     1     -11.880  11.108  69.893  1.00  0.00    -0.439 A  
HETATM   34  C   UNL     1     -12.625  10.625  70.974  1.00  0.00    -0.516 A  
HETATM   35  C   UNL     1     -13.246  11.512  71.843  1.00  0.00    -0.479 A  
HETATM   36  C   UNL     1     -13.091  12.882  71.654  1.00  0.00    -0.430 A  
HETATM   37  C   UNL     1     -12.331  13.370  70.586  1.00  0.00    -0.348 A  
HETATM   38 CL   UNL     1     -12.208  15.086  70.442  1.00  0.00    -0.362 Cl 
ENDBRANCH  31  32
ENDBRANCH  26  31
ENDBRANCH  25  26
ENDBRANCH  24  25
ENDBRANCH  21  24
ENDBRANCH  18  20
ENDBRANCH  15  16
ENDBRANCH  14  15
ENDBRANCH   3  14
ENDBRANCH   2   3
TORSDOF 15
ENDMDL
MODEL      339
REMARK 921   NORMALIZED FREE ENERGY PREDICTED BY IDOCK:   -3.15 KCAL/MOL
REMARK 922        TOTAL FREE ENERGY PREDICTED BY IDOCK:   -8.58 KCAL/MOL
REMARK 923 INTER-LIGAND FREE ENERGY PREDICTED BY IDOCK:   -6.20 KCAL/MOL
REMARK 924 INTRA-LIGAND FREE ENERGY PREDICTED BY IDOCK:   -2.38 KCAL/MOL
REMARK 927      BINDING AFFINITY PREDICTED BY RF-SCORE:    0.00 PKD
ROOT
HETATM    1  C   UNL     1      -8.769   2.573  70.090  1.00  0.00    -0.125 C  
HETATM    2  C   UNL     1      -9.733   3.676  69.678  1.00  0.00    -0.070 C  
ENDROOT
BRANCH   2   3
HETATM    3  N   UNL     1      -9.485   5.070  70.334  1.00  0.00    -0.157 N  
BRANCH   3   4
HETATM    4  C   UNL     1     -10.807   5.608  70.957  1.00  0.00    -0.219 C  
HETATM    5  C   UNL     1     -11.242   6.975  70.493  1.00  0.00    -0.335 C  
ENDBRANCH   3   4
BRANCH   3   6
HETATM    6  C   UNL     1      -9.106   6.112  69.256  1.00  0.00    -0.129 C  
BRANCH   6   7
HETATM    7  C   UNL     1      -8.537   5.720  67.896  1.00  0.00    -0.101 A  
HETATM    8  C   UNL     1      -8.979   5.218  65.531  1.00  0.00    -0.158 A  
HETATM    9  C   UNL     1      -7.199   5.374  67.643  1.00  0.00    -0.072 A  
HETATM   10  C   UNL     1      -9.404   5.678  66.784  1.00  0.00    -0.134 A  
HETATM   11  C   UNL     1      -6.755   4.973  66.381  1.00  0.00    -0.054 A  
HETATM   12 CL   UNL     1     -11.058   6.164  66.936  1.00  0.00    -0.383 Cl 
HETATM   13  C   UNL     1      -7.649   4.869  65.331  1.00  0.00    -0.085 A  
ENDBRANCH   6   7
ENDBRANCH   3   6
BRANCH   3  14
HETATM   14  C   UNL     1      -8.331   4.850  71.393  1.00  0.00    -0.116 C  
BRANCH  14  15
HETATM   15  C   UNL     1      -8.125   5.978  72.463  1.00  0.00    -0.105 C  
BRANCH  15  16
HETATM   16  N   UNL     1      -7.750   7.304  71.993  1.00  0.00    -0.089 N  
HETATM   17  H   UNL     1      -8.455   8.035  71.904  1.00  0.00     0.000 HD 
HETATM   18  C   UNL     1      -6.423   7.569  71.668  1.00  0.00    -0.039 C  
HETATM   19  O   UNL     1      -5.500   6.816  71.929  1.00  0.00    -0.034 OA 
BRANCH  18  20
HETATM   20  C   UNL     1      -6.172   8.966  71.047  1.00  0.00    -0.052 C  
HETATM   21  N   UNL     1      -6.206   9.017  69.652  1.00  0.00    -0.039 N  
HETATM   22  O   UNL     1      -5.973   9.939  71.754  1.00  0.00    -0.286 OA 
HETATM   23  H   UNL     1      -6.073   8.173  69.094  1.00  0.00     0.000 HD 
BRANCH  21  24
HETATM   24  C   UNL     1      -6.437  10.306  69.011  1.00  0.00    -0.045 C  
BRANCH  24  25
HETATM   25  C   UNL     1      -7.905  10.810  69.047  1.00  0.00    -0.138 C  
BRANCH  25  26
HETATM   26  N   UNL     1      -8.444  11.334  67.694  1.00  0.00    -0.122 N  
BRANCH  26  27
HETATM   27  C   UNL     1      -8.012  12.813  67.474  1.00  0.00    -0.177 C  
HETATM   28  C   UNL     1      -7.809  13.627  68.745  1.00  0.00    -0.043 C  
ENDBRANCH  26  27
BRANCH  26  29
HETATM   29  C   UNL     1      -7.891  10.409  66.575  1.00  0.00    -0.124 C  
HETATM   30  C   UNL     1      -8.784   9.242  66.192  1.00  0.00    -0.169 C  
ENDBRANCH  26  29
BRANCH  26  31
HETATM   31  C   UNL     1     -10.018  11.299  67.684  1.00  0.00    -0.178 C  
BRANCH  31  32
HETATM   32  C   UNL     1     -10.774  12.311  66.840  1.00  0.00    -0.264 A  
HETATM   33  C   UNL     1     -10.722  12.249  65.431  1.00  0.00    -0.320 A  
HETATM   34  C   UNL     1     -11.300  13.243  64.634  1.00  0.00    -0.372 A  
HETATM   35  C   UNL     1     -11.925  14.333  65.225  1.00  0.00    -0.389 A  
HETATM   36  C   UNL     1     -12.007  14.410  66.612  1.00  0.00    -0.414 A  
HETATM   37  C   UNL     1     -11.448  13.408  67.413  1.00  0.00    -0.333 A  
HETATM   38 CL   UNL     1     -11.603  13.604  69.122  1.00  0.00    -0.331 Cl 
ENDBRANCH  31  32
ENDBRANCH  26  31
ENDBRANCH  25  26
ENDBRANCH  24  25
ENDBRANCH  21  24
ENDBRANCH  18  20
ENDBRANCH  15  16
ENDBRANCH  14  15
ENDBRANCH   3  14
ENDBRANCH   2   3
TORSDOF 15
ENDMDL
MODEL      340
REMARK 921   NORMALIZED FREE ENERGY PREDICTED BY IDOCK:   -3.15 KCAL/MOL
REMARK 922        TOTAL FREE ENERGY PREDICTED BY IDOCK:   -8.57 KCAL/MOL
REMARK 923 INTER-LIGAND FREE ENERGY PREDICTED BY IDOCK:   -7.45 KCAL/MOL
REMARK 924 INTRA-LIGAND FREE ENERGY PREDICTED BY IDOCK:   -1.12 KCAL/MOL
REMARK 927      BINDING AFFINITY PREDICTED BY RF-SCORE:    0.00 PKD
ROOT
HETATM    1  C   UNL     1      -7.272   7.065  72.711  1.00  0.00    -0.073 C  
HETATM    2  C   UNL     1      -8.478   6.990  71.787  1.00  0.00    -0.114 C  
ENDROOT
BRANCH   2   3
HETATM    3  N   UNL     1      -9.243   5.631  71.782  1.00  0.00    -0.145 N  
BRANCH   3   4
HETATM    4  C   UNL     1     -10.053   5.472  73.102  1.00  0.00    -0.180 C  
HETATM    5  C   UNL     1     -11.535   5.244  72.939  1.00  0.00    -0.339 C  
ENDBRANCH   3   4
BRANCH   3   6
HETATM    6  C   UNL     1      -8.244   4.451  71.790  1.00  0.00    -0.101 C  
BRANCH   6   7
HETATM    7  C   UNL     1      -8.243   3.365  70.718  1.00  0.00    -0.074 A  
HETATM    8  C   UNL     1      -7.141   2.407  68.741  1.00  0.00    -0.044 A  
HETATM    9  C   UNL     1      -9.255   2.409  70.526  1.00  0.00    -0.194 A  
HETATM   10  C   UNL     1      -7.157   3.300  69.820  1.00  0.00    -0.041 A  
HETATM   11  C   UNL     1      -9.216   1.475  69.489  1.00  0.00    -0.164 A  
HETATM   12 CL   UNL     1      -5.801   4.361  69.996  1.00  0.00    -0.016 Cl 
HETATM   13  C   UNL     1      -8.173   1.490  68.580  1.00  0.00    -0.068 A  
ENDBRANCH   6   7
ENDBRANCH   3   6
BRANCH   3  14
HETATM   14  C   UNL     1     -10.147   5.649  70.483  1.00  0.00    -0.217 C  
BRANCH  14  15
HETATM   15  C   UNL     1      -9.417   5.881  69.115  1.00  0.00    -0.128 C  
BRANCH  15  16
HETATM   16  N   UNL     1      -9.737   7.089  68.367  1.00  0.00    -0.138 N  
HETATM   17  H   UNL     1     -10.703   7.408  68.297  1.00  0.00     0.000 HD 
HETATM   18  C   UNL     1      -8.716   7.805  67.749  1.00  0.00    -0.123 C  
HETATM   19  O   UNL     1      -7.531   7.599  67.946  1.00  0.00    -0.102 OA 
BRANCH  18  20
HETATM   20  C   UNL     1      -9.193   8.986  66.866  1.00  0.00    -0.142 C  
HETATM   21  N   UNL     1      -9.085  10.251  67.446  1.00  0.00    -0.138 N  
HETATM   22  O   UNL     1      -9.620   8.793  65.740  1.00  0.00    -0.219 OA 
HETATM   23  H   UNL     1      -9.018  10.359  68.458  1.00  0.00     0.000 HD 
BRANCH  21  24
HETATM   24  C   UNL     1      -9.069  11.416  66.569  1.00  0.00    -0.186 C  
BRANCH  24  25
HETATM   25  C   UNL     1     -10.467  11.954  66.158  1.00  0.00    -0.237 C  
BRANCH  25  26
HETATM   26  N   UNL     1     -11.178  12.804  67.238  1.00  0.00    -0.280 N  
BRANCH  26  27
HETATM   27  C   UNL     1     -12.244  13.732  66.583  1.00  0.00    -0.409 C  
HETATM   28  C   UNL     1     -12.496  13.486  65.102  1.00  0.00    -0.495 C  
ENDBRANCH  26  27
BRANCH  26  29
HETATM   29  C   UNL     1     -11.826  11.827  68.258  1.00  0.00    -0.271 C  
HETATM   30  C   UNL     1     -11.753  12.259  69.712  1.00  0.00    -0.368 C  
ENDBRANCH  26  29
BRANCH  26  31
HETATM   31  C   UNL     1     -10.139  13.730  67.974  1.00  0.00    -0.245 C  
BRANCH  31  32
HETATM   32  C   UNL     1     -10.024  15.187  67.557  1.00  0.00    -0.225 A  
HETATM   33  C   UNL     1      -9.136  15.569  66.530  1.00  0.00    -0.336 A  
HETATM   34  C   UNL     1      -8.915  16.915  66.219  1.00  0.00    -0.305 A  
HETATM   35  C   UNL     1      -9.560  17.911  66.939  1.00  0.00    -0.300 A  
HETATM   36  C   UNL     1     -10.456  17.562  67.945  1.00  0.00    -0.384 A  
HETATM   37  C   UNL     1     -10.695  16.217  68.247  1.00  0.00    -0.307 A  
HETATM   38 CL   UNL     1     -11.821  15.895  69.516  1.00  0.00    -0.338 Cl 
ENDBRANCH  31  32
ENDBRANCH  26  31
ENDBRANCH  25  26
ENDBRANCH  24  25
ENDBRANCH  21  24
ENDBRANCH  18  20
ENDBRANCH  15  16
ENDBRANCH  14  15
ENDBRANCH   3  14
ENDBRANCH   2   3
TORSDOF 15
ENDMDL
MODEL      341
REMARK 921   NORMALIZED FREE ENERGY PREDICTED BY IDOCK:   -3.14 KCAL/MOL
REMARK 922        TOTAL FREE ENERGY PREDICTED BY IDOCK:   -8.56 KCAL/MOL
REMARK 923 INTER-LIGAND FREE ENERGY PREDICTED BY IDOCK:   -6.88 KCAL/MOL
REMARK 924 INTRA-LIGAND FREE ENERGY PREDICTED BY IDOCK:   -1.68 KCAL/MOL
REMARK 927      BINDING AFFINITY PREDICTED BY RF-SCORE:    0.00 PKD
ROOT
HETATM    1  C   UNL     1     -10.448   9.437  68.177  1.00  0.00    -0.267 C  
HETATM    2  C   UNL     1     -10.115   9.459  66.692  1.00  0.00    -0.262 C  
ENDROOT
BRANCH   2   3
HETATM    3  N   UNL     1      -8.720  10.051  66.321  1.00  0.00    -0.135 N  
BRANCH   3   4
HETATM    4  C   UNL     1      -7.823  10.137  67.590  1.00  0.00    -0.098 C  
HETATM    5  C   UNL     1      -6.549  10.929  67.441  1.00  0.00    -0.069 C  
ENDBRANCH   3   4
BRANCH   3   6
HETATM    6  C   UNL     1      -8.867  11.515  65.845  1.00  0.00    -0.105 C  
BRANCH   6   7
HETATM    7  C   UNL     1     -10.212  12.127  65.464  1.00  0.00    -0.294 A  
HETATM    8  C   UNL     1     -12.097  13.561  66.120  1.00  0.00    -0.482 A  
HETATM    9  C   UNL     1     -10.933  11.841  64.293  1.00  0.00    -0.419 A  
HETATM   10  C   UNL     1     -10.813  13.047  66.347  1.00  0.00    -0.278 A  
HETATM   11  C   UNL     1     -12.187  12.397  64.031  1.00  0.00    -0.579 A  
HETATM   12 CL   UNL     1      -9.994  13.556  67.784  1.00  0.00    -0.227 Cl 
HETATM   13  C   UNL     1     -12.781  13.237  64.955  1.00  0.00    -0.438 A  
ENDBRANCH   6   7
ENDBRANCH   3   6
BRANCH   3  14
HETATM   14  C   UNL     1      -8.135   9.106  65.195  1.00  0.00    -0.130 C  
BRANCH  14  15
HETATM   15  C   UNL     1      -8.502   7.584  65.285  1.00  0.00    -0.063 C  
BRANCH  15  16
HETATM   16  N   UNL     1      -8.298   6.906  66.557  1.00  0.00    -0.116 N  
HETATM   17  H   UNL     1      -7.561   7.215  67.190  1.00  0.00     0.000 HD 
HETATM   18  C   UNL     1      -9.115   5.835  66.904  1.00  0.00    -0.118 C  
HETATM   19  O   UNL     1     -10.129   5.533  66.297  1.00  0.00    -0.174 OA 
BRANCH  18  20
HETATM   20  C   UNL     1      -8.711   5.105  68.210  1.00  0.00    -0.101 C  
HETATM   21  N   UNL     1      -7.993   5.873  69.129  1.00  0.00    -0.098 N  
HETATM   22  O   UNL     1      -9.022   3.942  68.399  1.00  0.00    -0.103 OA 
HETATM   23  H   UNL     1      -7.497   6.714  68.833  1.00  0.00     0.000 HD 
BRANCH  21  24
HETATM   24  C   UNL     1      -7.970   5.444  70.522  1.00  0.00    -0.101 C  
BRANCH  24  25
HETATM   25  C   UNL     1      -9.154   5.950  71.391  1.00  0.00    -0.140 C  
BRANCH  25  26
HETATM   26  N   UNL     1      -8.742   6.794  72.621  1.00  0.00    -0.122 N  
BRANCH  26  27
HETATM   27  C   UNL     1      -7.224   6.614  72.917  1.00  0.00    -0.080 C  
HETATM   28  C   UNL     1      -6.773   7.069  74.298  1.00  0.00    -0.082 C  
ENDBRANCH  26  27
BRANCH  26  29
HETATM   29  C   UNL     1      -9.089   8.277  72.315  1.00  0.00    -0.221 C  
HETATM   30  C   UNL     1     -10.566   8.578  72.136  1.00  0.00    -0.419 C  
ENDBRANCH  26  29
BRANCH  26  31
HETATM   31  C   UNL     1      -9.528   6.315  73.898  1.00  0.00    -0.155 C  
BRANCH  31  32
HETATM   32  C   UNL     1      -9.995   4.872  73.981  1.00  0.00    -0.201 A  
HETATM   33  C   UNL     1      -9.149   3.876  74.512  1.00  0.00    -0.108 A  
HETATM   34  C   UNL     1      -9.503   2.522  74.478  1.00  0.00    -0.113 A  
HETATM   35  C   UNL     1     -10.700   2.131  73.895  1.00  0.00    -0.242 A  
HETATM   36  C   UNL     1     -11.562   3.094  73.381  1.00  0.00    -0.051 A  
HETATM   37  C   UNL     1     -11.222   4.450  73.430  1.00  0.00    -0.295 A  
HETATM   38 CL   UNL     1     -12.361   5.561  72.759  1.00  0.00     0.008 Cl 
ENDBRANCH  31  32
ENDBRANCH  26  31
ENDBRANCH  25  26
ENDBRANCH  24  25
ENDBRANCH  21  24
ENDBRANCH  18  20
ENDBRANCH  15  16
ENDBRANCH  14  15
ENDBRANCH   3  14
ENDBRANCH   2   3
TORSDOF 15
ENDMDL
MODEL      342
REMARK 921   NORMALIZED FREE ENERGY PREDICTED BY IDOCK:   -3.10 KCAL/MOL
REMARK 922        TOTAL FREE ENERGY PREDICTED BY IDOCK:   -8.48 KCAL/MOL
REMARK 923 INTER-LIGAND FREE ENERGY PREDICTED BY IDOCK:   -6.84 KCAL/MOL
REMARK 924 INTRA-LIGAND FREE ENERGY PREDICTED BY IDOCK:   -1.64 KCAL/MOL
REMARK 927      BINDING AFFINITY PREDICTED BY RF-SCORE:    0.00 PKD
ROOT
HETATM    1  C   UNL     1     -10.597  17.336  68.587  1.00  0.00    -0.329 C  
HETATM    2  C   UNL     1     -11.055  15.927  68.240  1.00  0.00    -0.345 C  
ENDROOT
BRANCH   2   3
HETATM    3  N   UNL     1      -9.983  15.014  67.569  1.00  0.00    -0.225 N  
BRANCH   3   4
HETATM    4  C   UNL     1      -9.562  15.611  66.194  1.00  0.00    -0.330 C  
HETATM    5  C   UNL     1      -8.231  16.319  66.166  1.00  0.00    -0.204 C  
ENDBRANCH   3   4
BRANCH   3   6
HETATM    6  C   UNL     1     -10.590  13.633  67.228  1.00  0.00    -0.267 C  
BRANCH   6   7
HETATM    7  C   UNL     1     -11.179  13.307  65.859  1.00  0.00    -0.309 A  
HETATM    8  C   UNL     1     -11.245  11.767  63.944  1.00  0.00    -0.493 A  
HETATM    9  C   UNL     1     -12.042  14.139  65.125  1.00  0.00    -0.416 A  
HETATM   10  C   UNL     1     -10.836  12.083  65.246  1.00  0.00    -0.294 A  
HETATM   11  C   UNL     1     -12.503  13.802  63.851  1.00  0.00    -0.260 A  
HETATM   12 CL   UNL     1      -9.852  10.926  66.076  1.00  0.00    -0.267 Cl 
HETATM   13  C   UNL     1     -12.085  12.629  63.249  1.00  0.00    -0.524 A  
ENDBRANCH   6   7
ENDBRANCH   3   6
BRANCH   3  14
HETATM   14  C   UNL     1      -8.793  14.911  68.606  1.00  0.00    -0.179 C  
BRANCH  14  15
HETATM   15  C   UNL     1      -8.463  13.485  69.168  1.00  0.00     0.502 C  
BRANCH  15  16
HETATM   16  N   UNL     1      -7.509  12.665  68.435  1.00  0.00    -0.121 N  
HETATM   17  H   UNL     1      -6.864  13.097  67.772  1.00  0.00     0.000 HD 
HETATM   18  C   UNL     1      -7.481  11.289  68.644  1.00  0.00    -0.118 C  
HETATM   19  O   UNL     1      -8.079  10.731  69.548  1.00  0.00    -0.104 OA 
BRANCH  18  20
HETATM   20  C   UNL     1      -6.527  10.509  67.705  1.00  0.00    -0.060 C  
HETATM   21  N   UNL     1      -5.850   9.439  68.292  1.00  0.00    -0.041 N  
HETATM   22  O   UNL     1      -6.405  10.825  66.534  1.00  0.00    -0.093 OA 
HETATM   23  H   UNL     1      -5.735   9.384  69.305  1.00  0.00     0.000 HD 
BRANCH  21  24
HETATM   24  C   UNL     1      -5.310   8.400  67.424  1.00  0.00    -0.034 C  
BRANCH  24  25
HETATM   25  C   UNL     1      -5.851   6.969  67.687  1.00  0.00    -0.021 C  
BRANCH  25  26
HETATM   26  N   UNL     1      -7.132   6.605  66.897  1.00  0.00    -0.067 N  
BRANCH  26  27
HETATM   27  C   UNL     1      -6.893   6.776  65.368  1.00  0.00    -0.051 C  
HETATM   28  C   UNL     1      -7.835   7.747  64.668  1.00  0.00    -0.130 C  
ENDBRANCH  26  27
BRANCH  26  29
HETATM   29  C   UNL     1      -7.506   5.139  67.252  1.00  0.00    -0.083 C  
HETATM   30  C   UNL     1      -7.022   4.087  66.270  1.00  0.00    -0.063 C  
ENDBRANCH  26  29
BRANCH  26  31
HETATM   31  C   UNL     1      -8.311   7.568  67.298  1.00  0.00    -0.118 C  
BRANCH  31  32
HETATM   32  C   UNL     1      -9.164   7.227  68.509  1.00  0.00    -0.138 A  
HETATM   33  C   UNL     1      -8.659   7.406  69.813  1.00  0.00    -0.140 A  
HETATM   34  C   UNL     1      -9.372   6.978  70.938  1.00  0.00    -0.157 A  
HETATM   35  C   UNL     1     -10.597   6.344  70.785  1.00  0.00    -0.288 A  
HETATM   36  C   UNL     1     -11.129   6.172  69.511  1.00  0.00    -0.490 A  
HETATM   37  C   UNL     1     -10.428   6.616  68.384  1.00  0.00    -0.211 A  
HETATM   38 CL   UNL     1     -11.176   6.348  66.851  1.00  0.00    -0.369 Cl 
ENDBRANCH  31  32
ENDBRANCH  26  31
ENDBRANCH  25  26
ENDBRANCH  24  25
ENDBRANCH  21  24
ENDBRANCH  18  20
ENDBRANCH  15  16
ENDBRANCH  14  15
ENDBRANCH   3  14
ENDBRANCH   2   3
TORSDOF 15
ENDMDL
MODEL      343
REMARK 921   NORMALIZED FREE ENERGY PREDICTED BY IDOCK:   -3.09 KCAL/MOL
REMARK 922        TOTAL FREE ENERGY PREDICTED BY IDOCK:   -8.47 KCAL/MOL
REMARK 923 INTER-LIGAND FREE ENERGY PREDICTED BY IDOCK:   -7.82 KCAL/MOL
REMARK 924 INTRA-LIGAND FREE ENERGY PREDICTED BY IDOCK:   -0.64 KCAL/MOL
REMARK 927      BINDING AFFINITY PREDICTED BY RF-SCORE:    0.00 PKD
ROOT
HETATM    1  C   UNL     1     -10.849  16.146  64.728  1.00  0.00    -0.282 C  
HETATM    2  C   UNL     1     -11.110  15.454  66.058  1.00  0.00    -0.233 C  
ENDROOT
BRANCH   2   3
HETATM    3  N   UNL     1     -10.172  15.870  67.232  1.00  0.00    -0.272 N  
BRANCH   3   4
HETATM    4  C   UNL     1     -10.871  16.940  68.119  1.00  0.00    -0.351 C  
HETATM    5  C   UNL     1     -10.847  18.351  67.587  1.00  0.00    -0.295 C  
ENDBRANCH   3   4
BRANCH   3   6
HETATM    6  C   UNL     1      -8.908  16.576  66.687  1.00  0.00    -0.256 C  
BRANCH   6   7
HETATM    7  C   UNL     1      -7.829  17.152  67.599  1.00  0.00    -0.187 A  
HETATM    8  C   UNL     1      -6.181  18.934  67.989  1.00  0.00    -0.224 A  
HETATM    9  C   UNL     1      -7.331  16.539  68.760  1.00  0.00    -0.208 A  
HETATM   10  C   UNL     1      -7.254  18.397  67.266  1.00  0.00    -0.204 A  
HETATM   11  C   UNL     1      -6.303  17.098  69.521  1.00  0.00    -0.230 A  
HETATM   12 CL   UNL     1      -7.834  19.303  65.911  1.00  0.00    -0.263 Cl 
HETATM   13  C   UNL     1      -5.709  18.282  69.123  1.00  0.00    -0.215 A  
ENDBRANCH   6   7
ENDBRANCH   3   6
BRANCH   3  14
HETATM   14  C   UNL     1      -9.829  14.532  68.006  1.00  0.00    -0.222 C  
BRANCH  14  15
HETATM   15  C   UNL     1     -11.038  13.631  68.434  1.00  0.00    -0.264 C  
BRANCH  15  16
HETATM   16  N   UNL     1     -10.749  12.381  69.122  1.00  0.00    -0.433 N  
HETATM   17  H   UNL     1     -10.214  12.386  69.990  1.00  0.00     0.000 HD 
HETATM   18  C   UNL     1     -11.208  11.181  68.589  1.00  0.00    -0.255 C  
HETATM   19  O   UNL     1     -12.008  11.110  67.671  1.00  0.00    -0.613 OA 
BRANCH  18  20
HETATM   20  C   UNL     1     -10.717   9.911  69.329  1.00  0.00    -0.224 C  
HETATM   21  N   UNL     1     -11.031   9.850  70.688  1.00  0.00    -0.318 N  
HETATM   22  O   UNL     1     -10.110   9.036  68.736  1.00  0.00    -0.186 OA 
HETATM   23  H   UNL     1     -11.259  10.695  71.211  1.00  0.00     0.000 HD 
BRANCH  21  24
HETATM   24  C   UNL     1     -11.024   8.547  71.342  1.00  0.00    -0.264 C  
BRANCH  24  25
HETATM   25  C   UNL     1     -10.048   8.413  72.543  1.00  0.00    -0.292 C  
BRANCH  25  26
HETATM   26  N   UNL     1      -8.971   7.313  72.384  1.00  0.00    -0.126 N  
BRANCH  26  27
HETATM   27  C   UNL     1      -9.237   6.477  71.098  1.00  0.00    -0.156 C  
HETATM   28  C   UNL     1      -7.992   5.960  70.389  1.00  0.00    -0.106 C  
ENDBRANCH  26  27
BRANCH  26  29
HETATM   29  C   UNL     1      -7.585   8.012  72.329  1.00  0.00    -0.110 C  
HETATM   30  C   UNL     1      -7.460   9.134  71.313  1.00  0.00    -0.054 C  
ENDBRANCH  26  29
BRANCH  26  31
HETATM   31  C   UNL     1      -9.020   6.322  73.605  1.00  0.00    -0.124 C  
BRANCH  31  32
HETATM   32  C   UNL     1      -9.299   4.850  73.352  1.00  0.00    -0.132 A  
HETATM   33  C   UNL     1      -8.245   3.912  73.351  1.00  0.00    -0.088 A  
HETATM   34  C   UNL     1      -8.455   2.576  72.991  1.00  0.00    -0.070 A  
HETATM   35  C   UNL     1      -9.719   2.151  72.605  1.00  0.00    -0.163 A  
HETATM   36  C   UNL     1     -10.781   3.050  72.615  1.00  0.00    -0.050 A  
HETATM   37  C   UNL     1     -10.579   4.382  72.993  1.00  0.00    -0.195 A  
HETATM   38 CL   UNL     1     -11.963   5.414  72.966  1.00  0.00    -0.154 Cl 
ENDBRANCH  31  32
ENDBRANCH  26  31
ENDBRANCH  25  26
ENDBRANCH  24  25
ENDBRANCH  21  24
ENDBRANCH  18  20
ENDBRANCH  15  16
ENDBRANCH  14  15
ENDBRANCH   3  14
ENDBRANCH   2   3
TORSDOF 15
ENDMDL
MODEL      344
REMARK 921   NORMALIZED FREE ENERGY PREDICTED BY IDOCK:   -3.08 KCAL/MOL
REMARK 922        TOTAL FREE ENERGY PREDICTED BY IDOCK:   -8.44 KCAL/MOL
REMARK 923 INTER-LIGAND FREE ENERGY PREDICTED BY IDOCK:   -8.15 KCAL/MOL
REMARK 924 INTRA-LIGAND FREE ENERGY PREDICTED BY IDOCK:   -0.28 KCAL/MOL
REMARK 927      BINDING AFFINITY PREDICTED BY RF-SCORE:    0.00 PKD
ROOT
HETATM    1  C   UNL     1      -8.165   8.058  71.981  1.00  0.00    -0.174 C  
HETATM    2  C   UNL     1      -9.241   7.875  70.921  1.00  0.00    -0.152 C  
ENDROOT
BRANCH   2   3
HETATM    3  N   UNL     1      -9.656   6.400  70.626  1.00  0.00    -0.172 N  
BRANCH   3   4
HETATM    4  C   UNL     1     -11.101   6.140  71.143  1.00  0.00    -0.298 C  
HETATM    5  C   UNL     1     -11.497   6.889  72.390  1.00  0.00    -0.297 C  
ENDBRANCH   3   4
BRANCH   3   6
HETATM    6  C   UNL     1      -8.768   5.421  71.430  1.00  0.00    -0.131 C  
BRANCH   6   7
HETATM    7  C   UNL     1      -9.295   4.103  71.991  1.00  0.00    -0.184 A  
HETATM    8  C   UNL     1      -9.625   2.676  73.964  1.00  0.00    -0.119 A  
HETATM    9  C   UNL     1      -9.806   3.040  71.228  1.00  0.00    -0.145 A  
HETATM   10  C   UNL     1      -9.266   3.901  73.387  1.00  0.00    -0.104 A  
HETATM   11  C   UNL     1     -10.223   1.839  71.803  1.00  0.00    -0.134 A  
HETATM   12 CL   UNL     1      -8.743   5.161  74.451  1.00  0.00    -0.112 Cl 
HETATM   13  C   UNL     1     -10.109   1.645  73.168  1.00  0.00    -0.163 A  
ENDBRANCH   6   7
ENDBRANCH   3   6
BRANCH   3  14
HETATM   14  C   UNL     1      -9.499   6.212  69.063  1.00  0.00    -0.127 C  
BRANCH  14  15
HETATM   15  C   UNL     1      -8.565   7.226  68.316  1.00  0.00    -0.123 C  
BRANCH  15  16
HETATM   16  N   UNL     1      -9.124   7.977  67.202  1.00  0.00    -0.134 N  
HETATM   17  H   UNL     1      -8.994   7.649  66.245  1.00  0.00     0.000 HD 
HETATM   18  C   UNL     1      -9.838   9.146  67.450  1.00  0.00    -0.184 C  
HETATM   19  O   UNL     1     -10.197   9.496  68.562  1.00  0.00    -0.185 OA 
BRANCH  18  20
HETATM   20  C   UNL     1     -10.258   9.932  66.183  1.00  0.00    -0.207 C  
HETATM   21  N   UNL     1     -11.146  10.987  66.398  1.00  0.00    -0.145 N  
HETATM   22  O   UNL     1      -9.818   9.633  65.086  1.00  0.00    -0.295 OA 
HETATM   23  H   UNL     1     -11.719  11.026  67.241  1.00  0.00     0.000 HD 
BRANCH  21  24
HETATM   24  C   UNL     1     -11.236  12.034  65.387  1.00  0.00    -0.322 C  
BRANCH  24  25
HETATM   25  C   UNL     1     -10.090  13.081  65.414  1.00  0.00    -0.252 C  
BRANCH  25  26
HETATM   26  N   UNL     1     -10.383  14.342  66.263  1.00  0.00    -0.287 N  
BRANCH  26  27
HETATM   27  C   UNL     1      -9.640  15.577  65.673  1.00  0.00    -0.293 C  
HETATM   28  C   UNL     1     -10.374  16.904  65.809  1.00  0.00    -0.298 C  
ENDBRANCH  26  27
BRANCH  26  29
HETATM   29  C   UNL     1     -11.921  14.558  66.274  1.00  0.00    -0.322 C  
HETATM   30  C   UNL     1     -12.612  14.399  64.931  1.00  0.00    -0.298 C  
ENDBRANCH  26  29
BRANCH  26  31
HETATM   31  C   UNL     1      -9.862  14.141  67.734  1.00  0.00    -0.231 C  
BRANCH  31  32
HETATM   32  C   UNL     1     -10.858  14.181  68.882  1.00  0.00    -0.276 A  
HETATM   33  C   UNL     1     -11.481  12.997  69.330  1.00  0.00    -0.323 A  
HETATM   34  C   UNL     1     -12.495  13.024  70.293  1.00  0.00    -0.217 A  
HETATM   35  C   UNL     1     -12.924  14.236  70.817  1.00  0.00    -0.368 A  
HETATM   36  C   UNL     1     -12.314  15.417  70.407  1.00  0.00    -0.443 A  
HETATM   37  C   UNL     1     -11.286  15.393  69.458  1.00  0.00    -0.301 A  
HETATM   38 CL   UNL     1     -10.602  16.916  69.017  1.00  0.00    -0.340 Cl 
ENDBRANCH  31  32
ENDBRANCH  26  31
ENDBRANCH  25  26
ENDBRANCH  24  25
ENDBRANCH  21  24
ENDBRANCH  18  20
ENDBRANCH  15  16
ENDBRANCH  14  15
ENDBRANCH   3  14
ENDBRANCH   2   3
TORSDOF 15
ENDMDL
MODEL      345
REMARK 921   NORMALIZED FREE ENERGY PREDICTED BY IDOCK:   -3.07 KCAL/MOL
REMARK 922        TOTAL FREE ENERGY PREDICTED BY IDOCK:   -8.43 KCAL/MOL
REMARK 923 INTER-LIGAND FREE ENERGY PREDICTED BY IDOCK:   -7.61 KCAL/MOL
REMARK 924 INTRA-LIGAND FREE ENERGY PREDICTED BY IDOCK:   -0.81 KCAL/MOL
REMARK 927      BINDING AFFINITY PREDICTED BY RF-SCORE:    0.00 PKD
ROOT
HETATM    1  C   UNL     1      -9.839  18.441  68.695  1.00  0.00    -0.403 C  
HETATM    2  C   UNL     1      -9.858  16.919  68.710  1.00  0.00    -0.269 C  
ENDROOT
BRANCH   2   3
HETATM    3  N   UNL     1      -9.695  16.227  67.321  1.00  0.00    -0.235 N  
BRANCH   3   4
HETATM    4  C   UNL     1     -10.878  16.621  66.389  1.00  0.00    -0.012 C  
HETATM    5  C   UNL     1     -10.739  17.941  65.675  1.00  0.00    -0.055 C  
ENDBRANCH   3   4
BRANCH   3   6
HETATM    6  C   UNL     1      -9.806  14.692  67.469  1.00  0.00    -0.218 C  
BRANCH   6   7
HETATM    7  C   UNL     1     -10.710  13.842  66.581  1.00  0.00    -0.277 A  
HETATM    8  C   UNL     1     -10.914  11.904  65.084  1.00  0.00    -0.365 A  
HETATM    9  C   UNL     1     -12.049  14.131  66.269  1.00  0.00    -0.463 A  
HETATM   10  C   UNL     1     -10.181  12.671  65.999  1.00  0.00    -0.272 A  
HETATM   11  C   UNL     1     -12.804  13.337  65.405  1.00  0.00    -0.340 A  
HETATM   12 CL   UNL     1      -8.573  12.149  66.369  1.00  0.00    -0.072 Cl 
HETATM   13  C   UNL     1     -12.231  12.237  64.791  1.00  0.00    -0.438 A  
ENDBRANCH   6   7
ENDBRANCH   3   6
BRANCH   3  14
HETATM   14  C   UNL     1      -8.281  16.681  66.776  1.00  0.00    -0.239 C  
BRANCH  14  15
HETATM   15  C   UNL     1      -7.035  16.339  67.664  1.00  0.00    -0.144 C  
BRANCH  15  16
HETATM   16  N   UNL     1      -6.594  14.953  67.719  1.00  0.00    -0.157 N  
HETATM   17  H   UNL     1      -6.443  14.429  66.858  1.00  0.00     0.000 HD 
HETATM   18  C   UNL     1      -6.378  14.348  68.954  1.00  0.00    -0.091 C  
HETATM   19  O   UNL     1      -6.350  14.958  70.009  1.00  0.00    -0.144 OA 
BRANCH  18  20
HETATM   20  C   UNL     1      -6.052  12.835  68.888  1.00  0.00    -0.079 C  
HETATM   21  N   UNL     1      -6.745  12.031  69.794  1.00  0.00    -0.341 N  
HETATM   22  O   UNL     1      -5.247  12.403  68.080  1.00  0.00    -0.059 OA 
HETATM   23  H   UNL     1      -7.166  12.431  70.633  1.00  0.00     0.000 HD 
BRANCH  21  24
HETATM   24  C   UNL     1      -6.854  10.605  69.513  1.00  0.00    -0.109 C  
BRANCH  24  25
HETATM   25  C   UNL     1      -7.512   9.757  70.635  1.00  0.00    -0.025 C  
BRANCH  25  26
HETATM   26  N   UNL     1      -8.796   9.003  70.210  1.00  0.00    -0.171 N  
BRANCH  26  27
HETATM   27  C   UNL     1      -9.823   8.981  71.381  1.00  0.00    -0.311 C  
HETATM   28  C   UNL     1     -11.079   9.811  71.159  1.00  0.00    -0.414 C  
ENDBRANCH  26  27
BRANCH  26  29
HETATM   29  C   UNL     1      -9.375   9.723  68.961  1.00  0.00    -0.161 C  
HETATM   30  C   UNL     1      -9.808   8.811  67.826  1.00  0.00    -0.217 C  
ENDBRANCH  26  29
BRANCH  26  31
HETATM   31  C   UNL     1      -8.458   7.508  69.855  1.00  0.00    -0.138 C  
BRANCH  31  32
HETATM   32  C   UNL     1      -8.800   6.415  70.855  1.00  0.00    -0.136 A  
HETATM   33  C   UNL     1      -7.919   6.113  71.914  1.00  0.00    -0.106 A  
HETATM   34  C   UNL     1      -8.147   5.028  72.767  1.00  0.00    -0.105 A  
HETATM   35  C   UNL     1      -9.249   4.208  72.570  1.00  0.00    -0.146 A  
HETATM   36  C   UNL     1     -10.145   4.494  71.544  1.00  0.00    -0.239 A  
HETATM   37  C   UNL     1      -9.931   5.589  70.701  1.00  0.00    -0.207 A  
HETATM   38 CL   UNL     1     -11.102   5.851  69.458  1.00  0.00    -0.455 Cl 
ENDBRANCH  31  32
ENDBRANCH  26  31
ENDBRANCH  25  26
ENDBRANCH  24  25
ENDBRANCH  21  24
ENDBRANCH  18  20
ENDBRANCH  15  16
ENDBRANCH  14  15
ENDBRANCH   3  14
ENDBRANCH   2   3
TORSDOF 15
ENDMDL
MODEL      346
REMARK 921   NORMALIZED FREE ENERGY PREDICTED BY IDOCK:   -3.06 KCAL/MOL
REMARK 922        TOTAL FREE ENERGY PREDICTED BY IDOCK:   -8.41 KCAL/MOL
REMARK 923 INTER-LIGAND FREE ENERGY PREDICTED BY IDOCK:   -7.30 KCAL/MOL
REMARK 924 INTRA-LIGAND FREE ENERGY PREDICTED BY IDOCK:   -1.11 KCAL/MOL
REMARK 927      BINDING AFFINITY PREDICTED BY RF-SCORE:    0.00 PKD
ROOT
HETATM    1  C   UNL     1      -6.744   6.604  69.697  1.00  0.00    -0.050 C  
HETATM    2  C   UNL     1      -7.675   5.752  68.847  1.00  0.00    -0.090 C  
ENDROOT
BRANCH   2   3
HETATM    3  N   UNL     1      -7.547   4.210  69.043  1.00  0.00    -0.055 N  
BRANCH   3   4
HETATM    4  C   UNL     1      -6.432   3.896  70.082  1.00  0.00    -0.032 C  
HETATM    5  C   UNL     1      -6.334   2.458  70.525  1.00  0.00    -0.024 C  
ENDBRANCH   3   4
BRANCH   3   6
HETATM    6  C   UNL     1      -7.065   3.539  67.735  1.00  0.00    -0.051 C  
BRANCH   6   7
HETATM    7  C   UNL     1      -7.747   3.773  66.390  1.00  0.00    -0.089 A  
HETATM    8  C   UNL     1      -7.839   5.085  64.314  1.00  0.00    -0.091 A  
HETATM    9  C   UNL     1      -8.903   3.114  65.938  1.00  0.00    -0.139 A  
HETATM   10  C   UNL     1      -7.205   4.735  65.513  1.00  0.00    -0.071 A  
HETATM   11  C   UNL     1      -9.506   3.414  64.716  1.00  0.00    -0.155 A  
HETATM   12 CL   UNL     1      -5.734   5.558  65.906  1.00  0.00    -0.013 Cl 
HETATM   13  C   UNL     1      -8.991   4.418  63.915  1.00  0.00    -0.143 A  
ENDBRANCH   6   7
ENDBRANCH   3   6
BRANCH   3  14
HETATM   14  C   UNL     1      -8.982   3.710  69.484  1.00  0.00    -0.109 C  
BRANCH  14  15
HETATM   15  C   UNL     1      -9.669   4.480  70.664  1.00  0.00    -0.212 C  
BRANCH  15  16
HETATM   16  N   UNL     1     -10.038   5.872  70.450  1.00  0.00    -0.191 N  
HETATM   17  H   UNL     1      -9.713   6.367  69.619  1.00  0.00     0.000 HD 
HETATM   18  C   UNL     1     -10.838   6.524  71.384  1.00  0.00    -0.245 C  
HETATM   19  O   UNL     1     -11.419   5.953  72.292  1.00  0.00    -0.293 OA 
BRANCH  18  20
HETATM   20  C   UNL     1     -11.044   8.036  71.121  1.00  0.00    -0.252 C  
HETATM   21  N   UNL     1     -10.398   8.543  69.991  1.00  0.00    -0.205 N  
HETATM   22  O   UNL     1     -11.739   8.712  71.861  1.00  0.00    -0.305 OA 
HETATM   23  H   UNL     1      -9.606   8.050  69.577  1.00  0.00     0.000 HD 
BRANCH  21  24
HETATM   24  C   UNL     1     -10.882   9.792  69.418  1.00  0.00    -0.232 C  
BRANCH  24  25
HETATM   25  C   UNL     1      -9.853  10.955  69.398  1.00  0.00    -0.027 C  
BRANCH  25  26
HETATM   26  N   UNL     1     -10.147  12.064  68.358  1.00  0.00    -0.208 N  
BRANCH  26  27
HETATM   27  C   UNL     1     -10.644  13.356  69.071  1.00  0.00    -0.077 C  
HETATM   28  C   UNL     1     -11.959  13.217  69.825  1.00  0.00    -0.382 C  
ENDBRANCH  26  27
BRANCH  26  29
HETATM   29  C   UNL     1      -8.839  12.323  67.561  1.00  0.00    -0.182 C  
HETATM   30  C   UNL     1      -8.172  13.663  67.820  1.00  0.00    -0.179 C  
ENDBRANCH  26  29
BRANCH  26  31
HETATM   31  C   UNL     1     -11.287  11.602  67.377  1.00  0.00    -0.300 C  
BRANCH  31  32
HETATM   32  C   UNL     1     -11.336  12.186  65.975  1.00  0.00    -0.410 A  
HETATM   33  C   UNL     1     -12.011  13.400  65.729  1.00  0.00    -0.447 A  
HETATM   34  C   UNL     1     -12.184  13.890  64.429  1.00  0.00    -0.449 A  
HETATM   35  C   UNL     1     -11.703  13.169  63.345  1.00  0.00    -0.409 A  
HETATM   36  C   UNL     1     -11.017  11.978  63.560  1.00  0.00    -0.514 A  
HETATM   37  C   UNL     1     -10.825  11.494  64.858  1.00  0.00    -0.283 A  
HETATM   38 CL   UNL     1      -9.965  10.005  65.012  1.00  0.00    -0.385 Cl 
ENDBRANCH  31  32
ENDBRANCH  26  31
ENDBRANCH  25  26
ENDBRANCH  24  25
ENDBRANCH  21  24
ENDBRANCH  18  20
ENDBRANCH  15  16
ENDBRANCH  14  15
ENDBRANCH   3  14
ENDBRANCH   2   3
TORSDOF 15
ENDMDL
MODEL      347
REMARK 921   NORMALIZED FREE ENERGY PREDICTED BY IDOCK:   -3.05 KCAL/MOL
REMARK 922        TOTAL FREE ENERGY PREDICTED BY IDOCK:   -8.39 KCAL/MOL
REMARK 923 INTER-LIGAND FREE ENERGY PREDICTED BY IDOCK:   -6.80 KCAL/MOL
REMARK 924 INTRA-LIGAND FREE ENERGY PREDICTED BY IDOCK:   -1.59 KCAL/MOL
REMARK 927      BINDING AFFINITY PREDICTED BY RF-SCORE:    0.00 PKD
ROOT
HETATM    1  C   UNL     1      -7.815   7.086  71.073  1.00  0.00    -0.096 C  
HETATM    2  C   UNL     1      -8.923   7.335  70.060  1.00  0.00    -0.142 C  
ENDROOT
BRANCH   2   3
HETATM    3  N   UNL     1      -9.412   6.080  69.272  1.00  0.00    -0.132 N  
BRANCH   3   4
HETATM    4  C   UNL     1     -10.905   5.792  69.603  1.00  0.00    -0.348 C  
HETATM    5  C   UNL     1     -11.542   6.710  70.616  1.00  0.00    -0.439 C  
ENDBRANCH   3   4
BRANCH   3   6
HETATM    6  C   UNL     1      -8.654   4.818  69.745  1.00  0.00    -0.081 C  
BRANCH   6   7
HETATM    7  C   UNL     1      -7.545   4.168  68.924  1.00  0.00    -0.055 A  
HETATM    8  C   UNL     1      -6.881   2.346  67.414  1.00  0.00    -0.040 A  
HETATM    9  C   UNL     1      -6.197   4.565  68.917  1.00  0.00    -0.031 A  
HETATM   10  C   UNL     1      -7.865   3.064  68.106  1.00  0.00    -0.058 A  
HETATM   11  C   UNL     1      -5.221   3.891  68.181  1.00  0.00    -0.012 A  
HETATM   12 CL   UNL     1      -9.502   2.524  67.952  1.00  0.00    -0.239 Cl 
HETATM   13  C   UNL     1      -5.557   2.765  67.450  1.00  0.00    -0.018 A  
ENDBRANCH   6   7
ENDBRANCH   3   6
BRANCH   3  14
HETATM   14  C   UNL     1      -9.154   6.402  67.745  1.00  0.00    -0.111 C  
BRANCH  14  15
HETATM   15  C   UNL     1      -8.288   7.670  67.424  1.00  0.00    -0.116 C  
BRANCH  15  16
HETATM   16  N   UNL     1      -8.839   8.660  66.509  1.00  0.00    -0.131 N  
HETATM   17  H   UNL     1      -8.397   8.824  65.605  1.00  0.00     0.000 HD 
HETATM   18  C   UNL     1      -9.972   9.380  66.876  1.00  0.00    -0.229 C  
HETATM   19  O   UNL     1     -10.661   9.108  67.845  1.00  0.00    -0.230 OA 
BRANCH  18  20
HETATM   20  C   UNL     1     -10.377  10.501  65.887  1.00  0.00    -0.206 C  
HETATM   21  N   UNL     1     -11.066  11.577  66.449  1.00  0.00    -0.292 N  
HETATM   22  O   UNL     1     -10.090  10.426  64.704  1.00  0.00    -0.345 OA 
HETATM   23  H   UNL     1     -11.547  11.481  67.344  1.00  0.00     0.000 HD 
BRANCH  21  24
HETATM   24  C   UNL     1     -11.083  12.843  65.726  1.00  0.00    -0.284 C  
BRANCH  24  25
HETATM   25  C   UNL     1      -9.734  13.611  65.705  1.00  0.00    -0.094 C  
BRANCH  25  26
HETATM   26  N   UNL     1      -9.700  14.889  66.579  1.00  0.00    -0.261 N  
BRANCH  26  27
HETATM   27  C   UNL     1      -8.568  15.844  66.100  1.00  0.00    -0.241 C  
HETATM   28  C   UNL     1      -7.444  16.074  67.101  1.00  0.00    -0.253 C  
ENDBRANCH  26  27
BRANCH  26  29
HETATM   29  C   UNL     1     -11.095  15.567  66.479  1.00  0.00    -0.182 C  
HETATM   30  C   UNL     1     -11.191  16.717  65.493  1.00  0.00     0.229 C  
ENDBRANCH  26  29
BRANCH  26  31
HETATM   31  C   UNL     1      -9.395  14.515  68.077  1.00  0.00    -0.201 C  
BRANCH  31  32
HETATM   32  C   UNL     1     -10.519  14.578  69.098  1.00  0.00    -0.224 A  
HETATM   33  C   UNL     1     -11.237  13.415  69.445  1.00  0.00    -0.235 A  
HETATM   34  C   UNL     1     -12.358  13.469  70.280  1.00  0.00    -0.370 A  
HETATM   35  C   UNL     1     -12.800  14.690  70.772  1.00  0.00    -0.418 A  
HETATM   36  C   UNL     1     -12.099  15.851  70.462  1.00  0.00    -0.343 A  
HETATM   37  C   UNL     1     -10.966  15.799  69.643  1.00  0.00    -0.306 A  
HETATM   38 CL   UNL     1     -10.175  17.299  69.316  1.00  0.00    -0.268 Cl 
ENDBRANCH  31  32
ENDBRANCH  26  31
ENDBRANCH  25  26
ENDBRANCH  24  25
ENDBRANCH  21  24
ENDBRANCH  18  20
ENDBRANCH  15  16
ENDBRANCH  14  15
ENDBRANCH   3  14
ENDBRANCH   2   3
TORSDOF 15
ENDMDL
MODEL      348
REMARK 921   NORMALIZED FREE ENERGY PREDICTED BY IDOCK:   -3.05 KCAL/MOL
REMARK 922        TOTAL FREE ENERGY PREDICTED BY IDOCK:   -8.38 KCAL/MOL
REMARK 923 INTER-LIGAND FREE ENERGY PREDICTED BY IDOCK:   -7.45 KCAL/MOL
REMARK 924 INTRA-LIGAND FREE ENERGY PREDICTED BY IDOCK:   -0.93 KCAL/MOL
REMARK 927      BINDING AFFINITY PREDICTED BY RF-SCORE:    0.00 PKD
ROOT
HETATM    1  C   UNL     1      -7.419  15.926  67.864  1.00  0.00    -0.145 C  
HETATM    2  C   UNL     1      -8.322  15.254  66.840  1.00  0.00    -0.243 C  
ENDROOT
BRANCH   2   3
HETATM    3  N   UNL     1      -9.706  14.770  67.373  1.00  0.00    -0.213 N  
BRANCH   3   4
HETATM    4  C   UNL     1     -10.838  15.683  66.820  1.00  0.00    -0.277 C  
HETATM    5  C   UNL     1     -10.515  17.154  66.741  1.00  0.00    -0.263 C  
ENDBRANCH   3   4
BRANCH   3   6
HETATM    6  C   UNL     1      -9.780  14.939  68.909  1.00  0.00    -0.223 C  
BRANCH   6   7
HETATM    7  C   UNL     1     -11.073  14.752  69.696  1.00  0.00    -0.299 A  
HETATM    8  C   UNL     1     -12.717  15.728  71.241  1.00  0.00    -0.498 A  
HETATM    9  C   UNL     1     -11.800  13.554  69.796  1.00  0.00    -0.395 A  
HETATM   10  C   UNL     1     -11.600  15.852  70.406  1.00  0.00    -0.371 A  
HETATM   11  C   UNL     1     -12.950  13.439  70.579  1.00  0.00     0.022 A  
HETATM   12 CL   UNL     1     -10.854  17.410  70.299  1.00  0.00     0.617 Cl 
HETATM   13  C   UNL     1     -13.395  14.517  71.322  1.00  0.00    -0.430 A  
ENDBRANCH   6   7
ENDBRANCH   3   6
BRANCH   3  14
HETATM   14  C   UNL     1      -9.836  13.258  66.925  1.00  0.00    -0.247 C  
BRANCH  14  15
HETATM   15  C   UNL     1      -8.857  12.233  67.594  1.00  0.00    -0.175 C  
BRANCH  15  16
HETATM   16  N   UNL     1      -9.265  11.617  68.849  1.00  0.00    -0.404 N  
HETATM   17  H   UNL     1      -8.857  11.929  69.730  1.00  0.00     0.000 HD 
HETATM   18  C   UNL     1     -10.214  10.599  68.838  1.00  0.00    -0.201 C  
HETATM   19  O   UNL     1     -10.881  10.307  67.860  1.00  0.00    -0.244 OA 
BRANCH  18  20
HETATM   20  C   UNL     1     -10.460   9.926  70.212  1.00  0.00    -0.291 C  
HETATM   21  N   UNL     1      -9.550   8.927  70.562  1.00  0.00    -0.187 N  
HETATM   22  O   UNL     1     -11.388  10.273  70.922  1.00  0.00    -0.337 OA 
HETATM   23  H   UNL     1      -8.989   8.458  69.851  1.00  0.00     0.000 HD 
BRANCH  21  24
HETATM   24  C   UNL     1      -9.420   8.571  71.970  1.00  0.00    -0.294 C  
BRANCH  24  25
HETATM   25  C   UNL     1     -10.316   7.394  72.441  1.00  0.00    -0.222 C  
BRANCH  25  26
HETATM   26  N   UNL     1     -10.324   6.167  71.497  1.00  0.00    -0.204 N  
BRANCH  26  27
HETATM   27  C   UNL     1     -10.566   4.860  72.309  1.00  0.00    -0.185 C  
HETATM   28  C   UNL     1     -11.029   5.064  73.745  1.00  0.00    -0.336 C  
ENDBRANCH  26  27
BRANCH  26  29
HETATM   29  C   UNL     1     -11.439   6.391  70.439  1.00  0.00    -0.393 C  
HETATM   30  C   UNL     1     -11.089   5.968  69.023  1.00  0.00    -0.377 C  
ENDBRANCH  26  29
BRANCH  26  31
HETATM   31  C   UNL     1      -8.930   6.022  70.780  1.00  0.00    -0.149 C  
BRANCH  31  32
HETATM   32  C   UNL     1      -7.950   4.972  71.276  1.00  0.00    -0.109 A  
HETATM   33  C   UNL     1      -6.948   5.313  72.210  1.00  0.00    -0.080 A  
HETATM   34  C   UNL     1      -5.955   4.400  72.582  1.00  0.00    -0.016 A  
HETATM   35  C   UNL     1      -5.927   3.134  72.015  1.00  0.00    -0.013 A  
HETATM   36  C   UNL     1      -6.914   2.765  71.106  1.00  0.00    -0.032 A  
HETATM   37  C   UNL     1      -7.920   3.667  70.746  1.00  0.00    -0.054 A  
HETATM   38 CL   UNL     1      -9.092   3.108  69.606  1.00  0.00    -0.186 Cl 
ENDBRANCH  31  32
ENDBRANCH  26  31
ENDBRANCH  25  26
ENDBRANCH  24  25
ENDBRANCH  21  24
ENDBRANCH  18  20
ENDBRANCH  15  16
ENDBRANCH  14  15
ENDBRANCH   3  14
ENDBRANCH   2   3
TORSDOF 15
ENDMDL
MODEL      349
REMARK 921   NORMALIZED FREE ENERGY PREDICTED BY IDOCK:   -3.04 KCAL/MOL
REMARK 922        TOTAL FREE ENERGY PREDICTED BY IDOCK:   -8.36 KCAL/MOL
REMARK 923 INTER-LIGAND FREE ENERGY PREDICTED BY IDOCK:   -6.98 KCAL/MOL
REMARK 924 INTRA-LIGAND FREE ENERGY PREDICTED BY IDOCK:   -1.38 KCAL/MOL
REMARK 927      BINDING AFFINITY PREDICTED BY RF-SCORE:    0.00 PKD
ROOT
HETATM    1  C   UNL     1     -12.865  14.010  65.494  1.00  0.00    -0.453 C  
HETATM    2  C   UNL     1     -11.838  14.668  66.404  1.00  0.00    -0.293 C  
ENDROOT
BRANCH   2   3
HETATM    3  N   UNL     1     -10.966  13.694  67.255  1.00  0.00    -0.284 N  
BRANCH   3   4
HETATM    4  C   UNL     1     -11.823  12.481  67.720  1.00  0.00    -0.313 C  
HETATM    5  C   UNL     1     -11.749  12.150  69.190  1.00  0.00    -0.384 C  
ENDBRANCH   3   4
BRANCH   3   6
HETATM    6  C   UNL     1     -10.515  14.381  68.566  1.00  0.00    -0.254 C  
BRANCH   6   7
HETATM    7  C   UNL     1      -9.210  15.165  68.678  1.00  0.00    -0.196 A  
HETATM    8  C   UNL     1      -8.059  17.320  68.416  1.00  0.00    -0.259 A  
HETATM    9  C   UNL     1      -7.955  14.615  68.986  1.00  0.00    -0.122 A  
HETATM   10  C   UNL     1      -9.233  16.556  68.443  1.00  0.00    -0.222 A  
HETATM   11  C   UNL     1      -6.789  15.383  69.020  1.00  0.00    -0.136 A  
HETATM   12 CL   UNL     1     -10.726  17.376  68.140  1.00  0.00    -0.373 Cl 
HETATM   13  C   UNL     1      -6.836  16.731  68.710  1.00  0.00    -0.188 A  
ENDBRANCH   6   7
ENDBRANCH   3   6
BRANCH   3  14
HETATM   14  C   UNL     1      -9.745  13.291  66.334  1.00  0.00    -0.276 C  
BRANCH  14  15
HETATM   15  C   UNL     1      -9.991  12.147  65.291  1.00  0.00    -0.237 C  
BRANCH  15  16
HETATM   16  N   UNL     1      -8.942  11.155  65.103  1.00  0.00    -0.341 N  
HETATM   17  H   UNL     1      -8.256  11.269  64.357  1.00  0.00     0.000 HD 
HETATM   18  C   UNL     1      -8.880  10.051  65.949  1.00  0.00    -0.144 C  
HETATM   19  O   UNL     1      -9.537   9.945  66.970  1.00  0.00    -0.164 OA 
BRANCH  18  20
HETATM   20  C   UNL     1      -7.813   8.996  65.563  1.00  0.00    -0.096 C  
HETATM   21  N   UNL     1      -7.754   7.872  66.388  1.00  0.00    -0.094 N  
HETATM   22  O   UNL     1      -7.095   9.158  64.590  1.00  0.00    -0.088 OA 
HETATM   23  H   UNL     1      -8.135   7.897  67.334  1.00  0.00     0.000 HD 
BRANCH  21  24
HETATM   24  C   UNL     1      -7.135   6.660  65.866  1.00  0.00    -0.062 C  
BRANCH  24  25
HETATM   25  C   UNL     1      -8.118   5.621  65.262  1.00  0.00    -0.125 C  
BRANCH  25  26
HETATM   26  N   UNL     1      -8.941   4.825  66.304  1.00  0.00    -0.117 N  
BRANCH  26  27
HETATM   27  C   UNL     1     -10.448   5.203  66.207  1.00  0.00    -0.289 C  
HETATM   28  C   UNL     1     -10.881   6.378  67.073  1.00  0.00    -0.464 C  
ENDBRANCH  26  27
BRANCH  26  29
HETATM   29  C   UNL     1      -8.717   3.312  66.029  1.00  0.00    -0.127 C  
HETATM   30  C   UNL     1      -7.400   2.960  65.359  1.00  0.00    -0.071 C  
ENDBRANCH  26  29
BRANCH  26  31
HETATM   31  C   UNL     1      -8.462   5.178  67.761  1.00  0.00    -0.104 C  
BRANCH  31  32
HETATM   32  C   UNL     1      -8.380   4.072  68.800  1.00  0.00    -0.090 A  
HETATM   33  C   UNL     1      -9.525   3.686  69.527  1.00  0.00    -0.246 A  
HETATM   34  C   UNL     1      -9.448   2.766  70.578  1.00  0.00    -0.202 A  
HETATM   35  C   UNL     1      -8.222   2.225  70.940  1.00  0.00    -0.067 A  
HETATM   36  C   UNL     1      -7.079   2.574  70.228  1.00  0.00    -0.033 A  
HETATM   37  C   UNL     1      -7.154   3.479  69.164  1.00  0.00    -0.049 A  
HETATM   38 CL   UNL     1      -5.675   3.846  68.351  1.00  0.00    -0.021 Cl 
ENDBRANCH  31  32
ENDBRANCH  26  31
ENDBRANCH  25  26
ENDBRANCH  24  25
ENDBRANCH  21  24
ENDBRANCH  18  20
ENDBRANCH  15  16
ENDBRANCH  14  15
ENDBRANCH   3  14
ENDBRANCH   2   3
TORSDOF 15
ENDMDL
MODEL      350
REMARK 921   NORMALIZED FREE ENERGY PREDICTED BY IDOCK:   -3.04 KCAL/MOL
REMARK 922        TOTAL FREE ENERGY PREDICTED BY IDOCK:   -8.36 KCAL/MOL
REMARK 923 INTER-LIGAND FREE ENERGY PREDICTED BY IDOCK:   -7.99 KCAL/MOL
REMARK 924 INTRA-LIGAND FREE ENERGY PREDICTED BY IDOCK:   -0.37 KCAL/MOL
REMARK 927      BINDING AFFINITY PREDICTED BY RF-SCORE:    0.00 PKD
ROOT
HETATM    1  C   UNL     1      -9.766  13.053  64.593  1.00  0.00     0.120 C  
HETATM    2  C   UNL     1      -9.905  13.306  66.087  1.00  0.00    -0.280 C  
ENDROOT
BRANCH   2   3
HETATM    3  N   UNL     1     -11.335  13.694  66.577  1.00  0.00    -0.311 N  
BRANCH   3   4
HETATM    4  C   UNL     1     -12.254  13.991  65.356  1.00  0.00    -0.439 C  
HETATM    5  C   UNL     1     -12.897  12.789  64.712  1.00  0.00    -0.374 C  
ENDBRANCH   3   4
BRANCH   3   6
HETATM    6  C   UNL     1     -11.290  15.023  67.367  1.00  0.00    -0.332 C  
BRANCH   6   7
HETATM    7  C   UNL     1     -10.149  16.027  67.227  1.00  0.00    -0.266 A  
HETATM    8  C   UNL     1      -8.786  17.775  68.288  1.00  0.00    -0.277 A  
HETATM    9  C   UNL     1      -9.453  16.308  66.040  1.00  0.00    -0.369 A  
HETATM   10  C   UNL     1      -9.747  16.758  68.364  1.00  0.00    -0.247 A  
HETATM   11  C   UNL     1      -8.452  17.278  65.970  1.00  0.00    -0.136 A  
HETATM   12 CL   UNL     1     -10.459  16.449  69.911  1.00  0.00    -0.249 Cl 
HETATM   13  C   UNL     1      -8.136  18.031  67.087  1.00  0.00    -0.225 A  
ENDBRANCH   6   7
ENDBRANCH   3   6
BRANCH   3  14
HETATM   14  C   UNL     1     -11.832  12.482  67.464  1.00  0.00    -0.323 C  
BRANCH  14  15
HETATM   15  C   UNL     1     -11.849  12.699  69.016  1.00  0.00    -0.294 C  
BRANCH  15  16
HETATM   16  N   UNL     1     -12.091  11.542  69.866  1.00  0.00    -0.319 N  
HETATM   17  H   UNL     1     -11.659  10.644  69.645  1.00  0.00     0.000 HD 
HETATM   18  C   UNL     1     -12.914  11.667  70.981  1.00  0.00    -0.135 C  
HETATM   19  O   UNL     1     -13.306  12.737  71.415  1.00  0.00    -0.231 OA 
BRANCH  18  20
HETATM   20  C   UNL     1     -13.211  10.339  71.722  1.00  0.00    -0.430 C  
HETATM   21  N   UNL     1     -12.868   9.176  71.030  1.00  0.00    -0.517 N  
HETATM   22  O   UNL     1     -13.701  10.341  72.838  1.00  0.00     0.474 OA 
HETATM   23  H   UNL     1     -12.751   9.185  70.016  1.00  0.00     0.000 HD 
BRANCH  21  24
HETATM   24  C   UNL     1     -12.682   7.946  71.791  1.00  0.00    -0.329 C  
BRANCH  24  25
HETATM   25  C   UNL     1     -11.285   7.778  72.447  1.00  0.00    -0.337 C  
BRANCH  25  26
HETATM   26  N   UNL     1     -10.310   6.860  71.671  1.00  0.00    -0.199 N  
BRANCH  26  27
HETATM   27  C   UNL     1      -9.881   7.532  70.334  1.00  0.00    -0.183 C  
HETATM   28  C   UNL     1     -10.527   6.958  69.081  1.00  0.00    -0.224 C  
ENDBRANCH  26  27
BRANCH  26  29
HETATM   29  C   UNL     1      -9.085   6.587  72.588  1.00  0.00    -0.131 C  
HETATM   30  C   UNL     1      -8.387   7.823  73.127  1.00  0.00    -0.207 C  
ENDBRANCH  26  29
BRANCH  26  31
HETATM   31  C   UNL     1     -11.016   5.501  71.307  1.00  0.00    -0.128 C  
BRANCH  31  32
HETATM   32  C   UNL     1     -10.185   4.229  71.249  1.00  0.00    -0.106 A  
HETATM   33  C   UNL     1      -9.337   3.978  70.150  1.00  0.00    -0.240 A  
HETATM   34  C   UNL     1      -8.665   2.759  70.010  1.00  0.00    -0.126 A  
HETATM   35  C   UNL     1      -8.840   1.756  70.954  1.00  0.00    -0.114 A  
HETATM   36  C   UNL     1      -9.655   1.984  72.057  1.00  0.00    -0.187 A  
HETATM   37  C   UNL     1     -10.314   3.208  72.212  1.00  0.00    -0.037 A  
HETATM   38 CL   UNL     1     -11.305   3.384  73.615  1.00  0.00    -0.281 Cl 
ENDBRANCH  31  32
ENDBRANCH  26  31
ENDBRANCH  25  26
ENDBRANCH  24  25
ENDBRANCH  21  24
ENDBRANCH  18  20
ENDBRANCH  15  16
ENDBRANCH  14  15
ENDBRANCH   3  14
ENDBRANCH   2   3
TORSDOF 15
ENDMDL
MODEL      351
REMARK 921   NORMALIZED FREE ENERGY PREDICTED BY IDOCK:   -3.03 KCAL/MOL
REMARK 922        TOTAL FREE ENERGY PREDICTED BY IDOCK:   -8.35 KCAL/MOL
REMARK 923 INTER-LIGAND FREE ENERGY PREDICTED BY IDOCK:   -7.58 KCAL/MOL
REMARK 924 INTRA-LIGAND FREE ENERGY PREDICTED BY IDOCK:   -0.77 KCAL/MOL
REMARK 927      BINDING AFFINITY PREDICTED BY RF-SCORE:    0.00 PKD
ROOT
HETATM    1  C   UNL     1     -11.651  10.617  68.460  1.00  0.00    -0.279 C  
HETATM    2  C   UNL     1     -10.798  11.868  68.310  1.00  0.00    -0.224 C  
ENDROOT
BRANCH   2   3
HETATM    3  N   UNL     1     -10.809  12.528  66.897  1.00  0.00    -0.243 N  
BRANCH   3   4
HETATM    4  C   UNL     1     -11.864  13.672  66.853  1.00  0.00    -0.411 C  
HETATM    5  C   UNL     1     -12.215  14.189  65.480  1.00  0.00    -0.443 C  
ENDBRANCH   3   4
BRANCH   3   6
HETATM    6  C   UNL     1     -11.286  11.513  65.832  1.00  0.00    -0.108 C  
BRANCH   6   7
HETATM    7  C   UNL     1     -10.385  11.018  64.704  1.00  0.00    -0.410 A  
HETATM    8  C   UNL     1      -8.790   9.321  63.920  1.00  0.00    -0.160 A  
HETATM    9  C   UNL     1     -10.139  11.700  63.501  1.00  0.00    -0.455 A  
HETATM   10  C   UNL     1      -9.719   9.784  64.860  1.00  0.00    -0.192 A  
HETATM   11  C   UNL     1      -9.260  11.214  62.532  1.00  0.00    -0.317 A  
HETATM   12 CL   UNL     1     -10.001   8.799  66.255  1.00  0.00    -0.353 Cl 
HETATM   13  C   UNL     1      -8.565  10.038  62.751  1.00  0.00    -0.196 A  
ENDBRANCH   6   7
ENDBRANCH   3   6
BRANCH   3  14
HETATM   14  C   UNL     1      -9.328  13.023  66.639  1.00  0.00    -0.241 C  
BRANCH  14  15
HETATM   15  C   UNL     1      -8.187  11.962  66.814  1.00  0.00    -0.129 C  
BRANCH  15  16
HETATM   16  N   UNL     1      -8.191  11.146  68.019  1.00  0.00    -0.120 N  
HETATM   17  H   UNL     1      -8.818  11.373  68.791  1.00  0.00     0.000 HD 
HETATM   18  C   UNL     1      -7.335  10.052  68.112  1.00  0.00    -0.083 C  
HETATM   19  O   UNL     1      -6.703   9.607  67.169  1.00  0.00    -0.073 OA 
BRANCH  18  20
HETATM   20  C   UNL     1      -7.326   9.349  69.492  1.00  0.00    -0.073 C  
HETATM   21  N   UNL     1      -7.999   8.128  69.548  1.00  0.00    -0.111 N  
HETATM   22  O   UNL     1      -6.752   9.848  70.446  1.00  0.00    -0.108 OA 
HETATM   23  H   UNL     1      -8.705   7.887  68.851  1.00  0.00     0.000 HD 
BRANCH  21  24
HETATM   24  C   UNL     1      -7.670   7.203  70.627  1.00  0.00    -0.094 C  
BRANCH  24  25
HETATM   25  C   UNL     1      -8.116   5.734  70.399  1.00  0.00    -0.106 C  
BRANCH  25  26
HETATM   26  N   UNL     1      -9.530   5.395  70.931  1.00  0.00    -0.162 N  
BRANCH  26  27
HETATM   27  C   UNL     1     -10.585   5.541  69.795  1.00  0.00    -0.318 C  
HETATM   28  C   UNL     1     -10.015   5.639  68.387  1.00  0.00    -0.201 C  
ENDBRANCH  26  27
BRANCH  26  29
HETATM   29  C   UNL     1      -9.492   3.945  71.486  1.00  0.00    -0.155 C  
HETATM   30  C   UNL     1      -9.868   2.857  70.496  1.00  0.00     0.063 C  
ENDBRANCH  26  29
BRANCH  26  31
HETATM   31  C   UNL     1      -9.934   6.395  72.078  1.00  0.00    -0.167 C  
BRANCH  31  32
HETATM   32  C   UNL     1     -11.315   7.028  72.053  1.00  0.00    -0.300 A  
HETATM   33  C   UNL     1     -12.469   6.236  72.236  1.00  0.00    -0.074 A  
HETATM   34  C   UNL     1     -13.753   6.771  72.087  1.00  0.00     0.043 A  
HETATM   35  C   UNL     1     -13.915   8.103  71.733  1.00  0.00    -0.479 A  
HETATM   36  C   UNL     1     -12.795   8.911  71.565  1.00  0.00    -0.383 A  
HETATM   37  C   UNL     1     -11.509   8.386  71.732  1.00  0.00    -0.301 A  
HETATM   38 CL   UNL     1     -10.190   9.475  71.495  1.00  0.00    -0.218 Cl 
ENDBRANCH  31  32
ENDBRANCH  26  31
ENDBRANCH  25  26
ENDBRANCH  24  25
ENDBRANCH  21  24
ENDBRANCH  18  20
ENDBRANCH  15  16
ENDBRANCH  14  15
ENDBRANCH   3  14
ENDBRANCH   2   3
TORSDOF 15
ENDMDL
MODEL      352
REMARK 921   NORMALIZED FREE ENERGY PREDICTED BY IDOCK:   -3.03 KCAL/MOL
REMARK 922        TOTAL FREE ENERGY PREDICTED BY IDOCK:   -8.35 KCAL/MOL
REMARK 923 INTER-LIGAND FREE ENERGY PREDICTED BY IDOCK:   -7.94 KCAL/MOL
REMARK 924 INTRA-LIGAND FREE ENERGY PREDICTED BY IDOCK:   -0.40 KCAL/MOL
REMARK 927      BINDING AFFINITY PREDICTED BY RF-SCORE:    0.00 PKD
ROOT
HETATM    1  C   UNL     1      -8.408  14.894  69.697  1.00  0.00     0.052 C  
HETATM    2  C   UNL     1      -9.233  16.080  69.219  1.00  0.00    -0.243 C  
ENDROOT
BRANCH   2   3
HETATM    3  N   UNL     1     -10.711  15.764  68.834  1.00  0.00    -0.235 N  
BRANCH   3   4
HETATM    4  C   UNL     1     -11.305  16.934  67.996  1.00  0.00     0.073 C  
HETATM    5  C   UNL     1     -10.331  17.664  67.106  1.00  0.00    -0.343 C  
ENDBRANCH   3   4
BRANCH   3   6
HETATM    6  C   UNL     1     -11.595  15.701  70.101  1.00  0.00    -0.354 C  
BRANCH   6   7
HETATM    7  C   UNL     1     -12.155  14.391  70.650  1.00  0.00    -0.404 A  
HETATM    8  C   UNL     1     -13.658  13.291  72.252  1.00  0.00    -0.703 A  
HETATM    9  C   UNL     1     -11.727  13.105  70.281  1.00  0.00    -0.203 A  
HETATM   10  C   UNL     1     -13.177  14.445  71.621  1.00  0.00    -0.350 A  
HETATM   11  C   UNL     1     -12.246  11.948  70.863  1.00  0.00    -0.351 A  
HETATM   12 CL   UNL     1     -13.859  15.961  72.103  1.00  0.00    -0.384 Cl 
HETATM   13  C   UNL     1     -13.193  12.039  71.867  1.00  0.00    -0.469 A  
ENDBRANCH   6   7
ENDBRANCH   3   6
BRANCH   3  14
HETATM   14  C   UNL     1     -10.670  14.387  68.057  1.00  0.00    -0.241 C  
BRANCH  14  15
HETATM   15  C   UNL     1     -11.681  14.210  66.872  1.00  0.00    -0.414 C  
BRANCH  15  16
HETATM   16  N   UNL     1     -11.499  13.073  65.982  1.00  0.00    -0.321 N  
HETATM   17  H   UNL     1     -11.979  12.193  66.170  1.00  0.00     0.000 HD 
HETATM   18  C   UNL     1     -10.667  13.194  64.872  1.00  0.00    -0.346 C  
HETATM   19  O   UNL     1     -10.217  14.256  64.478  1.00  0.00    -0.304 OA 
BRANCH  18  20
HETATM   20  C   UNL     1     -10.440  11.879  64.085  1.00  0.00    -0.349 C  
HETATM   21  N   UNL     1      -9.288  11.167  64.423  1.00  0.00    -0.316 N  
HETATM   22  O   UNL     1     -11.238  11.510  63.239  1.00  0.00    -0.329 OA 
HETATM   23  H   UNL     1      -8.509  11.627  64.894  1.00  0.00     0.000 HD 
BRANCH  21  24
HETATM   24  C   UNL     1      -9.226   9.750  64.089  1.00  0.00    -0.224 C  
BRANCH  24  25
HETATM   25  C   UNL     1      -7.952   9.009  64.579  1.00  0.00    -0.131 C  
BRANCH  25  26
HETATM   26  N   UNL     1      -8.193   7.985  65.715  1.00  0.00    -0.124 N  
BRANCH  26  27
HETATM   27  C   UNL     1      -7.534   8.478  67.037  1.00  0.00    -0.084 C  
HETATM   28  C   UNL     1      -6.563   7.499  67.683  1.00  0.00    -0.062 C  
ENDBRANCH  26  27
BRANCH  26  29
HETATM   29  C   UNL     1      -9.729   7.812  65.878  1.00  0.00     0.288 C  
HETATM   30  C   UNL     1     -10.397   8.784  66.834  1.00  0.00    -0.344 C  
ENDBRANCH  26  29
BRANCH  26  31
HETATM   31  C   UNL     1      -7.537   6.602  65.351  1.00  0.00    -0.086 C  
BRANCH  31  32
HETATM   32  C   UNL     1      -8.429   5.386  65.168  1.00  0.00    -0.150 A  
HETATM   33  C   UNL     1      -8.808   4.603  66.279  1.00  0.00    -0.113 A  
HETATM   34  C   UNL     1      -9.518   3.408  66.123  1.00  0.00    -0.124 A  
HETATM   35  C   UNL     1      -9.848   2.956  64.852  1.00  0.00     0.060 A  
HETATM   36  C   UNL     1      -9.503   3.718  63.740  1.00  0.00    -0.146 A  
HETATM   37  C   UNL     1      -8.811   4.924  63.893  1.00  0.00    -0.077 A  
HETATM   38 CL   UNL     1      -8.428   5.787  62.447  1.00  0.00    -0.093 Cl 
ENDBRANCH  31  32
ENDBRANCH  26  31
ENDBRANCH  25  26
ENDBRANCH  24  25
ENDBRANCH  21  24
ENDBRANCH  18  20
ENDBRANCH  15  16
ENDBRANCH  14  15
ENDBRANCH   3  14
ENDBRANCH   2   3
TORSDOF 15
ENDMDL
MODEL      353
REMARK 921   NORMALIZED FREE ENERGY PREDICTED BY IDOCK:   -3.02 KCAL/MOL
REMARK 922        TOTAL FREE ENERGY PREDICTED BY IDOCK:   -8.32 KCAL/MOL
REMARK 923 INTER-LIGAND FREE ENERGY PREDICTED BY IDOCK:   -6.95 KCAL/MOL
REMARK 924 INTRA-LIGAND FREE ENERGY PREDICTED BY IDOCK:   -1.37 KCAL/MOL
REMARK 927      BINDING AFFINITY PREDICTED BY RF-SCORE:    0.00 PKD
ROOT
HETATM    1  C   UNL     1     -13.383  14.789  71.070  1.00  0.00    -0.427 C  
HETATM    2  C   UNL     1     -12.119  13.961  70.888  1.00  0.00    -0.313 C  
ENDROOT
BRANCH   2   3
HETATM    3  N   UNL     1     -11.302  14.250  69.591  1.00  0.00    -0.253 N  
BRANCH   3   4
HETATM    4  C   UNL     1     -10.057  15.121  69.928  1.00  0.00    -0.128 C  
HETATM    5  C   UNL     1      -8.776  14.732  69.234  1.00  0.00    -0.026 C  
ENDBRANCH   3   4
BRANCH   3   6
HETATM    6  C   UNL     1     -12.133  15.114  68.614  1.00  0.00    -0.151 C  
BRANCH   6   7
HETATM    7  C   UNL     1     -11.556  15.677  67.318  1.00  0.00     0.065 A  
HETATM    8  C   UNL     1     -11.135  15.343  64.920  1.00  0.00    -0.435 A  
HETATM    9  C   UNL     1     -10.835  16.878  67.202  1.00  0.00    -0.088 A  
HETATM   10  C   UNL     1     -11.732  14.948  66.124  1.00  0.00    -0.178 A  
HETATM   11  C   UNL     1     -10.288  17.309  65.993  1.00  0.00    -0.312 A  
HETATM   12 CL   UNL     1     -12.675  13.497  66.107  1.00  0.00    -0.336 Cl 
HETATM   13  C   UNL     1     -10.415  16.530  64.856  1.00  0.00     0.101 A  
ENDBRANCH   6   7
ENDBRANCH   3   6
BRANCH   3  14
HETATM   14  C   UNL     1     -10.939  12.834  68.985  1.00  0.00    -0.193 C  
BRANCH  14  15
HETATM   15  C   UNL     1     -11.769  11.608  69.501  1.00  0.00    -0.344 C  
BRANCH  15  16
HETATM   16  N   UNL     1     -11.046  10.501  70.109  1.00  0.00    -0.332 N  
HETATM   17  H   UNL     1     -10.135  10.220  69.745  1.00  0.00     0.000 HD 
HETATM   18  C   UNL     1     -11.603   9.828  71.193  1.00  0.00    -0.392 C  
HETATM   19  O   UNL     1     -12.584  10.222  71.801  1.00  0.00    -0.405 OA 
BRANCH  18  20
HETATM   20  C   UNL     1     -10.810   8.582  71.661  1.00  0.00    -0.286 C  
HETATM   21  N   UNL     1     -10.047   7.951  70.677  1.00  0.00    -0.194 N  
HETATM   22  O   UNL     1     -10.861   8.207  72.821  1.00  0.00    -0.353 OA 
HETATM   23  H   UNL     1     -10.252   8.089  69.688  1.00  0.00     0.000 HD 
BRANCH  21  24
HETATM   24  C   UNL     1      -8.949   7.089  71.099  1.00  0.00    -0.146 C  
BRANCH  24  25
HETATM   25  C   UNL     1      -8.751   5.805  70.248  1.00  0.00    -0.137 C  
BRANCH  25  26
HETATM   26  N   UNL     1      -7.945   6.011  68.942  1.00  0.00    -0.099 N  
BRANCH  26  27
HETATM   27  C   UNL     1      -6.579   5.268  69.025  1.00  0.00    -0.051 C  
HETATM   28  C   UNL     1      -6.526   4.115  70.018  1.00  0.00    -0.032 C  
ENDBRANCH  26  27
BRANCH  26  29
HETATM   29  C   UNL     1      -8.809   5.480  67.765  1.00  0.00    -0.105 C  
HETATM   30  C   UNL     1      -9.784   4.371  68.120  1.00  0.00    -0.181 C  
ENDBRANCH  26  29
BRANCH  26  31
HETATM   31  C   UNL     1      -7.635   7.539  68.728  1.00  0.00    -0.106 C  
BRANCH  31  32
HETATM   32  C   UNL     1      -8.097   8.215  67.448  1.00  0.00    -0.122 A  
HETATM   33  C   UNL     1      -9.353   8.855  67.390  1.00  0.00    -0.165 A  
HETATM   34  C   UNL     1      -9.857   9.369  66.190  1.00  0.00    -0.356 A  
HETATM   35  C   UNL     1      -9.127   9.236  65.016  1.00  0.00    -0.245 A  
HETATM   36  C   UNL     1      -7.877   8.626  65.048  1.00  0.00    -0.116 A  
HETATM   37  C   UNL     1      -7.361   8.129  66.249  1.00  0.00    -0.078 A  
HETATM   38 CL   UNL     1      -5.804   7.386  66.176  1.00  0.00    -0.036 Cl 
ENDBRANCH  31  32
ENDBRANCH  26  31
ENDBRANCH  25  26
ENDBRANCH  24  25
ENDBRANCH  21  24
ENDBRANCH  18  20
ENDBRANCH  15  16
ENDBRANCH  14  15
ENDBRANCH   3  14
ENDBRANCH   2   3
TORSDOF 15
ENDMDL
MODEL      354
REMARK 921   NORMALIZED FREE ENERGY PREDICTED BY IDOCK:   -3.01 KCAL/MOL
REMARK 922        TOTAL FREE ENERGY PREDICTED BY IDOCK:   -8.31 KCAL/MOL
REMARK 923 INTER-LIGAND FREE ENERGY PREDICTED BY IDOCK:   -6.92 KCAL/MOL
REMARK 924 INTRA-LIGAND FREE ENERGY PREDICTED BY IDOCK:   -1.39 KCAL/MOL
REMARK 927      BINDING AFFINITY PREDICTED BY RF-SCORE:    0.00 PKD
ROOT
HETATM    1  C   UNL     1     -12.732  13.924  65.443  1.00  0.00    -0.525 C  
HETATM    2  C   UNL     1     -11.807  14.777  66.299  1.00  0.00    -0.209 C  
ENDROOT
BRANCH   2   3
HETATM    3  N   UNL     1     -10.994  14.009  67.387  1.00  0.00    -0.288 N  
BRANCH   3   4
HETATM    4  C   UNL     1     -11.836  12.823  67.943  1.00  0.00    -0.339 C  
HETATM    5  C   UNL     1     -11.905  12.715  69.445  1.00  0.00    -0.356 C  
ENDBRANCH   3   4
BRANCH   3   6
HETATM    6  C   UNL     1     -10.741  14.919  68.612  1.00  0.00    -0.250 C  
BRANCH   6   7
HETATM    7  C   UNL     1      -9.427  15.663  68.827  1.00  0.00    -0.214 A  
HETATM    8  C   UNL     1      -8.111  17.701  68.430  1.00  0.00    -0.285 A  
HETATM    9  C   UNL     1      -8.280  15.130  69.439  1.00  0.00    -0.197 A  
HETATM   10  C   UNL     1      -9.319  16.994  68.371  1.00  0.00    -0.266 A  
HETATM   11  C   UNL     1      -7.090  15.851  69.556  1.00  0.00    -0.184 A  
HETATM   12 CL   UNL     1     -10.683  17.803  67.678  1.00  0.00    -0.376 Cl 
HETATM   13  C   UNL     1      -6.996  17.127  69.029  1.00  0.00    -0.235 A  
ENDBRANCH   6   7
ENDBRANCH   3   6
BRANCH   3  14
HETATM   14  C   UNL     1      -9.651  13.556  66.684  1.00  0.00    -0.278 C  
BRANCH  14  15
HETATM   15  C   UNL     1      -9.679  12.191  65.914  1.00  0.00    -0.239 C  
BRANCH  15  16
HETATM   16  N   UNL     1      -8.609  11.238  66.173  1.00  0.00    -0.219 N  
HETATM   17  H   UNL     1      -7.776  11.229  65.584  1.00  0.00     0.000 HD 
HETATM   18  C   UNL     1      -8.727  10.341  67.231  1.00  0.00    -0.125 C  
HETATM   19  O   UNL     1      -9.591  10.418  68.088  1.00  0.00    -0.141 OA 
BRANCH  18  20
HETATM   20  C   UNL     1      -7.596   9.287  67.318  1.00  0.00    -0.091 C  
HETATM   21  N   UNL     1      -7.696   8.386  68.380  1.00  0.00    -0.103 N  
HETATM   22  O   UNL     1      -6.698   9.262  66.494  1.00  0.00    -0.070 OA 
HETATM   23  H   UNL     1      -8.260   8.605  69.201  1.00  0.00     0.000 HD 
BRANCH  21  24
HETATM   24  C   UNL     1      -6.974   7.122  68.287  1.00  0.00    -0.076 C  
BRANCH  24  25
HETATM   25  C   UNL     1      -7.788   5.935  67.705  1.00  0.00    -0.098 C  
BRANCH  25  26
HETATM   26  N   UNL     1      -8.709   5.219  68.724  1.00  0.00    -0.090 N  
BRANCH  26  27
HETATM   27  C   UNL     1     -10.174   5.185  68.198  1.00  0.00    -0.111 C  
HETATM   28  C   UNL     1     -11.043   6.363  68.617  1.00  0.00    -0.393 C  
ENDBRANCH  26  27
BRANCH  26  29
HETATM   29  C   UNL     1      -8.150   3.786  68.940  1.00  0.00    -0.058 C  
HETATM   30  C   UNL     1      -6.676   3.606  68.624  1.00  0.00    -0.045 C  
ENDBRANCH  26  29
BRANCH  26  31
HETATM   31  C   UNL     1      -8.720   6.000  70.090  1.00  0.00    -0.139 C  
BRANCH  31  32
HETATM   32  C   UNL     1      -8.793   5.214  71.389  1.00  0.00    -0.145 A  
HETATM   33  C   UNL     1     -10.026   4.710  71.853  1.00  0.00    -0.254 A  
HETATM   34  C   UNL     1     -10.142   4.100  73.106  1.00  0.00    -0.204 A  
HETATM   35  C   UNL     1      -9.032   3.996  73.934  1.00  0.00    -0.091 A  
HETATM   36  C   UNL     1      -7.799   4.467  73.494  1.00  0.00    -0.090 A  
HETATM   37  C   UNL     1      -7.675   5.060  72.233  1.00  0.00    -0.096 A  
HETATM   38 CL   UNL     1      -6.101   5.615  71.788  1.00  0.00    -0.033 Cl 
ENDBRANCH  31  32
ENDBRANCH  26  31
ENDBRANCH  25  26
ENDBRANCH  24  25
ENDBRANCH  21  24
ENDBRANCH  18  20
ENDBRANCH  15  16
ENDBRANCH  14  15
ENDBRANCH   3  14
ENDBRANCH   2   3
TORSDOF 15
ENDMDL
MODEL      355
REMARK 921   NORMALIZED FREE ENERGY PREDICTED BY IDOCK:   -3.00 KCAL/MOL
REMARK 922        TOTAL FREE ENERGY PREDICTED BY IDOCK:   -8.28 KCAL/MOL
REMARK 923 INTER-LIGAND FREE ENERGY PREDICTED BY IDOCK:   -7.46 KCAL/MOL
REMARK 924 INTRA-LIGAND FREE ENERGY PREDICTED BY IDOCK:   -0.82 KCAL/MOL
REMARK 927      BINDING AFFINITY PREDICTED BY RF-SCORE:    0.00 PKD
ROOT
HETATM    1  C   UNL     1      -9.600   5.691  66.012  1.00  0.00    -0.104 C  
HETATM    2  C   UNL     1      -8.381   6.535  66.354  1.00  0.00    -0.120 C  
ENDROOT
BRANCH   2   3
HETATM    3  N   UNL     1      -8.437   7.278  67.725  1.00  0.00    -0.121 N  
BRANCH   3   4
HETATM    4  C   UNL     1      -7.346   8.387  67.775  1.00  0.00    -0.093 C  
HETATM    5  C   UNL     1      -6.567   8.599  66.501  1.00  0.00    -0.063 C  
ENDBRANCH   3   4
BRANCH   3   6
HETATM    6  C   UNL     1      -8.068   6.312  68.876  1.00  0.00    -0.110 C  
BRANCH   6   7
HETATM    7  C   UNL     1      -8.231   4.799  68.765  1.00  0.00    -0.083 A  
HETATM    8  C   UNL     1      -7.304   2.669  67.964  1.00  0.00    -0.052 A  
HETATM    9  C   UNL     1      -9.363   4.071  69.168  1.00  0.00    -0.236 A  
HETATM   10  C   UNL     1      -7.181   4.043  68.202  1.00  0.00    -0.059 A  
HETATM   11  C   UNL     1      -9.467   2.690  68.989  1.00  0.00    -0.158 A  
HETATM   12 CL   UNL     1      -5.695   4.802  67.744  1.00  0.00    -0.017 Cl 
HETATM   13  C   UNL     1      -8.450   1.992  68.364  1.00  0.00    -0.085 A  
ENDBRANCH   6   7
ENDBRANCH   3   6
BRANCH   3  14
HETATM   14  C   UNL     1      -9.912   7.835  67.854  1.00  0.00    -0.172 C  
BRANCH  14  15
HETATM   15  C   UNL     1     -10.466   8.664  66.644  1.00  0.00    -0.169 C  
BRANCH  15  16
HETATM   16  N   UNL     1     -10.727  10.081  66.848  1.00  0.00    -0.183 N  
HETATM   17  H   UNL     1     -10.861  10.447  67.790  1.00  0.00     0.000 HD 
HETATM   18  C   UNL     1     -10.790  10.934  65.750  1.00  0.00    -0.049 C  
HETATM   19  O   UNL     1     -10.453  10.611  64.623  1.00  0.00    -0.336 OA 
BRANCH  18  20
HETATM   20  C   UNL     1     -11.215  12.387  66.079  1.00  0.00    -0.335 C  
HETATM   21  N   UNL     1     -10.196  13.339  66.014  1.00  0.00    -0.286 N  
HETATM   22  O   UNL     1     -12.371  12.653  66.362  1.00  0.00    -0.521 OA 
HETATM   23  H   UNL     1      -9.216  13.062  66.075  1.00  0.00     0.000 HD 
BRANCH  21  24
HETATM   24  C   UNL     1     -10.567  14.741  65.856  1.00  0.00    -0.314 C  
BRANCH  24  25
HETATM   25  C   UNL     1     -11.003  15.461  67.160  1.00  0.00    -0.317 C  
BRANCH  25  26
HETATM   26  N   UNL     1     -10.250  16.781  67.455  1.00  0.00    -0.281 N  
BRANCH  26  27
HETATM   27  C   UNL     1     -10.747  17.911  66.506  1.00  0.00    -0.116 C  
HETATM   28  C   UNL     1     -10.902  19.281  67.152  1.00  0.00    -0.543 C  
ENDBRANCH  26  27
BRANCH  26  29
HETATM   29  C   UNL     1     -10.496  17.144  68.946  1.00  0.00    -0.346 C  
HETATM   30  C   UNL     1     -11.212  16.084  69.765  1.00  0.00    -0.344 C  
ENDBRANCH  26  29
BRANCH  26  31
HETATM   31  C   UNL     1      -8.708  16.598  67.199  1.00  0.00    -0.195 C  
BRANCH  31  32
HETATM   32  C   UNL     1      -7.718  17.284  68.125  1.00  0.00    -0.217 A  
HETATM   33  C   UNL     1      -7.423  18.655  67.968  1.00  0.00    -0.268 A  
HETATM   34  C   UNL     1      -6.421  19.277  68.720  1.00  0.00    -0.292 A  
HETATM   35  C   UNL     1      -5.678  18.541  69.633  1.00  0.00    -0.243 A  
HETATM   36  C   UNL     1      -5.961  17.192  69.822  1.00  0.00    -0.237 A  
HETATM   37  C   UNL     1      -6.975  16.570  69.086  1.00  0.00    -0.225 A  
HETATM   38 CL   UNL     1      -7.241  14.892  69.396  1.00  0.00    -0.171 Cl 
ENDBRANCH  31  32
ENDBRANCH  26  31
ENDBRANCH  25  26
ENDBRANCH  24  25
ENDBRANCH  21  24
ENDBRANCH  18  20
ENDBRANCH  15  16
ENDBRANCH  14  15
ENDBRANCH   3  14
ENDBRANCH   2   3
TORSDOF 15
ENDMDL
MODEL      356
REMARK 921   NORMALIZED FREE ENERGY PREDICTED BY IDOCK:   -2.99 KCAL/MOL
REMARK 922        TOTAL FREE ENERGY PREDICTED BY IDOCK:   -8.28 KCAL/MOL
REMARK 923 INTER-LIGAND FREE ENERGY PREDICTED BY IDOCK:   -6.89 KCAL/MOL
REMARK 924 INTRA-LIGAND FREE ENERGY PREDICTED BY IDOCK:   -1.39 KCAL/MOL
REMARK 927      BINDING AFFINITY PREDICTED BY RF-SCORE:    0.00 PKD
ROOT
HETATM    1  C   UNL     1     -10.466  10.374  66.643  1.00  0.00    -0.279 C  
HETATM    2  C   UNL     1      -9.259  10.950  65.918  1.00  0.00    -0.191 C  
ENDROOT
BRANCH   2   3
HETATM    3  N   UNL     1      -8.581  10.005  64.879  1.00  0.00    -0.161 N  
BRANCH   3   4
HETATM    4  C   UNL     1      -9.263  10.165  63.489  1.00  0.00    -0.286 C  
HETATM    5  C   UNL     1      -8.501  10.980  62.474  1.00  0.00    -0.272 C  
ENDBRANCH   3   4
BRANCH   3   6
HETATM    6  C   UNL     1      -8.816   8.525  65.263  1.00  0.00    -0.100 C  
BRANCH   6   7
HETATM    7  C   UNL     1      -8.282   7.363  64.430  1.00  0.00    -0.004 A  
HETATM    8  C   UNL     1      -7.566   5.013  64.372  1.00  0.00    -0.077 A  
HETATM    9  C   UNL     1      -7.885   7.441  63.085  1.00  0.00    -0.126 A  
HETATM   10  C   UNL     1      -8.153   6.097  65.038  1.00  0.00    -0.133 A  
HETATM   11  C   UNL     1      -7.355   6.349  62.396  1.00  0.00    -0.056 A  
HETATM   12 CL   UNL     1      -8.687   5.839  66.663  1.00  0.00    -0.117 Cl 
HETATM   13  C   UNL     1      -7.170   5.141  63.046  1.00  0.00    -0.043 A  
ENDBRANCH   6   7
ENDBRANCH   3   6
BRANCH   3  14
HETATM   14  C   UNL     1      -7.047  10.392  64.879  1.00  0.00    -0.043 C  
BRANCH  14  15
HETATM   15  C   UNL     1      -6.090   9.498  65.741  1.00  0.00    -0.060 C  
BRANCH  15  16
HETATM   16  N   UNL     1      -6.468   9.224  67.120  1.00  0.00    -0.063 N  
HETATM   17  H   UNL     1      -7.047   9.887  67.634  1.00  0.00     0.000 HD 
HETATM   18  C   UNL     1      -6.035   8.051  67.732  1.00  0.00    -0.046 C  
HETATM   19  O   UNL     1      -5.509   7.130  67.131  1.00  0.00    -0.020 OA 
BRANCH  18  20
HETATM   20  C   UNL     1      -6.379   7.939  69.238  1.00  0.00    -0.035 C  
HETATM   21  N   UNL     1      -7.517   7.189  69.540  1.00  0.00    -0.093 N  
HETATM   22  O   UNL     1      -5.677   8.471  70.082  1.00  0.00    -0.024 OA 
HETATM   23  H   UNL     1      -8.233   7.018  68.834  1.00  0.00     0.000 HD 
BRANCH  21  24
HETATM   24  C   UNL     1      -7.658   6.656  70.890  1.00  0.00    -0.089 C  
BRANCH  24  25
HETATM   25  C   UNL     1      -8.847   5.679  71.096  1.00  0.00    -0.135 C  
BRANCH  25  26
HETATM   26  N   UNL     1     -10.072   6.292  71.818  1.00  0.00    -0.185 N  
BRANCH  26  27
HETATM   27  C   UNL     1     -11.334   6.207  70.910  1.00  0.00    -0.287 C  
HETATM   28  C   UNL     1     -11.062   6.245  69.413  1.00  0.00    -0.477 C  
ENDBRANCH  26  27
BRANCH  26  29
HETATM   29  C   UNL     1     -10.276   5.514  73.147  1.00  0.00    -0.189 C  
HETATM   30  C   UNL     1     -11.515   4.638  73.207  1.00  0.00    -0.346 C  
ENDBRANCH  26  29
BRANCH  26  31
HETATM   31  C   UNL     1      -9.818   7.815  72.126  1.00  0.00    -0.187 C  
BRANCH  31  32
HETATM   32  C   UNL     1     -10.911   8.824  71.816  1.00  0.00    -0.416 A  
HETATM   33  C   UNL     1     -12.178   8.716  72.427  1.00  0.00    -0.419 A  
HETATM   34  C   UNL     1     -13.239   9.551  72.061  1.00  0.00    -0.539 A  
HETATM   35  C   UNL     1     -13.065  10.499  71.062  1.00  0.00    -0.419 A  
HETATM   36  C   UNL     1     -11.821  10.640  70.456  1.00  0.00    -0.453 A  
HETATM   37  C   UNL     1     -10.751   9.820  70.833  1.00  0.00    -0.305 A  
HETATM   38 CL   UNL     1      -9.252  10.076  70.015  1.00  0.00    -0.210 Cl 
ENDBRANCH  31  32
ENDBRANCH  26  31
ENDBRANCH  25  26
ENDBRANCH  24  25
ENDBRANCH  21  24
ENDBRANCH  18  20
ENDBRANCH  15  16
ENDBRANCH  14  15
ENDBRANCH   3  14
ENDBRANCH   2   3
TORSDOF 15
ENDMDL
MODEL      357
REMARK 921   NORMALIZED FREE ENERGY PREDICTED BY IDOCK:   -2.99 KCAL/MOL
REMARK 922        TOTAL FREE ENERGY PREDICTED BY IDOCK:   -8.28 KCAL/MOL
REMARK 923 INTER-LIGAND FREE ENERGY PREDICTED BY IDOCK:   -6.66 KCAL/MOL
REMARK 924 INTRA-LIGAND FREE ENERGY PREDICTED BY IDOCK:   -1.61 KCAL/MOL
REMARK 927      BINDING AFFINITY PREDICTED BY RF-SCORE:    0.00 PKD
ROOT
HETATM    1  C   UNL     1     -10.904   6.553  67.759  1.00  0.00    -0.395 C  
HETATM    2  C   UNL     1     -10.135   6.294  69.046  1.00  0.00    -0.172 C  
ENDROOT
BRANCH   2   3
HETATM    3  N   UNL     1      -9.071   5.155  68.981  1.00  0.00    -0.103 N  
BRANCH   3   4
HETATM    4  C   UNL     1      -9.735   3.834  68.495  1.00  0.00    -0.019 C  
HETATM    5  C   UNL     1      -8.887   2.593  68.608  1.00  0.00    -0.154 C  
ENDBRANCH   3   4
BRANCH   3   6
HETATM    6  C   UNL     1      -8.542   4.831  70.398  1.00  0.00    -0.098 C  
BRANCH   6   7
HETATM    7  C   UNL     1      -9.370   5.061  71.658  1.00  0.00    -0.188 A  
HETATM    8  C   UNL     1      -9.603   6.252  73.795  1.00  0.00    -0.177 A  
HETATM    9  C   UNL     1     -10.523   4.343  72.017  1.00  0.00    -0.128 A  
HETATM   10  C   UNL     1      -8.961   6.061  72.565  1.00  0.00    -0.132 A  
HETATM   11  C   UNL     1     -11.204   4.570  73.214  1.00  0.00    -0.388 A  
HETATM   12 CL   UNL     1      -7.608   7.079  72.205  1.00  0.00    -0.090 Cl 
HETATM   13  C   UNL     1     -10.730   5.506  74.117  1.00  0.00    -0.151 A  
ENDBRANCH   6   7
ENDBRANCH   3   6
BRANCH   3  14
HETATM   14  C   UNL     1      -7.932   5.683  68.017  1.00  0.00    -0.097 C  
BRANCH  14  15
HETATM   15  C   UNL     1      -6.744   6.459  68.683  1.00  0.00    -0.061 C  
BRANCH  15  16
HETATM   16  N   UNL     1      -6.924   7.876  68.962  1.00  0.00    -0.057 N  
HETATM   17  H   UNL     1      -7.385   8.175  69.822  1.00  0.00     0.000 HD 
HETATM   18  C   UNL     1      -6.464   8.821  68.050  1.00  0.00    -0.057 C  
HETATM   19  O   UNL     1      -5.741   8.552  67.106  1.00  0.00    -0.037 OA 
BRANCH  18  20
HETATM   20  C   UNL     1      -6.840  10.286  68.386  1.00  0.00    -0.061 C  
HETATM   21  N   UNL     1      -8.095  10.701  67.937  1.00  0.00    -0.110 N  
HETATM   22  O   UNL     1      -6.076  11.001  69.012  1.00  0.00    -0.041 OA 
HETATM   23  H   UNL     1      -8.570  10.208  67.182  1.00  0.00     0.000 HD 
BRANCH  21  24
HETATM   24  C   UNL     1      -8.711  11.858  68.576  1.00  0.00    -0.108 C  
BRANCH  24  25
HETATM   25  C   UNL     1      -8.428  13.222  67.889  1.00  0.00    -0.177 C  
BRANCH  25  26
HETATM   26  N   UNL     1      -9.686  13.961  67.370  1.00  0.00    -0.229 N  
BRANCH  26  27
HETATM   27  C   UNL     1     -10.957  13.090  67.595  1.00  0.00    -0.254 C  
HETATM   28  C   UNL     1     -11.997  13.688  68.533  1.00  0.00    -0.396 C  
ENDBRANCH  26  27
BRANCH  26  29
HETATM   29  C   UNL     1      -9.785  15.315  68.125  1.00  0.00    -0.212 C  
HETATM   30  C   UNL     1      -9.184  16.509  67.405  1.00  0.00    -0.220 C  
ENDBRANCH  26  29
BRANCH  26  31
HETATM   31  C   UNL     1      -9.565  14.221  65.823  1.00  0.00    -0.155 C  
BRANCH  31  32
HETATM   32  C   UNL     1     -10.490  13.478  64.874  1.00  0.00    -0.417 A  
HETATM   33  C   UNL     1     -11.732  14.034  64.503  1.00  0.00    -0.428 A  
HETATM   34  C   UNL     1     -12.657  13.314  63.739  1.00  0.00    -0.216 A  
HETATM   35  C   UNL     1     -12.370  12.015  63.343  1.00  0.00    -0.635 A  
HETATM   36  C   UNL     1     -11.144  11.448  63.678  1.00  0.00    -0.411 A  
HETATM   37  C   UNL     1     -10.209  12.172  64.426  1.00  0.00    -0.306 A  
HETATM   38 CL   UNL     1      -8.722  11.372  64.791  1.00  0.00     0.212 Cl 
ENDBRANCH  31  32
ENDBRANCH  26  31
ENDBRANCH  25  26
ENDBRANCH  24  25
ENDBRANCH  21  24
ENDBRANCH  18  20
ENDBRANCH  15  16
ENDBRANCH  14  15
ENDBRANCH   3  14
ENDBRANCH   2   3
TORSDOF 15
ENDMDL
MODEL      358
REMARK 921   NORMALIZED FREE ENERGY PREDICTED BY IDOCK:   -2.98 KCAL/MOL
REMARK 922        TOTAL FREE ENERGY PREDICTED BY IDOCK:   -8.26 KCAL/MOL
REMARK 923 INTER-LIGAND FREE ENERGY PREDICTED BY IDOCK:   -7.36 KCAL/MOL
REMARK 924 INTRA-LIGAND FREE ENERGY PREDICTED BY IDOCK:   -0.90 KCAL/MOL
REMARK 927      BINDING AFFINITY PREDICTED BY RF-SCORE:    0.00 PKD
ROOT
HETATM    1  C   UNL     1      -7.477   7.297  73.031  1.00  0.00    -0.081 C  
HETATM    2  C   UNL     1      -8.230   6.231  72.249  1.00  0.00    -0.108 C  
ENDROOT
BRANCH   2   3
HETATM    3  N   UNL     1      -9.593   5.781  72.861  1.00  0.00    -0.155 N  
BRANCH   3   4
HETATM    4  C   UNL     1      -9.369   4.596  73.845  1.00  0.00    -0.117 C  
HETATM    5  C   UNL     1     -10.618   3.924  74.357  1.00  0.00    -0.248 C  
ENDBRANCH   3   4
BRANCH   3   6
HETATM    6  C   UNL     1     -10.514   5.207  71.758  1.00  0.00    -0.200 C  
BRANCH   6   7
HETATM    7  C   UNL     1      -9.982   4.397  70.580  1.00  0.00    -0.256 A  
HETATM    8  C   UNL     1      -9.638   4.253  68.151  1.00  0.00    -0.196 A  
HETATM    9  C   UNL     1      -9.473   3.090  70.655  1.00  0.00    -0.224 A  
HETATM   10  C   UNL     1     -10.003   4.976  69.294  1.00  0.00    -0.207 A  
HETATM   11  C   UNL     1      -9.051   2.385  69.526  1.00  0.00    -0.182 A  
HETATM   12 CL   UNL     1     -10.522   6.612  69.071  1.00  0.00    -0.220 Cl 
HETATM   13  C   UNL     1      -9.157   2.955  68.271  1.00  0.00    -0.221 A  
ENDBRANCH   6   7
ENDBRANCH   3   6
BRANCH   3  14
HETATM   14  C   UNL     1     -10.204   7.068  73.548  1.00  0.00    -0.333 C  
BRANCH  14  15
HETATM   15  C   UNL     1     -11.337   7.819  72.766  1.00  0.00    -0.389 C  
BRANCH  15  16
HETATM   16  N   UNL     1     -10.961   8.591  71.591  1.00  0.00    -0.270 N  
HETATM   17  H   UNL     1     -10.138   8.329  71.047  1.00  0.00     0.000 HD 
HETATM   18  C   UNL     1     -11.729   9.688  71.212  1.00  0.00    -0.382 C  
HETATM   19  O   UNL     1     -12.821   9.945  71.691  1.00  0.00    -0.367 OA 
BRANCH  18  20
HETATM   20  C   UNL     1     -11.150  10.512  70.035  1.00  0.00    -0.308 C  
HETATM   21  N   UNL     1     -11.932  11.589  69.615  1.00  0.00    -0.332 N  
HETATM   22  O   UNL     1     -10.075  10.222  69.537  1.00  0.00    -0.221 OA 
HETATM   23  H   UNL     1     -12.928  11.628  69.829  1.00  0.00     0.000 HD 
BRANCH  21  24
HETATM   24  C   UNL     1     -11.289  12.659  68.861  1.00  0.00    -0.297 C  
BRANCH  24  25
HETATM   25  C   UNL     1     -11.529  12.625  67.327  1.00  0.00    -0.342 C  
BRANCH  25  26
HETATM   26  N   UNL     1     -10.254  12.403  66.476  1.00  0.00    -0.224 N  
BRANCH  26  27
HETATM   27  C   UNL     1     -10.363  11.072  65.675  1.00  0.00    -0.251 C  
HETATM   28  C   UNL     1     -11.022   9.918  66.418  1.00  0.00     0.226 C  
ENDBRANCH  26  27
BRANCH  26  29
HETATM   29  C   UNL     1     -10.099  13.624  65.529  1.00  0.00    -0.275 C  
HETATM   30  C   UNL     1     -11.362  14.436  65.300  1.00  0.00    -0.346 C  
ENDBRANCH  26  29
BRANCH  26  31
HETATM   31  C   UNL     1      -8.991  12.287  67.408  1.00  0.00    -0.183 C  
BRANCH  31  32
HETATM   32  C   UNL     1      -7.668  11.842  66.807  1.00  0.00    -0.086 A  
HETATM   33  C   UNL     1      -7.616  10.736  65.932  1.00  0.00    -0.106 A  
HETATM   34  C   UNL     1      -6.397  10.226  65.471  1.00  0.00    -0.117 A  
HETATM   35  C   UNL     1      -5.202  10.796  65.888  1.00  0.00    -0.115 A  
HETATM   36  C   UNL     1      -5.225  11.899  66.736  1.00  0.00    -0.040 A  
HETATM   37  C   UNL     1      -6.442  12.424  67.184  1.00  0.00    -0.094 A  
HETATM   38 CL   UNL     1      -6.356  13.791  68.236  1.00  0.00    -0.095 Cl 
ENDBRANCH  31  32
ENDBRANCH  26  31
ENDBRANCH  25  26
ENDBRANCH  24  25
ENDBRANCH  21  24
ENDBRANCH  18  20
ENDBRANCH  15  16
ENDBRANCH  14  15
ENDBRANCH   3  14
ENDBRANCH   2   3
TORSDOF 15
ENDMDL
MODEL      359
REMARK 921   NORMALIZED FREE ENERGY PREDICTED BY IDOCK:   -2.98 KCAL/MOL
REMARK 922        TOTAL FREE ENERGY PREDICTED BY IDOCK:   -8.25 KCAL/MOL
REMARK 923 INTER-LIGAND FREE ENERGY PREDICTED BY IDOCK:   -7.29 KCAL/MOL
REMARK 924 INTRA-LIGAND FREE ENERGY PREDICTED BY IDOCK:   -0.96 KCAL/MOL
REMARK 927      BINDING AFFINITY PREDICTED BY RF-SCORE:    0.00 PKD
ROOT
HETATM    1  C   UNL     1      -8.035  15.207  69.720  1.00  0.00    -0.019 C  
HETATM    2  C   UNL     1      -6.858  15.270  68.758  1.00  0.00    -0.109 C  
ENDROOT
BRANCH   2   3
HETATM    3  N   UNL     1      -6.875  16.456  67.745  1.00  0.00    -0.125 N  
BRANCH   3   4
HETATM    4  C   UNL     1      -5.419  16.889  67.407  1.00  0.00    -0.149 C  
HETATM    5  C   UNL     1      -5.240  17.636  66.110  1.00  0.00    -0.228 C  
ENDBRANCH   3   4
BRANCH   3   6
HETATM    6  C   UNL     1      -7.516  17.706  68.392  1.00  0.00    -0.253 C  
BRANCH   6   7
HETATM    7  C   UNL     1      -8.494  18.609  67.645  1.00  0.00    -0.284 A  
HETATM    8  C   UNL     1     -10.836  19.150  67.132  1.00  0.00    -0.507 A  
HETATM    9  C   UNL     1      -8.138  19.611  66.727  1.00  0.00    -0.321 A  
HETATM   10  C   UNL     1      -9.877  18.438  67.864  1.00  0.00    -0.329 A  
HETATM   11  C   UNL     1      -9.088  20.367  66.038  1.00  0.00    -0.042 A  
HETATM   12 CL   UNL     1     -10.452  17.300  69.034  1.00  0.00    -0.336 Cl 
HETATM   13  C   UNL     1     -10.437  20.120  66.220  1.00  0.00    -0.454 A  
ENDBRANCH   6   7
ENDBRANCH   3   6
BRANCH   3  14
HETATM   14  C   UNL     1      -7.689  15.940  66.490  1.00  0.00    -0.063 C  
BRANCH  14  15
HETATM   15  C   UNL     1      -8.903  14.990  66.775  1.00  0.00    -0.268 C  
BRANCH  15  16
HETATM   16  N   UNL     1      -8.715  13.561  66.570  1.00  0.00    -0.446 N  
HETATM   17  H   UNL     1      -7.997  13.225  65.928  1.00  0.00     0.000 HD 
HETATM   18  C   UNL     1      -9.519  12.656  67.257  1.00  0.00    -0.199 C  
HETATM   19  O   UNL     1     -10.258  12.969  68.174  1.00  0.00    -0.226 OA 
BRANCH  18  20
HETATM   20  C   UNL     1      -9.323  11.174  66.850  1.00  0.00    -0.175 C  
HETATM   21  N   UNL     1     -10.142  10.256  67.510  1.00  0.00    -0.189 N  
HETATM   22  O   UNL     1      -8.508  10.861  65.998  1.00  0.00    -0.163 OA 
HETATM   23  H   UNL     1     -10.580  10.492  68.400  1.00  0.00     0.000 HD 
BRANCH  21  24
HETATM   24  C   UNL     1     -10.357   8.951  66.896  1.00  0.00    -0.262 C  
BRANCH  24  25
HETATM   25  C   UNL     1      -9.216   7.920  67.115  1.00  0.00    -0.146 C  
BRANCH  25  26
HETATM   26  N   UNL     1      -9.638   6.639  67.874  1.00  0.00    -0.120 N  
BRANCH  26  27
HETATM   27  C   UNL     1      -9.814   6.942  69.392  1.00  0.00    -0.158 C  
HETATM   28  C   UNL     1     -11.201   6.662  69.954  1.00  0.00    -0.421 C  
ENDBRANCH  26  27
BRANCH  26  29
HETATM   29  C   UNL     1     -10.961   6.127  67.241  1.00  0.00    -0.326 C  
HETATM   30  C   UNL     1     -10.798   5.154  66.087  1.00  0.00    -0.163 C  
ENDBRANCH  26  29
BRANCH  26  31
HETATM   31  C   UNL     1      -8.523   5.536  67.743  1.00  0.00    -0.098 C  
BRANCH  31  32
HETATM   32  C   UNL     1      -8.392   4.484  68.831  1.00  0.00    -0.086 A  
HETATM   33  C   UNL     1      -9.282   3.390  68.880  1.00  0.00    -0.229 A  
HETATM   34  C   UNL     1      -9.267   2.482  69.944  1.00  0.00    -0.195 A  
HETATM   35  C   UNL     1      -8.375   2.656  70.994  1.00  0.00    -0.083 A  
HETATM   36  C   UNL     1      -7.474   3.715  70.963  1.00  0.00    -0.037 A  
HETATM   37  C   UNL     1      -7.473   4.615  69.891  1.00  0.00    -0.054 A  
HETATM   38 CL   UNL     1      -6.316   5.895  69.954  1.00  0.00    -0.030 Cl 
ENDBRANCH  31  32
ENDBRANCH  26  31
ENDBRANCH  25  26
ENDBRANCH  24  25
ENDBRANCH  21  24
ENDBRANCH  18  20
ENDBRANCH  15  16
ENDBRANCH  14  15
ENDBRANCH   3  14
ENDBRANCH   2   3
TORSDOF 15
ENDMDL
MODEL      360
REMARK 921   NORMALIZED FREE ENERGY PREDICTED BY IDOCK:   -2.98 KCAL/MOL
REMARK 922        TOTAL FREE ENERGY PREDICTED BY IDOCK:   -8.25 KCAL/MOL
REMARK 923 INTER-LIGAND FREE ENERGY PREDICTED BY IDOCK:   -7.58 KCAL/MOL
REMARK 924 INTRA-LIGAND FREE ENERGY PREDICTED BY IDOCK:   -0.67 KCAL/MOL
REMARK 927      BINDING AFFINITY PREDICTED BY RF-SCORE:    0.00 PKD
ROOT
HETATM    1  C   UNL     1     -12.575  14.426  65.346  1.00  0.00    -0.339 C  
HETATM    2  C   UNL     1     -12.260  13.754  66.674  1.00  0.00    -0.409 C  
ENDROOT
BRANCH   2   3
HETATM    3  N   UNL     1     -11.047  14.342  67.458  1.00  0.00    -0.292 N  
BRANCH   3   4
HETATM    4  C   UNL     1     -10.836  13.553  68.784  1.00  0.00    -0.253 C  
HETATM    5  C   UNL     1     -12.091  13.072  69.467  1.00  0.00    -0.289 C  
ENDBRANCH   3   4
BRANCH   3   6
HETATM    6  C   UNL     1     -11.348  15.791  67.908  1.00  0.00    -0.277 C  
BRANCH   6   7
HETATM    7  C   UNL     1     -10.417  16.960  67.597  1.00  0.00    -0.332 A  
HETATM    8  C   UNL     1      -8.399  18.221  68.213  1.00  0.00    -0.316 A  
HETATM    9  C   UNL     1     -10.632  17.931  66.606  1.00  0.00    -0.243 A  
HETATM   10  C   UNL     1      -9.241  17.112  68.363  1.00  0.00    -0.266 A  
HETATM   11  C   UNL     1      -9.764  19.007  66.410  1.00  0.00    -0.405 A  
HETATM   12 CL   UNL     1      -8.808  15.938  69.559  1.00  0.00    -0.198 Cl 
HETATM   13  C   UNL     1      -8.661  19.168  67.230  1.00  0.00    -0.310 A  
ENDBRANCH   6   7
ENDBRANCH   3   6
BRANCH   3  14
HETATM   14  C   UNL     1      -9.813  14.260  66.471  1.00  0.00    -0.288 C  
BRANCH  14  15
HETATM   15  C   UNL     1      -8.601  13.374  66.921  1.00  0.00    -0.100 C  
BRANCH  15  16
HETATM   16  N   UNL     1      -8.476  12.044  66.344  1.00  0.00    -0.383 N  
HETATM   17  H   UNL     1      -8.164  11.930  65.380  1.00  0.00     0.000 HD 
HETATM   18  C   UNL     1      -8.782  10.927  67.117  1.00  0.00    -0.132 C  
HETATM   19  O   UNL     1      -8.973  10.970  68.321  1.00  0.00    -0.141 OA 
BRANCH  18  20
HETATM   20  C   UNL     1      -8.750   9.580  66.353  1.00  0.00    -0.135 C  
HETATM   21  N   UNL     1      -7.561   8.856  66.463  1.00  0.00    -0.091 N  
HETATM   22  O   UNL     1      -9.717   9.197  65.716  1.00  0.00    -0.274 OA 
HETATM   23  H   UNL     1      -6.692   9.316  66.734  1.00  0.00     0.000 HD 
BRANCH  21  24
HETATM   24  C   UNL     1      -7.592   7.426  66.181  1.00  0.00    -0.088 C  
BRANCH  24  25
HETATM   25  C   UNL     1      -7.498   6.503  67.426  1.00  0.00    -0.092 C  
BRANCH  25  26
HETATM   26  N   UNL     1      -8.258   5.161  67.298  1.00  0.00    -0.107 N  
BRANCH  26  27
HETATM   27  C   UNL     1      -8.771   4.966  65.841  1.00  0.00    -0.127 C  
HETATM   28  C   UNL     1     -10.199   4.452  65.717  1.00  0.00    -0.257 C  
ENDBRANCH  26  27
BRANCH  26  29
HETATM   29  C   UNL     1      -7.285   4.024  67.714  1.00  0.00    -0.063 C  
HETATM   30  C   UNL     1      -7.943   2.711  68.102  1.00  0.00    -0.063 C  
ENDBRANCH  26  29
BRANCH  26  31
HETATM   31  C   UNL     1      -9.518   5.156  68.242  1.00  0.00    -0.128 C  
BRANCH  31  32
HETATM   32  C   UNL     1      -9.314   5.225  69.746  1.00  0.00    -0.182 A  
HETATM   33  C   UNL     1      -9.224   4.044  70.511  1.00  0.00    -0.198 A  
HETATM   34  C   UNL     1      -9.169   4.080  71.909  1.00  0.00    -0.179 A  
HETATM   35  C   UNL     1      -9.222   5.297  72.575  1.00  0.00    -0.147 A  
HETATM   36  C   UNL     1      -9.292   6.479  71.845  1.00  0.00    -0.148 A  
HETATM   37  C   UNL     1      -9.328   6.448  70.446  1.00  0.00    -0.162 A  
HETATM   38 CL   UNL     1      -9.419   7.972  69.639  1.00  0.00    -0.163 Cl 
ENDBRANCH  31  32
ENDBRANCH  26  31
ENDBRANCH  25  26
ENDBRANCH  24  25
ENDBRANCH  21  24
ENDBRANCH  18  20
ENDBRANCH  15  16
ENDBRANCH  14  15
ENDBRANCH   3  14
ENDBRANCH   2   3
TORSDOF 15
ENDMDL
MODEL      361
REMARK 921   NORMALIZED FREE ENERGY PREDICTED BY IDOCK:   -2.96 KCAL/MOL
REMARK 922        TOTAL FREE ENERGY PREDICTED BY IDOCK:   -8.22 KCAL/MOL
REMARK 923 INTER-LIGAND FREE ENERGY PREDICTED BY IDOCK:   -6.75 KCAL/MOL
REMARK 924 INTRA-LIGAND FREE ENERGY PREDICTED BY IDOCK:   -1.48 KCAL/MOL
REMARK 927      BINDING AFFINITY PREDICTED BY RF-SCORE:    0.00 PKD
ROOT
HETATM    1  C   UNL     1     -12.716  13.832  65.397  1.00  0.00    -0.513 C  
HETATM    2  C   UNL     1     -12.061  12.914  66.419  1.00  0.00    -0.329 C  
ENDROOT
BRANCH   2   3
HETATM    3  N   UNL     1     -10.561  13.209  66.729  1.00  0.00    -0.262 N  
BRANCH   3   4
HETATM    4  C   UNL     1     -10.258  12.910  68.226  1.00  0.00    -0.245 C  
HETATM    5  C   UNL     1     -11.413  12.380  69.036  1.00  0.00    -0.352 C  
ENDBRANCH   3   4
BRANCH   3   6
HETATM    6  C   UNL     1     -10.264  14.718  66.562  1.00  0.00    -0.276 C  
BRANCH   6   7
HETATM    7  C   UNL     1      -9.082  15.405  67.240  1.00  0.00    -0.218 A  
HETATM    8  C   UNL     1      -8.282  17.289  68.600  1.00  0.00    -0.262 A  
HETATM    9  C   UNL     1      -7.739  15.011  67.128  1.00  0.00    -0.202 A  
HETATM   10  C   UNL     1      -9.326  16.541  68.041  1.00  0.00    -0.218 A  
HETATM   11  C   UNL     1      -6.698  15.717  67.734  1.00  0.00    -0.180 A  
HETATM   12 CL   UNL     1     -10.943  17.083  68.335  1.00  0.00    -0.324 Cl 
HETATM   13  C   UNL     1      -6.966  16.871  68.449  1.00  0.00    -0.173 A  
ENDBRANCH   6   7
ENDBRANCH   3   6
BRANCH   3  14
HETATM   14  C   UNL     1      -9.728  12.316  65.723  1.00  0.00    -0.216 C  
BRANCH  14  15
HETATM   15  C   UNL     1      -8.847  11.179  66.347  1.00  0.00    -0.178 C  
BRANCH  15  16
HETATM   16  N   UNL     1      -9.426   9.848  66.457  1.00  0.00    -0.172 N  
HETATM   17  H   UNL     1      -9.938   9.445  65.673  1.00  0.00     0.000 HD 
HETATM   18  C   UNL     1      -9.277   9.129  67.640  1.00  0.00    -0.128 C  
HETATM   19  O   UNL     1      -8.525   9.459  68.541  1.00  0.00    -0.117 OA 
BRANCH  18  20
HETATM   20  C   UNL     1     -10.056   7.791  67.689  1.00  0.00    -0.196 C  
HETATM   21  N   UNL     1     -10.265   7.172  66.456  1.00  0.00    -0.466 N  
HETATM   22  O   UNL     1     -10.438   7.328  68.751  1.00  0.00    -0.197 OA 
HETATM   23  H   UNL     1     -10.211   7.705  65.587  1.00  0.00     0.000 HD 
BRANCH  21  24
HETATM   24  C   UNL     1     -10.564   5.746  66.438  1.00  0.00    -0.155 C  
BRANCH  24  25
HETATM   25  C   UNL     1      -9.325   4.809  66.438  1.00  0.00    -0.146 C  
BRANCH  25  26
HETATM   26  N   UNL     1      -9.069   4.072  65.101  1.00  0.00    -0.131 N  
BRANCH  26  27
HETATM   27  C   UNL     1     -10.382   3.990  64.268  1.00  0.00    -0.188 C  
HETATM   28  C   UNL     1     -10.619   2.665  63.557  1.00  0.00    -0.199 C  
ENDBRANCH  26  27
BRANCH  26  29
HETATM   29  C   UNL     1      -7.960   4.847  64.338  1.00  0.00    -0.104 C  
HETATM   30  C   UNL     1      -7.248   4.063  63.250  1.00  0.00    -0.049 C  
ENDBRANCH  26  29
BRANCH  26  31
HETATM   31  C   UNL     1      -8.596   2.596  65.375  1.00  0.00    -0.107 C  
BRANCH  31  32
HETATM   32  C   UNL     1      -7.515   2.348  66.414  1.00  0.00    -0.070 A  
HETATM   33  C   UNL     1      -6.153   2.514  66.083  1.00  0.00    -0.024 A  
HETATM   34  C   UNL     1      -5.136   2.166  66.979  1.00  0.00    -0.005 A  
HETATM   35  C   UNL     1      -5.455   1.625  68.217  1.00  0.00    -0.017 A  
HETATM   36  C   UNL     1      -6.789   1.467  68.576  1.00  0.00    -0.032 A  
HETATM   37  C   UNL     1      -7.810   1.832  67.692  1.00  0.00    -0.059 A  
HETATM   38 CL   UNL     1      -9.431   1.590  68.236  1.00  0.00    -0.235 Cl 
ENDBRANCH  31  32
ENDBRANCH  26  31
ENDBRANCH  25  26
ENDBRANCH  24  25
ENDBRANCH  21  24
ENDBRANCH  18  20
ENDBRANCH  15  16
ENDBRANCH  14  15
ENDBRANCH   3  14
ENDBRANCH   2   3
TORSDOF 15
ENDMDL
MODEL      362
REMARK 921   NORMALIZED FREE ENERGY PREDICTED BY IDOCK:   -2.93 KCAL/MOL
REMARK 922        TOTAL FREE ENERGY PREDICTED BY IDOCK:   -8.15 KCAL/MOL
REMARK 923 INTER-LIGAND FREE ENERGY PREDICTED BY IDOCK:   -6.92 KCAL/MOL
REMARK 924 INTRA-LIGAND FREE ENERGY PREDICTED BY IDOCK:   -1.24 KCAL/MOL
REMARK 927      BINDING AFFINITY PREDICTED BY RF-SCORE:    0.00 PKD
ROOT
HETATM    1  C   UNL     1     -11.118  15.282  64.902  1.00  0.00    -0.435 C  
HETATM    2  C   UNL     1     -10.523  16.410  65.732  1.00  0.00    -0.354 C  
ENDROOT
BRANCH   2   3
HETATM    3  N   UNL     1      -9.340  16.010  66.666  1.00  0.00    -0.226 N  
BRANCH   3   4
HETATM    4  C   UNL     1      -9.613  16.507  68.116  1.00  0.00    -0.226 C  
HETATM    5  C   UNL     1     -10.964  17.136  68.349  1.00  0.00    -0.221 C  
ENDBRANCH   3   4
BRANCH   3   6
HETATM    6  C   UNL     1      -8.045  16.740  66.238  1.00  0.00    -0.330 C  
BRANCH   6   7
HETATM    7  C   UNL     1      -7.492  17.946  66.993  1.00  0.00    -0.223 A  
HETATM    8  C   UNL     1      -5.979  18.780  68.740  1.00  0.00    -0.223 A  
HETATM    9  C   UNL     1      -7.938  19.270  66.849  1.00  0.00    -0.278 A  
HETATM   10  C   UNL     1      -6.457  17.743  67.930  1.00  0.00    -0.177 A  
HETATM   11  C   UNL     1      -7.422  20.320  67.611  1.00  0.00    -0.344 A  
HETATM   12 CL   UNL     1      -5.754  16.176  68.143  1.00  0.00    -0.104 Cl 
HETATM   13  C   UNL     1      -6.462  20.073  68.576  1.00  0.00    -0.330 A  
ENDBRANCH   6   7
ENDBRANCH   3   6
BRANCH   3  14
HETATM   14  C   UNL     1      -9.211  14.437  66.551  1.00  0.00    -0.244 C  
BRANCH  14  15
HETATM   15  C   UNL     1      -9.637  13.597  67.804  1.00  0.00    -0.224 C  
BRANCH  15  16
HETATM   16  N   UNL     1      -9.476  12.151  67.745  1.00  0.00    -0.186 N  
HETATM   17  H   UNL     1      -8.656  11.744  67.296  1.00  0.00     0.000 HD 
HETATM   18  C   UNL     1     -10.448  11.327  68.304  1.00  0.00    -0.196 C  
HETATM   19  O   UNL     1     -11.349  11.734  69.019  1.00  0.00    -0.234 OA 
BRANCH  18  20
HETATM   20  C   UNL     1     -10.240   9.813  68.053  1.00  0.00    -0.190 C  
HETATM   21  N   UNL     1     -10.233   9.010  69.195  1.00  0.00    -0.200 N  
HETATM   22  O   UNL     1     -10.105   9.379  66.921  1.00  0.00    -0.211 OA 
HETATM   23  H   UNL     1     -10.046   9.410  70.115  1.00  0.00     0.000 HD 
BRANCH  21  24
HETATM   24  C   UNL     1     -10.499   7.585  69.042  1.00  0.00    -0.208 C  
BRANCH  24  25
HETATM   25  C   UNL     1      -9.240   6.676  69.002  1.00  0.00    -0.131 C  
BRANCH  25  26
HETATM   26  N   UNL     1      -8.829   6.078  70.369  1.00  0.00    -0.146 N  
BRANCH  26  27
HETATM   27  C   UNL     1      -8.003   7.114  71.187  1.00  0.00    -0.102 C  
HETATM   28  C   UNL     1      -8.264   7.114  72.687  1.00  0.00    -0.120 C  
ENDBRANCH  26  27
BRANCH  26  29
HETATM   29  C   UNL     1     -10.128   5.670  71.118  1.00  0.00    -0.204 C  
HETATM   30  C   UNL     1     -10.150   4.253  71.661  1.00  0.00    -0.216 C  
ENDBRANCH  26  29
BRANCH  26  31
HETATM   31  C   UNL     1      -7.916   4.813  70.158  1.00  0.00    -0.068 C  
BRANCH  31  32
HETATM   32  C   UNL     1      -7.384   4.510  68.768  1.00  0.00    -0.056 A  
HETATM   33  C   UNL     1      -6.240   5.175  68.278  1.00  0.00    -0.034 A  
HETATM   34  C   UNL     1      -5.809   5.011  66.958  1.00  0.00    -0.025 A  
HETATM   35  C   UNL     1      -6.521   4.195  66.090  1.00  0.00    -0.037 A  
HETATM   36  C   UNL     1      -7.642   3.511  66.551  1.00  0.00    -0.077 A  
HETATM   37  C   UNL     1      -8.066   3.657  67.876  1.00  0.00    -0.084 A  
HETATM   38 CL   UNL     1      -9.470   2.768  68.344  1.00  0.00    -0.249 Cl 
ENDBRANCH  31  32
ENDBRANCH  26  31
ENDBRANCH  25  26
ENDBRANCH  24  25
ENDBRANCH  21  24
ENDBRANCH  18  20
ENDBRANCH  15  16
ENDBRANCH  14  15
ENDBRANCH   3  14
ENDBRANCH   2   3
TORSDOF 15
ENDMDL
MODEL      363
REMARK 921   NORMALIZED FREE ENERGY PREDICTED BY IDOCK:   -2.87 KCAL/MOL
REMARK 922        TOTAL FREE ENERGY PREDICTED BY IDOCK:   -8.04 KCAL/MOL
REMARK 923 INTER-LIGAND FREE ENERGY PREDICTED BY IDOCK:   -7.39 KCAL/MOL
REMARK 924 INTRA-LIGAND FREE ENERGY PREDICTED BY IDOCK:   -0.66 KCAL/MOL
REMARK 927      BINDING AFFINITY PREDICTED BY RF-SCORE:    0.00 PKD
ROOT
HETATM    1  C   UNL     1     -11.399   5.228  65.877  1.00  0.00     0.614 C  
HETATM    2  C   UNL     1      -9.900   5.083  66.098  1.00  0.00    -0.198 C  
ENDROOT
BRANCH   2   3
HETATM    3  N   UNL     1      -9.448   4.921  67.583  1.00  0.00    -0.134 N  
BRANCH   3   4
HETATM    4  C   UNL     1      -7.995   5.450  67.758  1.00  0.00    -0.100 C  
HETATM    5  C   UNL     1      -7.267   5.802  66.485  1.00  0.00    -0.074 C  
ENDBRANCH   3   4
BRANCH   3   6
HETATM    6  C   UNL     1      -9.369   3.423  67.960  1.00  0.00    -0.187 C  
BRANCH   6   7
HETATM    7  C   UNL     1      -8.047   2.714  68.243  1.00  0.00    -0.068 A  
HETATM    8  C   UNL     1      -6.290   2.180  69.876  1.00  0.00    -0.025 A  
HETATM    9  C   UNL     1      -7.254   2.061  67.285  1.00  0.00    -0.055 A  
HETATM   10  C   UNL     1      -7.548   2.710  69.562  1.00  0.00    -0.043 A  
HETATM   11  C   UNL     1      -6.026   1.476  67.603  1.00  0.00    -0.020 A  
HETATM   12 CL   UNL     1      -8.467   3.402  70.855  1.00  0.00    -0.091 Cl 
HETATM   13  C   UNL     1      -5.531   1.558  68.892  1.00  0.00    -0.013 A  
ENDBRANCH   6   7
ENDBRANCH   3   6
BRANCH   3  14
HETATM   14  C   UNL     1     -10.516   5.705  68.447  1.00  0.00    -0.195 C  
BRANCH  14  15
HETATM   15  C   UNL     1     -10.046   7.047  69.109  1.00  0.00    -0.180 C  
BRANCH  15  16
HETATM   16  N   UNL     1     -10.405   8.295  68.451  1.00  0.00    -0.230 N  
HETATM   17  H   UNL     1     -10.391   8.361  67.433  1.00  0.00     0.000 HD 
HETATM   18  C   UNL     1     -10.767   9.398  69.219  1.00  0.00    -0.211 C  
HETATM   19  O   UNL     1     -10.992   9.343  70.416  1.00  0.00    -0.234 OA 
BRANCH  18  20
HETATM   20  C   UNL     1     -10.986  10.705  68.416  1.00  0.00    -0.251 C  
HETATM   21  N   UNL     1      -9.904  11.586  68.397  1.00  0.00    -0.199 N  
HETATM   22  O   UNL     1     -12.040  10.917  67.841  1.00  0.00    -0.527 OA 
HETATM   23  H   UNL     1      -9.174  11.534  69.108  1.00  0.00     0.000 HD 
BRANCH  21  24
HETATM   24  C   UNL     1      -9.841  12.583  67.335  1.00  0.00    -0.201 C  
BRANCH  24  25
HETATM   25  C   UNL     1      -9.536  14.032  67.803  1.00  0.00    -0.216 C  
BRANCH  25  26
HETATM   26  N   UNL     1     -10.415  15.124  67.146  1.00  0.00    -0.275 N  
BRANCH  26  27
HETATM   27  C   UNL     1     -11.363  14.491  66.085  1.00  0.00    -0.348 C  
HETATM   28  C   UNL     1     -11.343  15.157  64.716  1.00  0.00    -0.399 C  
ENDBRANCH  26  27
BRANCH  26  29
HETATM   29  C   UNL     1     -11.217  15.828  68.274  1.00  0.00    -0.356 C  
HETATM   30  C   UNL     1     -11.821  14.906  69.318  1.00  0.00    -0.350 C  
ENDBRANCH  26  29
BRANCH  26  31
HETATM   31  C   UNL     1      -9.511  16.174  66.399  1.00  0.00    -0.295 C  
BRANCH  31  32
HETATM   32  C   UNL     1      -9.545  17.627  66.843  1.00  0.00    -0.286 A  
HETATM   33  C   UNL     1     -10.776  18.295  67.011  1.00  0.00    -0.305 A  
HETATM   34  C   UNL     1     -10.832  19.665  67.291  1.00  0.00    -0.519 A  
HETATM   35  C   UNL     1      -9.660  20.403  67.389  1.00  0.00    -0.584 A  
HETATM   36  C   UNL     1      -8.432  19.765  67.247  1.00  0.00    -0.363 A  
HETATM   37  C   UNL     1      -8.371  18.392  66.987  1.00  0.00    -0.252 A  
HETATM   38 CL   UNL     1      -6.796  17.703  66.824  1.00  0.00    -0.216 Cl 
ENDBRANCH  31  32
ENDBRANCH  26  31
ENDBRANCH  25  26
ENDBRANCH  24  25
ENDBRANCH  21  24
ENDBRANCH  18  20
ENDBRANCH  15  16
ENDBRANCH  14  15
ENDBRANCH   3  14
ENDBRANCH   2   3
TORSDOF 15
ENDMDL
MODEL      364
REMARK 921   NORMALIZED FREE ENERGY PREDICTED BY IDOCK:   -2.84 KCAL/MOL
REMARK 922        TOTAL FREE ENERGY PREDICTED BY IDOCK:   -7.99 KCAL/MOL
REMARK 923 INTER-LIGAND FREE ENERGY PREDICTED BY IDOCK:   -6.14 KCAL/MOL
REMARK 924 INTRA-LIGAND FREE ENERGY PREDICTED BY IDOCK:   -1.85 KCAL/MOL
REMARK 927      BINDING AFFINITY PREDICTED BY RF-SCORE:    0.00 PKD
ROOT
HETATM    1  C   UNL     1      -9.193   3.772  70.914  1.00  0.00    -0.196 C  
HETATM    2  C   UNL     1      -9.035   4.208  72.364  1.00  0.00    -0.111 C  
ENDROOT
BRANCH   2   3
HETATM    3  N   UNL     1      -9.810   5.500  72.769  1.00  0.00    -0.163 N  
BRANCH   3   4
HETATM    4  C   UNL     1     -11.054   5.127  73.628  1.00  0.00    -0.234 C  
HETATM    5  C   UNL     1     -11.522   3.698  73.518  1.00  0.00    -0.159 C  
ENDBRANCH   3   4
BRANCH   3   6
HETATM    6  C   UNL     1     -10.392   6.194  71.515  1.00  0.00    -0.209 C  
BRANCH   6   7
HETATM    7  C   UNL     1     -11.578   7.151  71.580  1.00  0.00    -0.309 A  
HETATM    8  C   UNL     1     -12.358   9.472  71.796  1.00  0.00    -0.474 A  
HETATM    9  C   UNL     1     -12.930   6.771  71.619  1.00  0.00    -0.292 A  
HETATM   10  C   UNL     1     -11.328   8.539  71.621  1.00  0.00    -0.295 A  
HETATM   11  C   UNL     1     -13.966   7.700  71.732  1.00  0.00    -0.471 A  
HETATM   12 CL   UNL     1      -9.714   9.149  71.492  1.00  0.00    -0.355 Cl 
HETATM   13  C   UNL     1     -13.681   9.049  71.847  1.00  0.00    -0.495 A  
ENDBRANCH   6   7
ENDBRANCH   3   6
BRANCH   3  14
HETATM   14  C   UNL     1      -8.764   6.410  73.532  1.00  0.00    -0.123 C  
BRANCH  14  15
HETATM   15  C   UNL     1      -7.313   6.470  72.941  1.00  0.00    -0.086 C  
BRANCH  15  16
HETATM   16  N   UNL     1      -7.161   6.412  71.495  1.00  0.00    -0.081 N  
HETATM   17  H   UNL     1      -7.567   5.640  70.967  1.00  0.00     0.000 HD 
HETATM   18  C   UNL     1      -6.459   7.418  70.836  1.00  0.00    -0.039 C  
HETATM   19  O   UNL     1      -6.115   8.461  71.366  1.00  0.00    -0.035 OA 
BRANCH  18  20
HETATM   20  C   UNL     1      -6.242   7.173  69.322  1.00  0.00    -0.035 C  
HETATM   21  N   UNL     1      -6.235   5.835  68.925  1.00  0.00    -0.028 N  
HETATM   22  O   UNL     1      -6.100   8.107  68.550  1.00  0.00    -0.039 OA 
HETATM   23  H   UNL     1      -6.054   5.090  69.598  1.00  0.00     0.000 HD 
BRANCH  21  24
HETATM   24  C   UNL     1      -6.493   5.526  67.523  1.00  0.00    -0.051 C  
BRANCH  24  25
HETATM   25  C   UNL     1      -7.661   4.535  67.267  1.00  0.00    -0.085 C  
BRANCH  25  26
HETATM   26  N   UNL     1      -8.131   4.454  65.794  1.00  0.00    -0.101 N  
BRANCH  26  27
HETATM   27  C   UNL     1      -7.028   5.002  64.842  1.00  0.00    -0.054 C  
HETATM   28  C   UNL     1      -6.527   4.018  63.793  1.00  0.00    -0.037 C  
ENDBRANCH  26  27
BRANCH  26  29
HETATM   29  C   UNL     1      -8.461   2.967  65.485  1.00  0.00    -0.104 C  
HETATM   30  C   UNL     1      -8.619   2.068  66.698  1.00  0.00    -0.114 C  
ENDBRANCH  26  29
BRANCH  26  31
HETATM   31  C   UNL     1      -9.415   5.340  65.582  1.00  0.00    -0.081 C  
BRANCH  31  32
HETATM   32  C   UNL     1      -9.429   6.760  66.122  1.00  0.00    -0.057 A  
HETATM   33  C   UNL     1      -8.658   7.768  65.505  1.00  0.00    -0.126 A  
HETATM   34  C   UNL     1      -8.551   9.048  66.058  1.00  0.00    -0.158 A  
HETATM   35  C   UNL     1      -9.197   9.346  67.251  1.00  0.00    -0.151 A  
HETATM   36  C   UNL     1      -9.979   8.377  67.871  1.00  0.00    -0.228 A  
HETATM   37  C   UNL     1     -10.105   7.101  67.311  1.00  0.00    -0.215 A  
HETATM   38 CL   UNL     1     -11.096   5.974  68.163  1.00  0.00    -0.346 Cl 
ENDBRANCH  31  32
ENDBRANCH  26  31
ENDBRANCH  25  26
ENDBRANCH  24  25
ENDBRANCH  21  24
ENDBRANCH  18  20
ENDBRANCH  15  16
ENDBRANCH  14  15
ENDBRANCH   3  14
ENDBRANCH   2   3
TORSDOF 15
ENDMDL
MODEL      365
REMARK 921   NORMALIZED FREE ENERGY PREDICTED BY IDOCK:   -2.83 KCAL/MOL
REMARK 922        TOTAL FREE ENERGY PREDICTED BY IDOCK:   -7.97 KCAL/MOL
REMARK 923 INTER-LIGAND FREE ENERGY PREDICTED BY IDOCK:   -6.68 KCAL/MOL
REMARK 924 INTRA-LIGAND FREE ENERGY PREDICTED BY IDOCK:   -1.29 KCAL/MOL
REMARK 927      BINDING AFFINITY PREDICTED BY RF-SCORE:    0.00 PKD
ROOT
HETATM    1  C   UNL     1      -6.612   8.943  66.457  1.00  0.00    -0.067 C  
HETATM    2  C   UNL     1      -6.308   8.754  64.978  1.00  0.00    -0.064 C  
ENDROOT
BRANCH   2   3
HETATM    3  N   UNL     1      -7.545   8.771  64.026  1.00  0.00    -0.117 N  
BRANCH   3   4
HETATM    4  C   UNL     1      -7.451   9.982  63.052  1.00  0.00    -0.138 C  
HETATM    5  C   UNL     1      -6.062  10.507  62.790  1.00  0.00    -0.140 C  
ENDBRANCH   3   4
BRANCH   3   6
HETATM    6  C   UNL     1      -8.841   9.016  64.834  1.00  0.00    -0.148 C  
BRANCH   6   7
HETATM    7  C   UNL     1      -9.714  10.252  64.635  1.00  0.00    -0.398 A  
HETATM    8  C   UNL     1     -11.145  11.965  65.663  1.00  0.00    -0.362 A  
HETATM    9  C   UNL     1     -10.057  10.815  63.394  1.00  0.00    -0.345 A  
HETATM   10  C   UNL     1     -10.246  10.897  65.771  1.00  0.00    -0.259 A  
HETATM   11  C   UNL     1     -10.905  11.918  63.282  1.00  0.00    -0.408 A  
HETATM   12 CL   UNL     1      -9.832  10.362  67.364  1.00  0.00    -0.201 Cl 
HETATM   13  C   UNL     1     -11.471  12.478  64.413  1.00  0.00    -0.406 A  
ENDBRANCH   6   7
ENDBRANCH   3   6
BRANCH   3  14
HETATM   14  C   UNL     1      -7.546   7.369  63.294  1.00  0.00    -0.114 C  
BRANCH  14  15
HETATM   15  C   UNL     1      -8.260   6.184  64.032  1.00  0.00    -0.020 C  
BRANCH  15  16
HETATM   16  N   UNL     1      -7.819   5.852  65.379  1.00  0.00    -0.096 N  
HETATM   17  H   UNL     1      -6.843   5.982  65.645  1.00  0.00     0.000 HD 
HETATM   18  C   UNL     1      -8.736   5.356  66.301  1.00  0.00    -0.125 C  
HETATM   19  O   UNL     1      -9.942   5.354  66.120  1.00  0.00    -0.165 OA 
BRANCH  18  20
HETATM   20  C   UNL     1      -8.122   4.904  67.650  1.00  0.00    -0.094 C  
HETATM   21  N   UNL     1      -6.989   5.609  68.059  1.00  0.00    -0.064 N  
HETATM   22  O   UNL     1      -8.623   3.999  68.294  1.00  0.00    -0.091 OA 
HETATM   23  H   UNL     1      -6.428   6.134  67.388  1.00  0.00     0.000 HD 
BRANCH  21  24
HETATM   24  C   UNL     1      -6.626   5.578  69.471  1.00  0.00    -0.050 C  
BRANCH  24  25
HETATM   25  C   UNL     1      -6.700   6.945  70.205  1.00  0.00    -0.055 C  
BRANCH  25  26
HETATM   26  N   UNL     1      -7.727   7.004  71.362  1.00  0.00    -0.093 N  
BRANCH  26  27
HETATM   27  C   UNL     1      -7.179   6.254  72.611  1.00  0.00    -0.084 C  
HETATM   28  C   UNL     1      -7.364   6.978  73.937  1.00  0.00    -0.098 C  
ENDBRANCH  26  27
BRANCH  26  29
HETATM   29  C   UNL     1      -8.001   8.501  71.674  1.00  0.00    -0.142 C  
HETATM   30  C   UNL     1      -9.051   9.168  70.803  1.00  0.00    -0.313 C  
ENDBRANCH  26  29
BRANCH  26  31
HETATM   31  C   UNL     1      -9.067   6.294  70.939  1.00  0.00    -0.151 C  
BRANCH  31  32
HETATM   32  C   UNL     1      -9.675   5.253  71.863  1.00  0.00    -0.204 A  
HETATM   33  C   UNL     1      -9.362   3.886  71.706  1.00  0.00    -0.197 A  
HETATM   34  C   UNL     1     -10.008   2.898  72.456  1.00  0.00    -0.229 A  
HETATM   35  C   UNL     1     -10.995   3.250  73.367  1.00  0.00    -0.301 A  
HETATM   36  C   UNL     1     -11.310   4.592  73.556  1.00  0.00    -0.355 A  
HETATM   37  C   UNL     1     -10.653   5.585  72.822  1.00  0.00    -0.225 A  
HETATM   38 CL   UNL     1     -11.123   7.218  73.131  1.00  0.00    -0.359 Cl 
ENDBRANCH  31  32
ENDBRANCH  26  31
ENDBRANCH  25  26
ENDBRANCH  24  25
ENDBRANCH  21  24
ENDBRANCH  18  20
ENDBRANCH  15  16
ENDBRANCH  14  15
ENDBRANCH   3  14
ENDBRANCH   2   3
TORSDOF 15
ENDMDL
MODEL      366
REMARK 921   NORMALIZED FREE ENERGY PREDICTED BY IDOCK:   -2.82 KCAL/MOL
REMARK 922        TOTAL FREE ENERGY PREDICTED BY IDOCK:   -7.96 KCAL/MOL
REMARK 923 INTER-LIGAND FREE ENERGY PREDICTED BY IDOCK:   -6.92 KCAL/MOL
REMARK 924 INTRA-LIGAND FREE ENERGY PREDICTED BY IDOCK:   -1.04 KCAL/MOL
REMARK 927      BINDING AFFINITY PREDICTED BY RF-SCORE:    0.00 PKD
ROOT
HETATM    1  C   UNL     1     -10.621   6.046  72.997  1.00  0.00    -0.265 C  
HETATM    2  C   UNL     1      -9.939   5.499  71.751  1.00  0.00    -0.179 C  
ENDROOT
BRANCH   2   3
HETATM    3  N   UNL     1      -9.446   6.567  70.727  1.00  0.00    -0.171 N  
BRANCH   3   4
HETATM    4  C   UNL     1     -10.648   7.423  70.230  1.00  0.00    -0.231 C  
HETATM    5  C   UNL     1     -11.940   6.677  70.014  1.00  0.00    -0.187 C  
ENDBRANCH   3   4
BRANCH   3   6
HETATM    6  C   UNL     1      -8.901   5.879  69.453  1.00  0.00    -0.122 C  
BRANCH   6   7
HETATM    7  C   UNL     1      -8.679   4.373  69.362  1.00  0.00    -0.121 A  
HETATM    8  C   UNL     1      -7.069   2.520  69.221  1.00  0.00    -0.044 A  
HETATM    9  C   UNL     1      -9.689   3.408  69.213  1.00  0.00    -0.008 A  
HETATM   10  C   UNL     1      -7.358   3.878  69.413  1.00  0.00    -0.053 A  
HETATM   11  C   UNL     1      -9.412   2.046  69.083  1.00  0.00    -0.147 A  
HETATM   12 CL   UNL     1      -6.024   4.947  69.681  1.00  0.00    -0.017 Cl 
HETATM   13  C   UNL     1      -8.101   1.604  69.060  1.00  0.00    -0.059 A  
ENDBRANCH   6   7
ENDBRANCH   3   6
BRANCH   3  14
HETATM   14  C   UNL     1      -8.338   7.409  71.479  1.00  0.00    -0.108 C  
BRANCH  14  15
HETATM   15  C   UNL     1      -8.556   8.959  71.557  1.00  0.00    -0.135 C  
BRANCH  15  16
HETATM   16  N   UNL     1      -8.436   9.729  70.328  1.00  0.00    -0.269 N  
HETATM   17  H   UNL     1      -9.174   9.692  69.625  1.00  0.00     0.000 HD 
HETATM   18  C   UNL     1      -7.308  10.516  70.117  1.00  0.00     0.055 C  
HETATM   19  O   UNL     1      -6.483  10.762  70.981  1.00  0.00    -0.309 OA 
BRANCH  18  20
HETATM   20  C   UNL     1      -7.226  11.172  68.715  1.00  0.00    -0.098 C  
HETATM   21  N   UNL     1      -8.453  11.465  68.117  1.00  0.00    -0.145 N  
HETATM   22  O   UNL     1      -6.148  11.416  68.200  1.00  0.00    -0.046 OA 
HETATM   23  H   UNL     1      -9.307  10.993  68.416  1.00  0.00     0.000 HD 
BRANCH  21  24
HETATM   24  C   UNL     1      -8.486  12.461  67.054  1.00  0.00    -0.170 C  
BRANCH  24  25
HETATM   25  C   UNL     1      -9.883  12.712  66.423  1.00  0.00    -0.259 C  
BRANCH  25  26
HETATM   26  N   UNL     1     -10.722  13.809  67.121  1.00  0.00    -0.280 N  
BRANCH  26  27
HETATM   27  C   UNL     1     -11.323  14.785  66.066  1.00  0.00    -0.332 C  
HETATM   28  C   UNL     1     -10.710  14.695  64.675  1.00  0.00    -0.309 C  
ENDBRANCH  26  27
BRANCH  26  29
HETATM   29  C   UNL     1     -11.838  13.103  67.939  1.00  0.00    -0.348 C  
HETATM   30  C   UNL     1     -11.714  13.222  69.448  1.00  0.00    -0.383 C  
ENDBRANCH  26  29
BRANCH  26  31
HETATM   31  C   UNL     1      -9.814  14.661  68.083  1.00  0.00    -0.224 C  
BRANCH  31  32
HETATM   32  C   UNL     1      -9.663  16.152  67.829  1.00  0.00    -0.229 A  
HETATM   33  C   UNL     1     -10.712  17.041  68.147  1.00  0.00    -0.374 A  
HETATM   34  C   UNL     1     -10.650  18.396  67.803  1.00  0.00    -0.419 A  
HETATM   35  C   UNL     1      -9.549  18.890  67.117  1.00  0.00    -0.344 A  
HETATM   36  C   UNL     1      -8.493  18.040  66.808  1.00  0.00    -0.274 A  
HETATM   37  C   UNL     1      -8.541  16.688  67.167  1.00  0.00    -0.192 A  
HETATM   38 CL   UNL     1      -7.179  15.721  66.731  1.00  0.00    -0.123 Cl 
ENDBRANCH  31  32
ENDBRANCH  26  31
ENDBRANCH  25  26
ENDBRANCH  24  25
ENDBRANCH  21  24
ENDBRANCH  18  20
ENDBRANCH  15  16
ENDBRANCH  14  15
ENDBRANCH   3  14
ENDBRANCH   2   3
TORSDOF 15
ENDMDL
MODEL      367
REMARK 921   NORMALIZED FREE ENERGY PREDICTED BY IDOCK:   -2.82 KCAL/MOL
REMARK 922        TOTAL FREE ENERGY PREDICTED BY IDOCK:   -7.95 KCAL/MOL
REMARK 923 INTER-LIGAND FREE ENERGY PREDICTED BY IDOCK:   -7.07 KCAL/MOL
REMARK 924 INTRA-LIGAND FREE ENERGY PREDICTED BY IDOCK:   -0.88 KCAL/MOL
REMARK 927      BINDING AFFINITY PREDICTED BY RF-SCORE:    0.00 PKD
ROOT
HETATM    1  C   UNL     1     -10.706  13.871  64.689  1.00  0.00    -0.422 C  
HETATM    2  C   UNL     1     -10.677  14.354  66.131  1.00  0.00    -0.304 C  
ENDROOT
BRANCH   2   3
HETATM    3  N   UNL     1     -10.162  13.322  67.180  1.00  0.00    -0.244 N  
BRANCH   3   4
HETATM    4  C   UNL     1     -11.366  12.660  67.913  1.00  0.00    -0.288 C  
HETATM    5  C   UNL     1     -11.803  13.328  69.192  1.00  0.00    -0.378 C  
ENDBRANCH   3   4
BRANCH   3   6
HETATM    6  C   UNL     1      -9.369  14.040  68.297  1.00  0.00    -0.208 C  
BRANCH   6   7
HETATM    7  C   UNL     1      -8.514  15.276  68.036  1.00  0.00    -0.147 A  
HETATM    8  C   UNL     1      -8.330  17.725  68.131  1.00  0.00    -0.264 A  
HETATM    9  C   UNL     1      -7.260  15.280  67.404  1.00  0.00    -0.235 A  
HETATM   10  C   UNL     1      -9.005  16.537  68.438  1.00  0.00    -0.219 A  
HETATM   11  C   UNL     1      -6.554  16.457  67.148  1.00  0.00    -0.234 A  
HETATM   12 CL   UNL     1     -10.496  16.668  69.307  1.00  0.00    -0.320 Cl 
HETATM   13  C   UNL     1      -7.099  17.682  67.488  1.00  0.00    -0.183 A  
ENDBRANCH   6   7
ENDBRANCH   3   6
BRANCH   3  14
HETATM   14  C   UNL     1      -9.270  12.294  66.373  1.00  0.00    -0.203 C  
BRANCH  14  15
HETATM   15  C   UNL     1      -8.104  11.598  67.156  1.00  0.00    -0.166 C  
BRANCH  15  16
HETATM   16  N   UNL     1      -8.309  10.231  67.614  1.00  0.00    -0.114 N  
HETATM   17  H   UNL     1      -8.918  10.042  68.410  1.00  0.00     0.000 HD 
HETATM   18  C   UNL     1      -7.669   9.183  66.958  1.00  0.00    -0.098 C  
HETATM   19  O   UNL     1      -7.087   9.307  65.894  1.00  0.00    -0.087 OA 
BRANCH  18  20
HETATM   20  C   UNL     1      -7.849   7.795  67.622  1.00  0.00    -0.123 C  
HETATM   21  N   UNL     1      -8.889   7.703  68.549  1.00  0.00    -0.131 N  
HETATM   22  O   UNL     1      -7.122   6.861  67.327  1.00  0.00    -0.078 OA 
HETATM   23  H   UNL     1      -9.271   8.539  68.991  1.00  0.00     0.000 HD 
BRANCH  21  24
HETATM   24  C   UNL     1      -9.416   6.382  68.870  1.00  0.00    -0.128 C  
BRANCH  24  25
HETATM   25  C   UNL     1     -10.885   6.359  69.373  1.00  0.00    -0.321 C  
BRANCH  25  26
HETATM   26  N   UNL     1     -11.212   7.403  70.468  1.00  0.00    -0.272 N  
BRANCH  26  27
HETATM   27  C   UNL     1     -10.937   8.843  69.943  1.00  0.00    -0.182 C  
HETATM   28  C   UNL     1     -10.007   9.683  70.807  1.00  0.00    -0.260 C  
ENDBRANCH  26  27
BRANCH  26  29
HETATM   29  C   UNL     1     -12.703   7.220  70.866  1.00  0.00    -0.154 C  
HETATM   30  C   UNL     1     -13.087   7.776  72.226  1.00  0.00    -0.049 C  
ENDBRANCH  26  29
BRANCH  26  31
HETATM   31  C   UNL     1     -10.293   7.179  71.726  1.00  0.00    -0.196 C  
BRANCH  31  32
HETATM   32  C   UNL     1      -9.895   5.764  72.108  1.00  0.00    -0.181 A  
HETATM   33  C   UNL     1     -10.872   4.832  72.517  1.00  0.00    -0.208 A  
HETATM   34  C   UNL     1     -10.518   3.566  72.998  1.00  0.00    -0.251 A  
HETATM   35  C   UNL     1      -9.180   3.210  73.101  1.00  0.00    -0.108 A  
HETATM   36  C   UNL     1      -8.197   4.103  72.686  1.00  0.00    -0.096 A  
HETATM   37  C   UNL     1      -8.546   5.361  72.186  1.00  0.00    -0.126 A  
HETATM   38 CL   UNL     1      -7.248   6.393  71.704  1.00  0.00    -0.085 Cl 
ENDBRANCH  31  32
ENDBRANCH  26  31
ENDBRANCH  25  26
ENDBRANCH  24  25
ENDBRANCH  21  24
ENDBRANCH  18  20
ENDBRANCH  15  16
ENDBRANCH  14  15
ENDBRANCH   3  14
ENDBRANCH   2   3
TORSDOF 15
ENDMDL
MODEL      368
REMARK 921   NORMALIZED FREE ENERGY PREDICTED BY IDOCK:   -2.74 KCAL/MOL
REMARK 922        TOTAL FREE ENERGY PREDICTED BY IDOCK:   -7.80 KCAL/MOL
REMARK 923 INTER-LIGAND FREE ENERGY PREDICTED BY IDOCK:   -6.11 KCAL/MOL
REMARK 924 INTRA-LIGAND FREE ENERGY PREDICTED BY IDOCK:   -1.69 KCAL/MOL
REMARK 927      BINDING AFFINITY PREDICTED BY RF-SCORE:    0.00 PKD
ROOT
HETATM    1  C   UNL     1     -10.303  16.653  68.471  1.00  0.00    -0.303 C  
HETATM    2  C   UNL     1     -10.807  15.348  67.874  1.00  0.00    -0.300 C  
ENDROOT
BRANCH   2   3
HETATM    3  N   UNL     1      -9.787  14.574  66.982  1.00  0.00    -0.244 N  
BRANCH   3   4
HETATM    4  C   UNL     1      -9.817  15.135  65.530  1.00  0.00    -0.321 C  
HETATM    5  C   UNL     1     -10.906  16.135  65.235  1.00  0.00    -0.349 C  
ENDBRANCH   3   4
BRANCH   3   6
HETATM    6  C   UNL     1     -10.211  13.094  66.840  1.00  0.00    -0.245 C  
BRANCH   6   7
HETATM    7  C   UNL     1     -10.966  12.567  65.623  1.00  0.00    -0.323 A  
HETATM    8  C   UNL     1     -10.879  11.298  63.520  1.00  0.00    -0.373 A  
HETATM    9  C   UNL     1     -12.303  12.859  65.305  1.00  0.00    -0.544 A  
HETATM   10  C   UNL     1     -10.288  11.726  64.716  1.00  0.00    -0.288 A  
HETATM   11  C   UNL     1     -12.918  12.385  64.145  1.00  0.00    -0.267 A  
HETATM   12 CL   UNL     1      -8.665  11.215  65.031  1.00  0.00    -0.036 Cl 
HETATM   13  C   UNL     1     -12.199  11.626  63.238  1.00  0.00    -0.265 A  
ENDBRANCH   6   7
ENDBRANCH   3   6
BRANCH   3  14
HETATM   14  C   UNL     1      -8.383  14.734  67.694  1.00  0.00    -0.170 C  
BRANCH  14  15
HETATM   15  C   UNL     1      -7.977  13.620  68.720  1.00  0.00    -0.022 C  
BRANCH  15  16
HETATM   16  N   UNL     1      -7.153  12.519  68.243  1.00  0.00    -0.094 N  
HETATM   17  H   UNL     1      -6.961  12.417  67.246  1.00  0.00     0.000 HD 
HETATM   18  C   UNL     1      -6.629  11.607  69.154  1.00  0.00    -0.101 C  
HETATM   19  O   UNL     1      -6.653  11.769  70.362  1.00  0.00    -0.108 OA 
BRANCH  18  20
HETATM   20  C   UNL     1      -5.892  10.403  68.517  1.00  0.00    -0.040 C  
HETATM   21  N   UNL     1      -5.485   9.408  69.408  1.00  0.00    -0.035 N  
HETATM   22  O   UNL     1      -5.704  10.349  67.313  1.00  0.00    -0.041 OA 
HETATM   23  H   UNL     1      -5.382   9.607  70.403  1.00  0.00     0.000 HD 
BRANCH  21  24
HETATM   24  C   UNL     1      -5.211   8.076  68.882  1.00  0.00    -0.023 C  
BRANCH  24  25
HETATM   25  C   UNL     1      -5.451   6.908  69.877  1.00  0.00    -0.019 C  
BRANCH  25  26
HETATM   26  N   UNL     1      -6.776   6.136  69.664  1.00  0.00    -0.051 N  
BRANCH  26  27
HETATM   27  C   UNL     1      -6.949   5.762  68.162  1.00  0.00    -0.069 C  
HETATM   28  C   UNL     1      -6.047   4.641  67.664  1.00  0.00    -0.028 C  
ENDBRANCH  26  27
BRANCH  26  29
HETATM   29  C   UNL     1      -6.735   4.870  70.563  1.00  0.00    -0.036 C  
HETATM   30  C   UNL     1      -7.844   4.768  71.595  1.00  0.00    -0.098 C  
ENDBRANCH  26  29
BRANCH  26  31
HETATM   31  C   UNL     1      -8.002   7.037  70.066  1.00  0.00    -0.115 C  
BRANCH  31  32
HETATM   32  C   UNL     1      -8.933   7.547  68.979  1.00  0.00    -0.131 A  
HETATM   33  C   UNL     1      -8.883   8.897  68.570  1.00  0.00    -0.134 A  
HETATM   34  C   UNL     1      -9.815   9.422  67.668  1.00  0.00    -0.217 A  
HETATM   35  C   UNL     1     -10.829   8.616  67.168  1.00  0.00    -0.061 A  
HETATM   36  C   UNL     1     -10.890   7.277  67.539  1.00  0.00    -0.284 A  
HETATM   37  C   UNL     1      -9.949   6.743  68.426  1.00  0.00    -0.151 A  
HETATM   38 CL   UNL     1     -10.119   5.071  68.824  1.00  0.00    -0.227 Cl 
ENDBRANCH  31  32
ENDBRANCH  26  31
ENDBRANCH  25  26
ENDBRANCH  24  25
ENDBRANCH  21  24
ENDBRANCH  18  20
ENDBRANCH  15  16
ENDBRANCH  14  15
ENDBRANCH   3  14
ENDBRANCH   2   3
TORSDOF 15
ENDMDL
MODEL      369
REMARK 921   NORMALIZED FREE ENERGY PREDICTED BY IDOCK:   -2.70 KCAL/MOL
REMARK 922        TOTAL FREE ENERGY PREDICTED BY IDOCK:   -7.73 KCAL/MOL
REMARK 923 INTER-LIGAND FREE ENERGY PREDICTED BY IDOCK:   -7.78 KCAL/MOL
REMARK 924 INTRA-LIGAND FREE ENERGY PREDICTED BY IDOCK:    0.05 KCAL/MOL
REMARK 927      BINDING AFFINITY PREDICTED BY RF-SCORE:    0.00 PKD
ROOT
HETATM    1  C   UNL     1     -14.360   8.505  72.577  1.00  0.00    -0.325 C  
HETATM    2  C   UNL     1     -13.716   8.357  71.207  1.00  0.00    -0.136 C  
ENDROOT
BRANCH   2   3
HETATM    3  N   UNL     1     -12.165   8.190  71.203  1.00  0.00    -0.278 N  
BRANCH   3   4
HETATM    4  C   UNL     1     -11.631   8.137  72.664  1.00  0.00    -0.375 C  
HETATM    5  C   UNL     1     -10.846   6.904  73.032  1.00  0.00    -0.328 C  
ENDBRANCH   3   4
BRANCH   3   6
HETATM    6  C   UNL     1     -11.491   9.437  70.584  1.00  0.00    -0.284 C  
BRANCH   6   7
HETATM    7  C   UNL     1     -12.040  10.848  70.771  1.00  0.00    -0.469 A  
HETATM    8  C   UNL     1     -12.137  13.160  69.943  1.00  0.00    -0.357 A  
HETATM    9  C   UNL     1     -12.801  11.287  71.867  1.00  0.00    -0.386 A  
HETATM   10  C   UNL     1     -11.765  11.819  69.785  1.00  0.00    -0.335 A  
HETATM   11  C   UNL     1     -13.228  12.609  72.002  1.00  0.00    -0.531 A  
HETATM   12 CL   UNL     1     -10.913  11.393  68.340  1.00  0.00    -0.239 Cl 
HETATM   13  C   UNL     1     -12.875  13.553  71.054  1.00  0.00    -0.343 A  
ENDBRANCH   6   7
ENDBRANCH   3   6
BRANCH   3  14
HETATM   14  C   UNL     1     -11.874   6.873  70.375  1.00  0.00    -0.299 C  
BRANCH  14  15
HETATM   15  C   UNL     1     -10.500   6.796  69.624  1.00  0.00    -0.214 C  
BRANCH  15  16
HETATM   16  N   UNL     1     -10.279   5.680  68.716  1.00  0.00    -0.185 N  
HETATM   17  H   UNL     1      -9.916   4.795  69.070  1.00  0.00     0.000 HD 
HETATM   18  C   UNL     1     -10.567   5.828  67.362  1.00  0.00    -0.265 C  
HETATM   19  O   UNL     1     -11.178   6.777  66.901  1.00  0.00    -0.375 OA 
BRANCH  18  20
HETATM   20  C   UNL     1     -10.157   4.625  66.476  1.00  0.00    -0.250 C  
HETATM   21  N   UNL     1     -10.499   4.730  65.127  1.00  0.00    -0.464 N  
HETATM   22  O   UNL     1      -9.566   3.670  66.951  1.00  0.00    -0.205 OA 
HETATM   23  H   UNL     1     -11.234   5.368  64.821  1.00  0.00     0.000 HD 
BRANCH  21  24
HETATM   24  C   UNL     1      -9.780   3.904  64.164  1.00  0.00    -0.171 C  
BRANCH  24  25
HETATM   25  C   UNL     1      -8.979   4.687  63.088  1.00  0.00    -0.117 C  
BRANCH  25  26
HETATM   26  N   UNL     1      -7.478   4.882  63.412  1.00  0.00    -0.053 N  
BRANCH  26  27
HETATM   27  C   UNL     1      -6.689   3.568  63.138  1.00  0.00    -0.031 C  
HETATM   28  C   UNL     1      -6.651   2.579  64.295  1.00  0.00    -0.031 C  
ENDBRANCH  26  27
BRANCH  26  29
HETATM   29  C   UNL     1      -6.953   6.053  62.536  1.00  0.00    -0.041 C  
HETATM   30  C   UNL     1      -5.456   6.297  62.603  1.00  0.00    -0.022 C  
ENDBRANCH  26  29
BRANCH  26  31
HETATM   31  C   UNL     1      -7.291   5.232  64.936  1.00  0.00    -0.067 C  
BRANCH  31  32
HETATM   32  C   UNL     1      -7.673   6.617  65.428  1.00  0.00    -0.100 A  
HETATM   33  C   UNL     1      -8.363   7.512  64.583  1.00  0.00     0.014 A  
HETATM   34  C   UNL     1      -8.610   8.835  64.966  1.00  0.00    -0.196 A  
HETATM   35  C   UNL     1      -8.156   9.301  66.193  1.00  0.00    -0.110 A  
HETATM   36  C   UNL     1      -7.490   8.435  67.053  1.00  0.00    -0.088 A  
HETATM   37  C   UNL     1      -7.258   7.105  66.683  1.00  0.00    -0.079 A  
HETATM   38 CL   UNL     1      -6.418   6.118  67.824  1.00  0.00    -0.044 Cl 
ENDBRANCH  31  32
ENDBRANCH  26  31
ENDBRANCH  25  26
ENDBRANCH  24  25
ENDBRANCH  21  24
ENDBRANCH  18  20
ENDBRANCH  15  16
ENDBRANCH  14  15
ENDBRANCH   3  14
ENDBRANCH   2   3
TORSDOF 15
ENDMDL
MODEL      370
REMARK 921   NORMALIZED FREE ENERGY PREDICTED BY IDOCK:   -2.68 KCAL/MOL
REMARK 922        TOTAL FREE ENERGY PREDICTED BY IDOCK:   -7.69 KCAL/MOL
REMARK 923 INTER-LIGAND FREE ENERGY PREDICTED BY IDOCK:   -7.03 KCAL/MOL
REMARK 924 INTRA-LIGAND FREE ENERGY PREDICTED BY IDOCK:   -0.66 KCAL/MOL
REMARK 927      BINDING AFFINITY PREDICTED BY RF-SCORE:    0.00 PKD
ROOT
HETATM    1  C   UNL     1     -11.303   7.474  72.791  1.00  0.00    -0.388 C  
HETATM    2  C   UNL     1     -10.897   6.204  72.057  1.00  0.00    -0.247 C  
ENDROOT
BRANCH   2   3
HETATM    3  N   UNL     1      -9.604   6.308  71.190  1.00  0.00    -0.174 N  
BRANCH   3   4
HETATM    4  C   UNL     1      -9.972   6.705  69.731  1.00  0.00    -0.173 C  
HETATM    5  C   UNL     1     -11.336   6.272  69.257  1.00  0.00    -0.411 C  
ENDBRANCH   3   4
BRANCH   3   6
HETATM    6  C   UNL     1      -8.929   4.922  71.063  1.00  0.00    -0.134 C  
BRANCH   6   7
HETATM    7  C   UNL     1      -7.848   4.625  70.029  1.00  0.00    -0.060 A  
HETATM    8  C   UNL     1      -6.994   3.098  68.303  1.00  0.00    -0.049 A  
HETATM    9  C   UNL     1      -6.679   5.380  69.834  1.00  0.00    -0.051 A  
HETATM   10  C   UNL     1      -7.998   3.497  69.194  1.00  0.00    -0.053 A  
HETATM   11  C   UNL     1      -5.702   5.021  68.903  1.00  0.00    -0.016 A  
HETATM   12 CL   UNL     1      -9.431   2.530  69.268  1.00  0.00    -0.184 Cl 
HETATM   13  C   UNL     1      -5.846   3.866  68.155  1.00  0.00    -0.026 A  
ENDBRANCH   6   7
ENDBRANCH   3   6
BRANCH   3  14
HETATM   14  C   UNL     1      -8.679   7.365  71.920  1.00  0.00    -0.114 C  
BRANCH  14  15
HETATM   15  C   UNL     1      -8.965   8.878  71.627  1.00  0.00    -0.173 C  
BRANCH  15  16
HETATM   16  N   UNL     1      -8.350   9.474  70.450  1.00  0.00    -0.192 N  
HETATM   17  H   UNL     1      -8.894   9.600  69.596  1.00  0.00     0.000 HD 
HETATM   18  C   UNL     1      -7.017   9.872  70.497  1.00  0.00    -0.111 C  
HETATM   19  O   UNL     1      -6.366   9.932  71.525  1.00  0.00    -0.314 OA 
BRANCH  18  20
HETATM   20  C   UNL     1      -6.437  10.358  69.145  1.00  0.00    -0.048 C  
HETATM   21  N   UNL     1      -7.324  10.335  68.067  1.00  0.00    -0.085 N  
HETATM   22  O   UNL     1      -5.281  10.739  69.060  1.00  0.00    -0.042 OA 
HETATM   23  H   UNL     1      -8.158   9.748  68.089  1.00  0.00     0.000 HD 
BRANCH  21  24
HETATM   24  C   UNL     1      -7.030  11.171  66.910  1.00  0.00    -0.131 C  
BRANCH  24  25
HETATM   25  C   UNL     1      -7.451  10.576  65.539  1.00  0.00    -0.111 C  
BRANCH  25  26
HETATM   26  N   UNL     1      -8.978  10.545  65.286  1.00  0.00    -0.181 N  
BRANCH  26  27
HETATM   27  C   UNL     1      -9.294  10.970  63.822  1.00  0.00    -0.226 C  
HETATM   28  C   UNL     1      -8.532  10.210  62.746  1.00  0.00    -0.183 C  
ENDBRANCH  26  27
BRANCH  26  29
HETATM   29  C   UNL     1      -9.476   9.103  65.578  1.00  0.00    -0.206 C  
HETATM   30  C   UNL     1     -10.466   8.974  66.722  1.00  0.00    -0.270 C  
ENDBRANCH  26  29
BRANCH  26  31
HETATM   31  C   UNL     1      -9.708  11.564  66.238  1.00  0.00    -0.215 C  
BRANCH  31  32
HETATM   32  C   UNL     1     -10.590  12.642  65.629  1.00  0.00    -0.299 A  
HETATM   33  C   UNL     1     -11.754  12.294  64.911  1.00  0.00    -0.409 A  
HETATM   34  C   UNL     1     -12.508  13.256  64.232  1.00  0.00    -0.337 A  
HETATM   35  C   UNL     1     -12.107  14.585  64.237  1.00  0.00    -0.448 A  
HETATM   36  C   UNL     1     -10.974  14.959  64.952  1.00  0.00    -0.422 A  
HETATM   37  C   UNL     1     -10.228  14.003  65.650  1.00  0.00    -0.334 A  
HETATM   38 CL   UNL     1      -8.838  14.575  66.501  1.00  0.00    -0.214 Cl 
ENDBRANCH  31  32
ENDBRANCH  26  31
ENDBRANCH  25  26
ENDBRANCH  24  25
ENDBRANCH  21  24
ENDBRANCH  18  20
ENDBRANCH  15  16
ENDBRANCH  14  15
ENDBRANCH   3  14
ENDBRANCH   2   3
TORSDOF 15
ENDMDL
MODEL      371
REMARK 921   NORMALIZED FREE ENERGY PREDICTED BY IDOCK:   -2.65 KCAL/MOL
REMARK 922        TOTAL FREE ENERGY PREDICTED BY IDOCK:   -7.63 KCAL/MOL
REMARK 923 INTER-LIGAND FREE ENERGY PREDICTED BY IDOCK:   -8.03 KCAL/MOL
REMARK 924 INTRA-LIGAND FREE ENERGY PREDICTED BY IDOCK:    0.40 KCAL/MOL
REMARK 927      BINDING AFFINITY PREDICTED BY RF-SCORE:    0.00 PKD
ROOT
HETATM    1  C   UNL     1      -9.669   9.289  68.556  1.00  0.00    -0.162 C  
HETATM    2  C   UNL     1      -9.650  10.283  67.403  1.00  0.00    -0.158 C  
ENDROOT
BRANCH   2   3
HETATM    3  N   UNL     1      -8.751   9.893  66.190  1.00  0.00    -0.134 N  
BRANCH   3   4
HETATM    4  C   UNL     1      -8.413   8.375  66.243  1.00  0.00    -0.127 C  
HETATM    5  C   UNL     1      -8.139   7.716  64.915  1.00  0.00    -0.128 C  
ENDBRANCH   3   4
BRANCH   3   6
HETATM    6  C   UNL     1      -7.381  10.604  66.285  1.00  0.00    -0.137 C  
BRANCH   6   7
HETATM    7  C   UNL     1      -6.816  11.130  67.601  1.00  0.00    -0.076 A  
HETATM    8  C   UNL     1      -5.563  10.645  69.659  1.00  0.00    -0.040 A  
HETATM    9  C   UNL     1      -7.031  12.417  68.123  1.00  0.00    -0.087 A  
HETATM   10  C   UNL     1      -6.020  10.272  68.389  1.00  0.00    -0.040 A  
HETATM   11  C   UNL     1      -6.527  12.816  69.362  1.00  0.00    -0.096 A  
HETATM   12 CL   UNL     1      -5.603   8.690  67.825  1.00  0.00    -0.035 Cl 
HETATM   13  C   UNL     1      -5.815  11.924  70.143  1.00  0.00    -0.157 A  
ENDBRANCH   6   7
ENDBRANCH   3   6
BRANCH   3  14
HETATM   14  C   UNL     1      -9.561  10.316  64.898  1.00  0.00    -0.304 C  
BRANCH  14  15
HETATM   15  C   UNL     1     -10.601  11.477  65.062  1.00  0.00    -0.297 C  
BRANCH  15  16
HETATM   16  N   UNL     1     -10.318  12.515  66.043  1.00  0.00    -0.251 N  
HETATM   17  H   UNL     1      -9.378  12.902  66.123  1.00  0.00     0.000 HD 
HETATM   18  C   UNL     1     -11.338  12.975  66.872  1.00  0.00    -0.311 C  
HETATM   19  O   UNL     1     -12.515  12.703  66.709  1.00  0.00    -0.328 OA 
BRANCH  18  20
HETATM   20  C   UNL     1     -10.884  13.971  67.968  1.00  0.00    -0.246 C  
HETATM   21  N   UNL     1      -9.645  14.578  67.753  1.00  0.00    -0.212 N  
HETATM   22  O   UNL     1     -11.588  14.199  68.937  1.00  0.00    -0.268 OA 
HETATM   23  H   UNL     1      -8.962  14.161  67.120  1.00  0.00     0.000 HD 
BRANCH  21  24
HETATM   24  C   UNL     1      -9.352  15.822  68.454  1.00  0.00    -0.196 C  
BRANCH  24  25
HETATM   25  C   UNL     1      -9.990  17.096  67.837  1.00  0.00    -0.292 C  
BRANCH  25  26
HETATM   26  N   UNL     1      -9.611  17.361  66.359  1.00  0.00    -0.279 N  
BRANCH  26  27
HETATM   27  C   UNL     1     -10.052  16.166  65.464  1.00  0.00    -0.276 C  
HETATM   28  C   UNL     1     -11.410  16.323  64.793  1.00  0.00    -0.214 C  
ENDBRANCH  26  27
BRANCH  26  29
HETATM   29  C   UNL     1     -10.302  18.682  65.923  1.00  0.00    -0.323 C  
HETATM   30  C   UNL     1     -10.457  19.728  67.013  1.00  0.00    -0.595 C  
ENDBRANCH  26  29
BRANCH  26  31
HETATM   31  C   UNL     1      -8.050  17.504  66.215  1.00  0.00    -0.254 C  
BRANCH  31  32
HETATM   32  C   UNL     1      -7.323  18.549  67.045  1.00  0.00    -0.224 A  
HETATM   33  C   UNL     1      -7.397  18.522  68.453  1.00  0.00    -0.301 A  
HETATM   34  C   UNL     1      -6.848  19.546  69.233  1.00  0.00    -0.381 A  
HETATM   35  C   UNL     1      -6.230  20.629  68.624  1.00  0.00    -0.341 A  
HETATM   36  C   UNL     1      -6.126  20.671  67.237  1.00  0.00    -0.278 A  
HETATM   37  C   UNL     1      -6.656  19.641  66.454  1.00  0.00    -0.192 A  
HETATM   38 CL   UNL     1      -6.476  19.795  64.743  1.00  0.00    -0.292 Cl 
ENDBRANCH  31  32
ENDBRANCH  26  31
ENDBRANCH  25  26
ENDBRANCH  24  25
ENDBRANCH  21  24
ENDBRANCH  18  20
ENDBRANCH  15  16
ENDBRANCH  14  15
ENDBRANCH   3  14
ENDBRANCH   2   3
TORSDOF 15
ENDMDL
MODEL      372
REMARK 921   NORMALIZED FREE ENERGY PREDICTED BY IDOCK:   -2.61 KCAL/MOL
REMARK 922        TOTAL FREE ENERGY PREDICTED BY IDOCK:   -7.56 KCAL/MOL
REMARK 923 INTER-LIGAND FREE ENERGY PREDICTED BY IDOCK:   -7.61 KCAL/MOL
REMARK 924 INTRA-LIGAND FREE ENERGY PREDICTED BY IDOCK:    0.06 KCAL/MOL
REMARK 927      BINDING AFFINITY PREDICTED BY RF-SCORE:    0.00 PKD
ROOT
HETATM    1  C   UNL     1     -10.693   7.723  67.009  1.00  0.00    -0.316 C  
HETATM    2  C   UNL     1      -9.657   8.769  67.393  1.00  0.00    -0.161 C  
ENDROOT
BRANCH   2   3
HETATM    3  N   UNL     1      -8.250   8.597  66.742  1.00  0.00    -0.107 N  
BRANCH   3   4
HETATM    4  C   UNL     1      -8.351   7.679  65.489  1.00  0.00    -0.135 C  
HETATM    5  C   UNL     1      -7.793   8.251  64.210  1.00  0.00    -0.144 C  
ENDBRANCH   3   4
BRANCH   3   6
HETATM    6  C   UNL     1      -7.301   7.845  67.704  1.00  0.00    -0.096 C  
BRANCH   6   7
HETATM    7  C   UNL     1      -7.602   6.444  68.230  1.00  0.00    -0.103 A  
HETATM    8  C   UNL     1      -8.220   5.041  70.151  1.00  0.00    -0.081 A  
HETATM    9  C   UNL     1      -7.471   5.254  67.496  1.00  0.00    -0.084 A  
HETATM   10  C   UNL     1      -8.035   6.300  69.565  1.00  0.00    -0.108 A  
HETATM   11  C   UNL     1      -7.713   3.998  68.056  1.00  0.00    -0.067 A  
HETATM   12 CL   UNL     1      -8.323   7.690  70.555  1.00  0.00    -0.125 Cl 
HETATM   13  C   UNL     1      -8.062   3.888  69.391  1.00  0.00    -0.062 A  
ENDBRANCH   6   7
ENDBRANCH   3   6
BRANCH   3  14
HETATM   14  C   UNL     1      -7.743  10.060  66.416  1.00  0.00    -0.103 C  
BRANCH  14  15
HETATM   15  C   UNL     1      -8.377  11.231  67.245  1.00  0.00    -0.145 C  
BRANCH  15  16
HETATM   16  N   UNL     1      -7.999  12.594  66.901  1.00  0.00    -0.387 N  
HETATM   17  H   UNL     1      -8.299  13.001  66.015  1.00  0.00     0.000 HD 
HETATM   18  C   UNL     1      -7.227  13.339  67.788  1.00  0.00    -0.151 C  
HETATM   19  O   UNL     1      -6.996  12.996  68.935  1.00  0.00    -0.098 OA 
BRANCH  18  20
HETATM   20  C   UNL     1      -6.770  14.718  67.251  1.00  0.00     0.136 C  
HETATM   21  N   UNL     1      -7.731  15.433  66.534  1.00  0.00    -0.191 N  
HETATM   22  O   UNL     1      -5.642  15.130  67.465  1.00  0.00    -0.318 OA 
HETATM   23  H   UNL     1      -8.534  14.959  66.120  1.00  0.00     0.000 HD 
BRANCH  21  24
HETATM   24  C   UNL     1      -7.561  16.874  66.393  1.00  0.00    -0.304 C  
BRANCH  24  25
HETATM   25  C   UNL     1      -8.613  17.741  67.137  1.00  0.00    -0.233 C  
BRANCH  25  26
HETATM   26  N   UNL     1     -10.072  17.239  67.013  1.00  0.00    -0.294 N  
BRANCH  26  27
HETATM   27  C   UNL     1     -11.029  18.145  67.842  1.00  0.00    -0.060 C  
HETATM   28  C   UNL     1     -10.526  19.559  68.098  1.00  0.00    -0.497 C  
ENDBRANCH  26  27
BRANCH  26  29
HETATM   29  C   UNL     1     -10.449  17.247  65.505  1.00  0.00    -0.122 C  
HETATM   30  C   UNL     1     -10.933  15.920  64.948  1.00  0.00    -0.427 C  
ENDBRANCH  26  29
BRANCH  26  31
HETATM   31  C   UNL     1     -10.196  15.778  67.586  1.00  0.00    -0.266 C  
BRANCH  31  32
HETATM   32  C   UNL     1     -11.048  15.539  68.821  1.00  0.00    -0.291 A  
HETATM   33  C   UNL     1     -10.982  16.425  69.918  1.00  0.00    -0.339 A  
HETATM   34  C   UNL     1     -11.654  16.156  71.115  1.00  0.00    -0.453 A  
HETATM   35  C   UNL     1     -12.391  14.988  71.252  1.00  0.00    -0.387 A  
HETATM   36  C   UNL     1     -12.488  14.106  70.181  1.00  0.00    -0.391 A  
HETATM   37  C   UNL     1     -11.833  14.380  68.975  1.00  0.00    -0.323 A  
HETATM   38 CL   UNL     1     -12.016  13.217  67.711  1.00  0.00    -0.381 Cl 
ENDBRANCH  31  32
ENDBRANCH  26  31
ENDBRANCH  25  26
ENDBRANCH  24  25
ENDBRANCH  21  24
ENDBRANCH  18  20
ENDBRANCH  15  16
ENDBRANCH  14  15
ENDBRANCH   3  14
ENDBRANCH   2   3
TORSDOF 15
ENDMDL
MODEL      373
REMARK 921   NORMALIZED FREE ENERGY PREDICTED BY IDOCK:   -2.57 KCAL/MOL
REMARK 922        TOTAL FREE ENERGY PREDICTED BY IDOCK:   -7.48 KCAL/MOL
REMARK 923 INTER-LIGAND FREE ENERGY PREDICTED BY IDOCK:   -5.80 KCAL/MOL
REMARK 924 INTRA-LIGAND FREE ENERGY PREDICTED BY IDOCK:   -1.67 KCAL/MOL
REMARK 927      BINDING AFFINITY PREDICTED BY RF-SCORE:    0.00 PKD
ROOT
HETATM    1  C   UNL     1      -9.173  12.807  68.133  1.00  0.00    -0.212 C  
HETATM    2  C   UNL     1      -8.968  11.397  68.668  1.00  0.00    -0.131 C  
ENDROOT
BRANCH   2   3
HETATM    3  N   UNL     1     -10.250  10.513  68.751  1.00  0.00    -0.180 N  
BRANCH   3   4
HETATM    4  C   UNL     1     -11.092  10.913  69.998  1.00  0.00    -0.211 C  
HETATM    5  C   UNL     1     -12.255  11.837  69.737  1.00  0.00    -0.270 C  
ENDBRANCH   3   4
BRANCH   3   6
HETATM    6  C   UNL     1      -9.869   9.034  68.992  1.00  0.00    -0.175 C  
BRANCH   6   7
HETATM    7  C   UNL     1     -10.166   8.310  70.302  1.00  0.00    -0.199 A  
HETATM    8  C   UNL     1     -11.346   6.475  71.434  1.00  0.00    -0.344 A  
HETATM    9  C   UNL     1      -9.744   8.726  71.576  1.00  0.00    -0.361 A  
HETATM   10  C   UNL     1     -10.938   7.130  70.265  1.00  0.00    -0.263 A  
HETATM   11  C   UNL     1     -10.097   8.044  72.742  1.00  0.00    -0.378 A  
HETATM   12 CL   UNL     1     -11.449   6.456  68.755  1.00  0.00    -0.259 Cl 
HETATM   13  C   UNL     1     -10.919   6.933  72.675  1.00  0.00    -0.303 A  
ENDBRANCH   6   7
ENDBRANCH   3   6
BRANCH   3  14
HETATM   14  C   UNL     1     -11.011  10.725  67.380  1.00  0.00    -0.300 C  
BRANCH  14  15
HETATM   15  C   UNL     1     -10.657   9.739  66.213  1.00  0.00     0.000 C  
BRANCH  15  16
HETATM   16  N   UNL     1      -9.395   9.016  66.289  1.00  0.00    -0.205 N  
HETATM   17  H   UNL     1      -9.266   8.282  66.984  1.00  0.00     0.000 HD 
HETATM   18  C   UNL     1      -8.367   9.333  65.406  1.00  0.00    -0.137 C  
HETATM   19  O   UNL     1      -8.510  10.055  64.433  1.00  0.00    -0.151 OA 
BRANCH  18  20
HETATM   20  C   UNL     1      -7.030   8.599  65.676  1.00  0.00    -0.075 C  
HETATM   21  N   UNL     1      -6.835   8.171  66.990  1.00  0.00    -0.068 N  
HETATM   22  O   UNL     1      -6.226   8.412  64.778  1.00  0.00    -0.062 OA 
HETATM   23  H   UNL     1      -7.357   8.590  67.760  1.00  0.00     0.000 HD 
BRANCH  21  24
HETATM   24  C   UNL     1      -5.865   7.110  67.237  1.00  0.00    -0.025 C  
BRANCH  24  25
HETATM   25  C   UNL     1      -6.296   6.051  68.288  1.00  0.00    -0.044 C  
BRANCH  25  26
HETATM   26  N   UNL     1      -6.816   4.720  67.692  1.00  0.00    -0.058 N  
BRANCH  26  27
HETATM   27  C   UNL     1      -6.602   4.697  66.150  1.00  0.00    -0.045 C  
HETATM   28  C   UNL     1      -7.814   4.272  65.331  1.00  0.00    -0.086 C  
ENDBRANCH  26  27
BRANCH  26  29
HETATM   29  C   UNL     1      -6.054   3.560  68.388  1.00  0.00    -0.031 C  
HETATM   30  C   UNL     1      -5.174   3.966  69.557  1.00  0.00    -0.008 C  
ENDBRANCH  26  29
BRANCH  26  31
HETATM   31  C   UNL     1      -8.362   4.575  67.952  1.00  0.00    -0.098 C  
BRANCH  31  32
HETATM   32  C   UNL     1      -8.838   3.707  69.105  1.00  0.00    -0.157 A  
HETATM   33  C   UNL     1      -8.861   4.216  70.421  1.00  0.00    -0.137 A  
HETATM   34  C   UNL     1      -9.169   3.399  71.515  1.00  0.00    -0.192 A  
HETATM   35  C   UNL     1      -9.442   2.052  71.321  1.00  0.00    -0.208 A  
HETATM   36  C   UNL     1      -9.445   1.528  70.033  1.00  0.00    -0.145 A  
HETATM   37  C   UNL     1      -9.157   2.345  68.934  1.00  0.00    -0.136 A  
HETATM   38 CL   UNL     1      -9.183   1.593  67.380  1.00  0.00    -0.148 Cl 
ENDBRANCH  31  32
ENDBRANCH  26  31
ENDBRANCH  25  26
ENDBRANCH  24  25
ENDBRANCH  21  24
ENDBRANCH  18  20
ENDBRANCH  15  16
ENDBRANCH  14  15
ENDBRANCH   3  14
ENDBRANCH   2   3
TORSDOF 15
ENDMDL
MODEL      374
REMARK 921   NORMALIZED FREE ENERGY PREDICTED BY IDOCK:   -2.56 KCAL/MOL
REMARK 922        TOTAL FREE ENERGY PREDICTED BY IDOCK:   -7.46 KCAL/MOL
REMARK 923 INTER-LIGAND FREE ENERGY PREDICTED BY IDOCK:   -7.05 KCAL/MOL
REMARK 924 INTRA-LIGAND FREE ENERGY PREDICTED BY IDOCK:   -0.41 KCAL/MOL
REMARK 927      BINDING AFFINITY PREDICTED BY RF-SCORE:    0.00 PKD
ROOT
HETATM    1  C   UNL     1      -5.948  18.061  69.898  1.00  0.00    -0.204 C  
HETATM    2  C   UNL     1      -6.060  16.669  69.292  1.00  0.00    -0.182 C  
ENDROOT
BRANCH   2   3
HETATM    3  N   UNL     1      -6.833  16.582  67.939  1.00  0.00    -0.133 N  
BRANCH   3   4
HETATM    4  C   UNL     1      -6.334  17.691  66.968  1.00  0.00    -0.161 C  
HETATM    5  C   UNL     1      -7.278  18.846  66.750  1.00  0.00    -0.221 C  
ENDBRANCH   3   4
BRANCH   3   6
HETATM    6  C   UNL     1      -8.332  16.894  68.155  1.00  0.00    -0.212 C  
BRANCH   6   7
HETATM    7  C   UNL     1      -9.442  16.147  67.423  1.00  0.00    -0.227 A  
HETATM    8  C   UNL     1     -11.424  14.702  67.585  1.00  0.00    -0.364 A  
HETATM    9  C   UNL     1      -9.560  16.026  66.028  1.00  0.00    -0.385 A  
HETATM   10  C   UNL     1     -10.440  15.500  68.182  1.00  0.00    -0.259 A  
HETATM   11  C   UNL     1     -10.574  15.281  65.424  1.00  0.00    -0.413 A  
HETATM   12 CL   UNL     1     -10.466  15.641  69.907  1.00  0.00    -0.307 Cl 
HETATM   13  C   UNL     1     -11.491  14.597  66.201  1.00  0.00    -0.339 A  
ENDBRANCH   6   7
ENDBRANCH   3   6
BRANCH   3  14
HETATM   14  C   UNL     1      -6.593  15.114  67.400  1.00  0.00    -0.056 C  
BRANCH  14  15
HETATM   15  C   UNL     1      -6.964  13.935  68.364  1.00  0.00    -0.102 C  
BRANCH  15  16
HETATM   16  N   UNL     1      -8.134  13.130  68.041  1.00  0.00    -0.145 N  
HETATM   17  H   UNL     1      -9.057  13.413  68.367  1.00  0.00     0.000 HD 
HETATM   18  C   UNL     1      -7.984  11.972  67.284  1.00  0.00    -0.174 C  
HETATM   19  O   UNL     1      -6.955  11.674  66.701  1.00  0.00    -0.115 OA 
BRANCH  18  20
HETATM   20  C   UNL     1      -9.272  11.126  67.128  1.00  0.00    -0.158 C  
HETATM   21  N   UNL     1      -9.124   9.930  66.424  1.00  0.00    -0.147 N  
HETATM   22  O   UNL     1     -10.329  11.500  67.608  1.00  0.00    -0.181 OA 
HETATM   23  H   UNL     1      -8.336   9.789  65.792  1.00  0.00     0.000 HD 
BRANCH  21  24
HETATM   24  C   UNL     1     -10.123   8.885  66.614  1.00  0.00    -0.287 C  
BRANCH  24  25
HETATM   25  C   UNL     1     -10.074   8.164  67.989  1.00  0.00    -0.197 C  
BRANCH  25  26
HETATM   26  N   UNL     1      -9.549   6.709  67.939  1.00  0.00    -0.120 N  
BRANCH  26  27
HETATM   27  C   UNL     1      -9.273   6.283  66.467  1.00  0.00    -0.154 C  
HETATM   28  C   UNL     1      -7.802   6.179  66.086  1.00  0.00    -0.105 C  
ENDBRANCH  26  27
BRANCH  26  29
HETATM   29  C   UNL     1      -8.258   6.642  68.801  1.00  0.00    -0.120 C  
HETATM   30  C   UNL     1      -8.392   7.174  70.217  1.00  0.00    -0.136 C  
ENDBRANCH  26  29
BRANCH  26  31
HETATM   31  C   UNL     1     -10.628   5.720  68.518  1.00  0.00    -0.229 C  
BRANCH  31  32
HETATM   32  C   UNL     1     -10.255   4.818  69.683  1.00  0.00    -0.200 A  
HETATM   33  C   UNL     1     -10.716   5.103  70.985  1.00  0.00    -0.133 A  
HETATM   34  C   UNL     1     -10.280   4.367  72.092  1.00  0.00    -0.247 A  
HETATM   35  C   UNL     1      -9.359   3.341  71.926  1.00  0.00    -0.194 A  
HETATM   36  C   UNL     1      -8.903   3.026  70.650  1.00  0.00    -0.148 A  
HETATM   37  C   UNL     1      -9.350   3.747  69.538  1.00  0.00    -0.179 A  
HETATM   38 CL   UNL     1      -8.717   3.276  68.002  1.00  0.00    -0.119 Cl 
ENDBRANCH  31  32
ENDBRANCH  26  31
ENDBRANCH  25  26
ENDBRANCH  24  25
ENDBRANCH  21  24
ENDBRANCH  18  20
ENDBRANCH  15  16
ENDBRANCH  14  15
ENDBRANCH   3  14
ENDBRANCH   2   3
TORSDOF 15
ENDMDL
MODEL      375
REMARK 921   NORMALIZED FREE ENERGY PREDICTED BY IDOCK:   -2.52 KCAL/MOL
REMARK 922        TOTAL FREE ENERGY PREDICTED BY IDOCK:   -7.39 KCAL/MOL
REMARK 923 INTER-LIGAND FREE ENERGY PREDICTED BY IDOCK:   -6.13 KCAL/MOL
REMARK 924 INTRA-LIGAND FREE ENERGY PREDICTED BY IDOCK:   -1.26 KCAL/MOL
REMARK 927      BINDING AFFINITY PREDICTED BY RF-SCORE:    0.00 PKD
ROOT
HETATM    1  C   UNL     1     -11.215  15.306  64.966  1.00  0.00    -0.409 C  
HETATM    2  C   UNL     1     -10.136  14.480  65.652  1.00  0.00    -0.359 C  
ENDROOT
BRANCH   2   3
HETATM    3  N   UNL     1     -10.211  14.430  67.209  1.00  0.00    -0.251 N  
BRANCH   3   4
HETATM    4  C   UNL     1     -11.664  14.101  67.662  1.00  0.00    -0.387 C  
HETATM    5  C   UNL     1     -12.056  14.606  69.027  1.00  0.00    -0.270 C  
ENDBRANCH   3   4
BRANCH   3   6
HETATM    6  C   UNL     1      -9.921  15.827  67.807  1.00  0.00    -0.227 C  
BRANCH   6   7
HETATM    7  C   UNL     1      -8.670  16.628  67.458  1.00  0.00    -0.198 A  
HETATM    8  C   UNL     1      -6.381  17.271  68.081  1.00  0.00    -0.155 A  
HETATM    9  C   UNL     1      -8.553  17.528  66.386  1.00  0.00    -0.273 A  
HETATM   10  C   UNL     1      -7.525  16.486  68.270  1.00  0.00    -0.171 A  
HETATM   11  C   UNL     1      -7.393  18.270  66.155  1.00  0.00    -0.298 A  
HETATM   12 CL   UNL     1      -7.503  15.346  69.572  1.00  0.00    -0.217 Cl 
HETATM   13  C   UNL     1      -6.316  18.162  67.016  1.00  0.00    -0.195 A  
ENDBRANCH   6   7
ENDBRANCH   3   6
BRANCH   3  14
HETATM   14  C   UNL     1      -9.147  13.349  67.658  1.00  0.00    -0.203 C  
BRANCH  14  15
HETATM   15  C   UNL     1      -9.690  11.916  67.994  1.00  0.00    -0.191 C  
BRANCH  15  16
HETATM   16  N   UNL     1      -8.795  10.784  67.803  1.00  0.00    -0.129 N  
HETATM   17  H   UNL     1      -8.732  10.328  66.893  1.00  0.00     0.000 HD 
HETATM   18  C   UNL     1      -8.026  10.328  68.870  1.00  0.00    -0.113 C  
HETATM   19  O   UNL     1      -7.903  10.933  69.922  1.00  0.00     0.098 OA 
BRANCH  18  20
HETATM   20  C   UNL     1      -7.224   9.034  68.586  1.00  0.00    -0.072 C  
HETATM   21  N   UNL     1      -7.992   7.894  68.339  1.00  0.00    -0.120 N  
HETATM   22  O   UNL     1      -6.005   9.042  68.573  1.00  0.00    -0.044 OA 
HETATM   23  H   UNL     1      -8.963   7.841  68.646  1.00  0.00     0.000 HD 
BRANCH  21  24
HETATM   24  C   UNL     1      -7.371   6.779  67.634  1.00  0.00    -0.096 C  
BRANCH  24  25
HETATM   25  C   UNL     1      -7.937   5.376  67.983  1.00  0.00    -0.096 C  
BRANCH  25  26
HETATM   26  N   UNL     1      -9.187   4.961  67.170  1.00  0.00    -0.119 N  
BRANCH  26  27
HETATM   27  C   UNL     1      -9.199   3.420  66.945  1.00  0.00    -0.180 C  
HETATM   28  C   UNL     1      -9.291   2.579  68.211  1.00  0.00    -0.262 C  
ENDBRANCH  26  27
BRANCH  26  29
HETATM   29  C   UNL     1     -10.441   5.429  67.958  1.00  0.00    -0.123 C  
HETATM   30  C   UNL     1     -11.188   6.606  67.356  1.00  0.00    -0.294 C  
ENDBRANCH  26  29
BRANCH  26  31
HETATM   31  C   UNL     1      -9.165   5.641  65.751  1.00  0.00    -0.096 C  
BRANCH  31  32
HETATM   32  C   UNL     1      -8.442   4.946  64.609  1.00  0.00    -0.143 A  
HETATM   33  C   UNL     1      -7.051   5.106  64.440  1.00  0.00    -0.050 A  
HETATM   34  C   UNL     1      -6.385   4.585  63.325  1.00  0.00    -0.026 A  
HETATM   35  C   UNL     1      -7.097   3.910  62.343  1.00  0.00    -0.036 A  
HETATM   36  C   UNL     1      -8.467   3.721  62.493  1.00  0.00    -0.081 A  
HETATM   37  C   UNL     1      -9.134   4.223  63.616  1.00  0.00    -0.142 A  
HETATM   38 CL   UNL     1     -10.835   3.937  63.701  1.00  0.00    -0.204 Cl 
ENDBRANCH  31  32
ENDBRANCH  26  31
ENDBRANCH  25  26
ENDBRANCH  24  25
ENDBRANCH  21  24
ENDBRANCH  18  20
ENDBRANCH  15  16
ENDBRANCH  14  15
ENDBRANCH   3  14
ENDBRANCH   2   3
TORSDOF 15
ENDMDL
MODEL      376
REMARK 921   NORMALIZED FREE ENERGY PREDICTED BY IDOCK:   -2.50 KCAL/MOL
REMARK 922        TOTAL FREE ENERGY PREDICTED BY IDOCK:   -7.36 KCAL/MOL
REMARK 923 INTER-LIGAND FREE ENERGY PREDICTED BY IDOCK:   -6.66 KCAL/MOL
REMARK 924 INTRA-LIGAND FREE ENERGY PREDICTED BY IDOCK:   -0.70 KCAL/MOL
REMARK 927      BINDING AFFINITY PREDICTED BY RF-SCORE:    0.00 PKD
ROOT
HETATM    1  C   UNL     1     -11.139  16.033  65.043  1.00  0.00    -0.345 C  
HETATM    2  C   UNL     1     -10.089  15.027  65.491  1.00  0.00    -0.369 C  
ENDROOT
BRANCH   2   3
HETATM    3  N   UNL     1     -10.099  14.670  67.010  1.00  0.00    -0.247 N  
BRANCH   3   4
HETATM    4  C   UNL     1     -11.563  14.619  67.535  1.00  0.00    -0.375 C  
HETATM    5  C   UNL     1     -11.825  15.360  68.822  1.00  0.00    -0.339 C  
ENDBRANCH   3   4
BRANCH   3   6
HETATM    6  C   UNL     1      -9.426  15.794  67.831  1.00  0.00    -0.212 C  
BRANCH   6   7
HETATM    7  C   UNL     1      -7.933  16.099  67.741  1.00  0.00    -0.155 A  
HETATM    8  C   UNL     1      -5.727  15.987  68.818  1.00  0.00    -0.108 A  
HETATM    9  C   UNL     1      -7.311  16.819  66.708  1.00  0.00    -0.275 A  
HETATM   10  C   UNL     1      -7.085  15.647  68.774  1.00  0.00    -0.127 A  
HETATM   11  C   UNL     1      -5.945  17.108  66.714  1.00  0.00    -0.235 A  
HETATM   12 CL   UNL     1      -7.706  14.674  70.064  1.00  0.00     0.213 Cl 
HETATM   13  C   UNL     1      -5.157  16.716  67.781  1.00  0.00    -0.134 A  
ENDBRANCH   6   7
ENDBRANCH   3   6
BRANCH   3  14
HETATM   14  C   UNL     1      -9.334  13.291  67.134  1.00  0.00    -0.240 C  
BRANCH  14  15
HETATM   15  C   UNL     1     -10.159  12.067  67.662  1.00  0.00    -0.197 C  
BRANCH  15  16
HETATM   16  N   UNL     1      -9.997  10.789  66.983  1.00  0.00    -0.191 N  
HETATM   17  H   UNL     1     -10.723  10.446  66.355  1.00  0.00     0.000 HD 
HETATM   18  C   UNL     1      -8.844  10.039  67.196  1.00  0.00    -0.135 C  
HETATM   19  O   UNL     1      -7.858  10.464  67.774  1.00  0.00    -0.100 OA 
BRANCH  18  20
HETATM   20  C   UNL     1      -8.850   8.638  66.536  1.00  0.00    -0.138 C  
HETATM   21  N   UNL     1      -9.681   7.692  67.139  1.00  0.00    -0.168 N  
HETATM   22  O   UNL     1      -8.171   8.408  65.548  1.00  0.00    -0.123 OA 
HETATM   23  H   UNL     1      -9.991   7.808  68.104  1.00  0.00     0.000 HD 
BRANCH  21  24
HETATM   24  C   UNL     1     -10.097   6.535  66.356  1.00  0.00     0.005 C  
BRANCH  24  25
HETATM   25  C   UNL     1     -10.297   5.225  67.165  1.00  0.00    -0.216 C  
BRANCH  25  26
HETATM   26  N   UNL     1      -9.064   4.775  67.986  1.00  0.00    -0.112 N  
BRANCH  26  27
HETATM   27  C   UNL     1      -9.377   3.459  68.757  1.00  0.00    -0.167 C  
HETATM   28  C   UNL     1      -9.478   2.209  67.894  1.00  0.00    -0.174 C  
ENDBRANCH  26  27
BRANCH  26  29
HETATM   29  C   UNL     1      -7.880   4.586  66.997  1.00  0.00    -0.098 C  
HETATM   30  C   UNL     1      -6.616   5.354  67.339  1.00  0.00    -0.053 C  
ENDBRANCH  26  29
BRANCH  26  31
HETATM   31  C   UNL     1      -8.694   5.869  69.056  1.00  0.00    -0.114 C  
BRANCH  31  32
HETATM   32  C   UNL     1      -9.641   6.114  70.219  1.00  0.00    -0.188 A  
HETATM   33  C   UNL     1     -10.958   6.564  69.987  1.00  0.00    -0.388 A  
HETATM   34  C   UNL     1     -11.804   6.922  71.042  1.00  0.00    -0.411 A  
HETATM   35  C   UNL     1     -11.347   6.859  72.352  1.00  0.00    -0.308 A  
HETATM   36  C   UNL     1     -10.060   6.401  72.611  1.00  0.00    -0.193 A  
HETATM   37  C   UNL     1      -9.217   6.023  71.560  1.00  0.00    -0.143 A  
HETATM   38 CL   UNL     1      -7.637   5.474  71.992  1.00  0.00    -0.098 Cl 
ENDBRANCH  31  32
ENDBRANCH  26  31
ENDBRANCH  25  26
ENDBRANCH  24  25
ENDBRANCH  21  24
ENDBRANCH  18  20
ENDBRANCH  15  16
ENDBRANCH  14  15
ENDBRANCH   3  14
ENDBRANCH   2   3
TORSDOF 15
ENDMDL
MODEL      377
REMARK 921   NORMALIZED FREE ENERGY PREDICTED BY IDOCK:   -2.50 KCAL/MOL
REMARK 922        TOTAL FREE ENERGY PREDICTED BY IDOCK:   -7.35 KCAL/MOL
REMARK 923 INTER-LIGAND FREE ENERGY PREDICTED BY IDOCK:   -5.32 KCAL/MOL
REMARK 924 INTRA-LIGAND FREE ENERGY PREDICTED BY IDOCK:   -2.03 KCAL/MOL
REMARK 927      BINDING AFFINITY PREDICTED BY RF-SCORE:    0.00 PKD
ROOT
HETATM    1  C   UNL     1      -6.560   9.730  63.632  1.00  0.00    -0.119 C  
HETATM    2  C   UNL     1      -7.445  10.038  64.831  1.00  0.00    -0.140 C  
ENDROOT
BRANCH   2   3
HETATM    3  N   UNL     1      -8.083   8.801  65.535  1.00  0.00    -0.109 N  
BRANCH   3   4
HETATM    4  C   UNL     1      -9.595   9.060  65.798  1.00  0.00    -0.217 C  
HETATM    5  C   UNL     1     -10.158   8.441  67.053  1.00  0.00    -0.354 C  
ENDBRANCH   3   4
BRANCH   3   6
HETATM    6  C   UNL     1      -7.467   8.606  66.941  1.00  0.00    -0.083 C  
BRANCH   6   7
HETATM    7  C   UNL     1      -6.922   9.765  67.769  1.00  0.00    -0.086 A  
HETATM    8  C   UNL     1      -6.786  10.857  69.967  1.00  0.00    -0.128 A  
HETATM    9  C   UNL     1      -6.203  10.860  67.262  1.00  0.00    -0.064 A  
HETATM   10  C   UNL     1      -7.156   9.773  69.161  1.00  0.00    -0.067 A  
HETATM   11  C   UNL     1      -5.778  11.916  68.071  1.00  0.00    -0.048 A  
HETATM   12 CL   UNL     1      -7.951   8.443  69.930  1.00  0.00    -0.104 Cl 
HETATM   13  C   UNL     1      -6.091  11.929  69.419  1.00  0.00    -0.096 A  
ENDBRANCH   6   7
ENDBRANCH   3   6
BRANCH   3  14
HETATM   14  C   UNL     1      -7.808   7.571  64.580  1.00  0.00    -0.130 C  
BRANCH  14  15
HETATM   15  C   UNL     1      -8.489   6.211  64.961  1.00  0.00    -0.069 C  
BRANCH  15  16
HETATM   16  N   UNL     1      -7.932   5.456  66.074  1.00  0.00    -0.103 N  
HETATM   17  H   UNL     1      -7.123   5.812  66.582  1.00  0.00     0.000 HD 
HETATM   18  C   UNL     1      -8.512   4.245  66.442  1.00  0.00    -0.112 C  
HETATM   19  O   UNL     1      -9.584   3.852  66.015  1.00  0.00    -0.178 OA 
BRANCH  18  20
HETATM   20  C   UNL     1      -7.748   3.467  67.542  1.00  0.00    -0.077 C  
HETATM   21  N   UNL     1      -7.336   4.226  68.639  1.00  0.00    -0.056 N  
HETATM   22  O   UNL     1      -7.544   2.269  67.435  1.00  0.00    -0.059 OA 
HETATM   23  H   UNL     1      -7.248   5.240  68.569  1.00  0.00     0.000 HD 
BRANCH  21  24
HETATM   24  C   UNL     1      -7.034   3.535  69.886  1.00  0.00    -0.041 C  
BRANCH  24  25
HETATM   25  C   UNL     1      -8.271   3.113  70.725  1.00  0.00    -0.053 C  
BRANCH  25  26
HETATM   26  N   UNL     1      -8.542   3.993  71.970  1.00  0.00    -0.103 N  
BRANCH  26  27
HETATM   27  C   UNL     1      -8.162   3.224  73.270  1.00  0.00    -0.074 C  
HETATM   28  C   UNL     1      -9.296   3.037  74.269  1.00  0.00    -0.101 C  
ENDBRANCH  26  27
BRANCH  26  29
HETATM   29  C   UNL     1      -7.710   5.296  71.818  1.00  0.00    -0.109 C  
HETATM   30  C   UNL     1      -6.988   5.759  73.071  1.00  0.00    -0.080 C  
ENDBRANCH  26  29
BRANCH  26  31
HETATM   31  C   UNL     1     -10.073   4.346  72.065  1.00  0.00    -0.186 C  
BRANCH  31  32
HETATM   32  C   UNL     1     -10.511   5.789  71.880  1.00  0.00    -0.272 A  
HETATM   33  C   UNL     1     -10.718   6.623  72.998  1.00  0.00    -0.299 A  
HETATM   34  C   UNL     1     -11.247   7.911  72.862  1.00  0.00    -0.429 A  
HETATM   35  C   UNL     1     -11.599   8.388  71.606  1.00  0.00    -0.348 A  
HETATM   36  C   UNL     1     -11.387   7.595  70.484  1.00  0.00    -0.266 A  
HETATM   37  C   UNL     1     -10.841   6.313  70.614  1.00  0.00    -0.280 A  
HETATM   38 CL   UNL     1     -10.624   5.411  69.157  1.00  0.00    -0.283 Cl 
ENDBRANCH  31  32
ENDBRANCH  26  31
ENDBRANCH  25  26
ENDBRANCH  24  25
ENDBRANCH  21  24
ENDBRANCH  18  20
ENDBRANCH  15  16
ENDBRANCH  14  15
ENDBRANCH   3  14
ENDBRANCH   2   3
TORSDOF 15
ENDMDL
MODEL      378
REMARK 921   NORMALIZED FREE ENERGY PREDICTED BY IDOCK:   -2.47 KCAL/MOL
REMARK 922        TOTAL FREE ENERGY PREDICTED BY IDOCK:   -7.30 KCAL/MOL
REMARK 923 INTER-LIGAND FREE ENERGY PREDICTED BY IDOCK:   -5.72 KCAL/MOL
REMARK 924 INTRA-LIGAND FREE ENERGY PREDICTED BY IDOCK:   -1.58 KCAL/MOL
REMARK 927      BINDING AFFINITY PREDICTED BY RF-SCORE:    0.00 PKD
ROOT
HETATM    1  C   UNL     1      -6.665  14.483  70.462  1.00  0.00     0.124 C  
HETATM    2  C   UNL     1      -6.795  14.677  68.959  1.00  0.00    -0.111 C  
ENDROOT
BRANCH   2   3
HETATM    3  N   UNL     1      -8.251  14.849  68.424  1.00  0.00    -0.144 N  
BRANCH   3   4
HETATM    4  C   UNL     1      -8.221  15.387  66.963  1.00  0.00    -0.236 C  
HETATM    5  C   UNL     1      -8.098  16.883  66.817  1.00  0.00    -0.276 C  
ENDBRANCH   3   4
BRANCH   3   6
HETATM    6  C   UNL     1      -8.995  15.939  69.229  1.00  0.00    -0.251 C  
BRANCH   6   7
HETATM    7  C   UNL     1     -10.293  15.664  69.983  1.00  0.00    -0.309 A  
HETATM    8  C   UNL     1     -12.747  15.547  69.910  1.00  0.00    -0.069 A  
HETATM    9  C   UNL     1     -10.395  15.407  71.360  1.00  0.00     0.855 A  
HETATM   10  C   UNL     1     -11.509  15.677  69.268  1.00  0.00    -0.362 A  
HETATM   11  C   UNL     1     -11.622  15.215  71.997  1.00  0.00    -0.496 A  
HETATM   12 CL   UNL     1     -11.521  15.895  67.551  1.00  0.00    -0.097 Cl 
HETATM   13  C   UNL     1     -12.800  15.311  71.279  1.00  0.00    -0.494 A  
ENDBRANCH   6   7
ENDBRANCH   3   6
BRANCH   3  14
HETATM   14  C   UNL     1      -8.931  13.427  68.560  1.00  0.00    -0.071 C  
BRANCH  14  15
HETATM   15  C   UNL     1      -9.103  12.593  67.244  1.00  0.00    -0.191 C  
BRANCH  15  16
HETATM   16  N   UNL     1      -9.549  11.213  67.362  1.00  0.00    -0.168 N  
HETATM   17  H   UNL     1     -10.241  10.956  68.067  1.00  0.00     0.000 HD 
HETATM   18  C   UNL     1      -9.028  10.245  66.508  1.00  0.00    -0.144 C  
HETATM   19  O   UNL     1      -8.352  10.504  65.527  1.00  0.00    -0.163 OA 
BRANCH  18  20
HETATM   20  C   UNL     1      -9.469   8.794  66.824  1.00  0.00    -0.191 C  
HETATM   21  N   UNL     1      -9.353   7.888  65.769  1.00  0.00    -0.411 N  
HETATM   22  O   UNL     1      -9.877   8.491  67.933  1.00  0.00    -0.157 OA 
HETATM   23  H   UNL     1      -9.304   8.213  64.803  1.00  0.00     0.000 HD 
BRANCH  21  24
HETATM   24  C   UNL     1      -9.302   6.464  66.080  1.00  0.00    -0.017 C  
BRANCH  24  25
HETATM   25  C   UNL     1      -7.909   5.930  66.512  1.00  0.00    -0.101 C  
BRANCH  25  26
HETATM   26  N   UNL     1      -7.915   5.069  67.798  1.00  0.00    -0.094 N  
BRANCH  26  27
HETATM   27  C   UNL     1      -6.978   3.837  67.629  1.00  0.00    -0.055 C  
HETATM   28  C   UNL     1      -7.586   2.655  66.886  1.00  0.00    -0.070 C  
ENDBRANCH  26  27
BRANCH  26  29
HETATM   29  C   UNL     1      -7.456   5.973  68.975  1.00  0.00    -0.086 C  
HETATM   30  C   UNL     1      -6.083   6.601  68.818  1.00  0.00    -0.026 C  
ENDBRANCH  26  29
BRANCH  26  31
HETATM   31  C   UNL     1      -9.363   4.521  68.080  1.00  0.00    -0.140 C  
BRANCH  31  32
HETATM   32  C   UNL     1     -10.007   4.794  69.429  1.00  0.00    -0.269 A  
HETATM   33  C   UNL     1     -10.980   5.807  69.566  1.00  0.00    -0.374 A  
HETATM   34  C   UNL     1     -11.490   6.166  70.818  1.00  0.00    -0.321 A  
HETATM   35  C   UNL     1     -11.026   5.536  71.964  1.00  0.00    -0.276 A  
HETATM   36  C   UNL     1     -10.081   4.521  71.857  1.00  0.00    -0.258 A  
HETATM   37  C   UNL     1      -9.582   4.145  70.605  1.00  0.00    -0.194 A  
HETATM   38 CL   UNL     1      -8.409   2.877  70.586  1.00  0.00    -0.075 Cl 
ENDBRANCH  31  32
ENDBRANCH  26  31
ENDBRANCH  25  26
ENDBRANCH  24  25
ENDBRANCH  21  24
ENDBRANCH  18  20
ENDBRANCH  15  16
ENDBRANCH  14  15
ENDBRANCH   3  14
ENDBRANCH   2   3
TORSDOF 15
ENDMDL
MODEL      379
REMARK 921   NORMALIZED FREE ENERGY PREDICTED BY IDOCK:   -2.42 KCAL/MOL
REMARK 922        TOTAL FREE ENERGY PREDICTED BY IDOCK:   -7.21 KCAL/MOL
REMARK 923 INTER-LIGAND FREE ENERGY PREDICTED BY IDOCK:   -7.20 KCAL/MOL
REMARK 924 INTRA-LIGAND FREE ENERGY PREDICTED BY IDOCK:   -0.01 KCAL/MOL
REMARK 927      BINDING AFFINITY PREDICTED BY RF-SCORE:    0.00 PKD
ROOT
HETATM    1  C   UNL     1      -6.243   8.846  68.970  1.00  0.00    -0.044 C  
HETATM    2  C   UNL     1      -7.593   8.792  68.270  1.00  0.00    -0.096 C  
ENDROOT
BRANCH   2   3
HETATM    3  N   UNL     1      -8.398  10.127  68.250  1.00  0.00    -0.113 N  
BRANCH   3   4
HETATM    4  C   UNL     1      -7.537  11.278  68.849  1.00  0.00    -0.126 C  
HETATM    5  C   UNL     1      -6.553  11.921  67.906  1.00  0.00    -0.075 C  
ENDBRANCH   3   4
BRANCH   3   6
HETATM    6  C   UNL     1      -9.627  10.029  69.184  1.00  0.00    -0.210 C  
BRANCH   6   7
HETATM    7  C   UNL     1      -9.778   8.931  70.233  1.00  0.00    -0.212 A  
HETATM    8  C   UNL     1     -10.652   6.703  70.789  1.00  0.00    -0.265 A  
HETATM    9  C   UNL     1      -9.379   9.029  71.577  1.00  0.00    -0.294 A  
HETATM   10  C   UNL     1     -10.377   7.711  69.856  1.00  0.00    -0.225 A  
HETATM   11  C   UNL     1      -9.596   8.004  72.499  1.00  0.00    -0.306 A  
HETATM   12 CL   UNL     1     -10.835   7.423  68.213  1.00  0.00    -0.138 Cl 
HETATM   13  C   UNL     1     -10.255   6.851  72.113  1.00  0.00    -0.213 A  
ENDBRANCH   6   7
ENDBRANCH   3   6
BRANCH   3  14
HETATM   14  C   UNL     1      -8.806  10.363  66.739  1.00  0.00    -0.130 C  
BRANCH  14  15
HETATM   15  C   UNL     1      -9.847  11.500  66.455  1.00  0.00    -0.205 C  
BRANCH  15  16
HETATM   16  N   UNL     1      -9.768  12.715  67.254  1.00  0.00    -0.204 N  
HETATM   17  H   UNL     1      -8.941  12.903  67.820  1.00  0.00     0.000 HD 
HETATM   18  C   UNL     1     -10.827  13.618  67.239  1.00  0.00    -0.284 C  
HETATM   19  O   UNL     1     -11.753  13.560  66.449  1.00  0.00    -0.335 OA 
BRANCH  18  20
HETATM   20  C   UNL     1     -10.689  14.796  68.236  1.00  0.00    -0.242 C  
HETATM   21  N   UNL     1      -9.469  14.873  68.910  1.00  0.00    -0.209 N  
HETATM   22  O   UNL     1     -11.599  15.593  68.392  1.00  0.00    -0.365 OA 
HETATM   23  H   UNL     1      -8.864  14.056  68.991  1.00  0.00     0.000 HD 
BRANCH  21  24
HETATM   24  C   UNL     1      -9.080  16.151  69.494  1.00  0.00    -0.029 C  
BRANCH  24  25
HETATM   25  C   UNL     1      -8.878  17.309  68.480  1.00  0.00    -0.269 C  
BRANCH  25  26
HETATM   26  N   UNL     1      -7.454  17.403  67.879  1.00  0.00    -0.187 N  
BRANCH  26  27
HETATM   27  C   UNL     1      -6.780  18.745  68.290  1.00  0.00    -0.232 C  
HETATM   28  C   UNL     1      -7.146  19.258  69.677  1.00  0.00    -0.120 C  
ENDBRANCH  26  27
BRANCH  26  29
HETATM   29  C   UNL     1      -6.643  16.181  68.390  1.00  0.00    -0.127 C  
HETATM   30  C   UNL     1      -5.143  16.390  68.488  1.00  0.00    -0.105 C  
ENDBRANCH  26  29
BRANCH  26  31
HETATM   31  C   UNL     1      -7.524  17.377  66.306  1.00  0.00    -0.319 C  
BRANCH  31  32
HETATM   32  C   UNL     1      -6.956  18.548  65.522  1.00  0.00    -0.187 A  
HETATM   33  C   UNL     1      -5.781  18.394  64.757  1.00  0.00    -0.127 A  
HETATM   34  C   UNL     1      -5.166  19.485  64.134  1.00  0.00    -0.234 A  
HETATM   35  C   UNL     1      -5.700  20.759  64.277  1.00  0.00    -0.291 A  
HETATM   36  C   UNL     1      -6.869  20.937  65.010  1.00  0.00    -0.008 A  
HETATM   37  C   UNL     1      -7.498  19.846  65.619  1.00  0.00    -0.268 A  
HETATM   38 CL   UNL     1      -8.940  20.179  66.509  1.00  0.00    -0.405 Cl 
ENDBRANCH  31  32
ENDBRANCH  26  31
ENDBRANCH  25  26
ENDBRANCH  24  25
ENDBRANCH  21  24
ENDBRANCH  18  20
ENDBRANCH  15  16
ENDBRANCH  14  15
ENDBRANCH   3  14
ENDBRANCH   2   3
TORSDOF 15
ENDMDL
MODEL      380
REMARK 921   NORMALIZED FREE ENERGY PREDICTED BY IDOCK:   -2.42 KCAL/MOL
REMARK 922        TOTAL FREE ENERGY PREDICTED BY IDOCK:   -7.20 KCAL/MOL
REMARK 923 INTER-LIGAND FREE ENERGY PREDICTED BY IDOCK:   -8.42 KCAL/MOL
REMARK 924 INTRA-LIGAND FREE ENERGY PREDICTED BY IDOCK:    1.22 KCAL/MOL
REMARK 927      BINDING AFFINITY PREDICTED BY RF-SCORE:    0.00 PKD
ROOT
HETATM    1  C   UNL     1      -9.508   7.972  73.054  1.00  0.00    -0.345 C  
HETATM    2  C   UNL     1      -8.889   7.779  71.678  1.00  0.00    -0.118 C  
ENDROOT
BRANCH   2   3
HETATM    3  N   UNL     1      -9.766   7.008  70.644  1.00  0.00    -0.172 N  
BRANCH   3   4
HETATM    4  C   UNL     1     -10.793   6.104  71.387  1.00  0.00    -0.265 C  
HETATM    5  C   UNL     1     -10.248   4.818  71.952  1.00  0.00    -0.261 C  
ENDBRANCH   3   4
BRANCH   3   6
HETATM    6  C   UNL     1      -8.896   6.023  69.828  1.00  0.00    -0.134 C  
BRANCH   6   7
HETATM    7  C   UNL     1      -9.369   5.394  68.521  1.00  0.00    -0.144 A  
HETATM    8  C   UNL     1      -9.507   3.378  67.123  1.00  0.00    -0.199 A  
HETATM    9  C   UNL     1      -9.958   6.088  67.450  1.00  0.00    -0.165 A  
HETATM   10  C   UNL     1      -9.202   4.005  68.338  1.00  0.00    -0.150 A  
HETATM   11  C   UNL     1     -10.321   5.457  66.259  1.00  0.00    -0.251 A  
HETATM   12 CL   UNL     1      -8.571   3.016  69.610  1.00  0.00    -0.103 Cl 
HETATM   13  C   UNL     1     -10.072   4.107  66.084  1.00  0.00    -0.145 A  
ENDBRANCH   6   7
ENDBRANCH   3   6
BRANCH   3  14
HETATM   14  C   UNL     1     -10.438   8.116  69.736  1.00  0.00    -0.227 C  
BRANCH  14  15
HETATM   15  C   UNL     1     -11.016   9.377  70.466  1.00  0.00    -0.274 C  
BRANCH  15  16
HETATM   16  N   UNL     1     -10.634  10.690  69.968  1.00  0.00    -0.463 N  
HETATM   17  H   UNL     1     -11.080  11.529  70.339  1.00  0.00     0.000 HD 
HETATM   18  C   UNL     1      -9.658  10.794  68.982  1.00  0.00    -0.180 C  
HETATM   19  O   UNL     1      -8.950   9.865  68.630  1.00  0.00    -0.122 OA 
BRANCH  18  20
HETATM   20  C   UNL     1      -9.441  12.226  68.431  1.00  0.00    -0.175 C  
HETATM   21  N   UNL     1      -8.112  12.646  68.356  1.00  0.00    -0.206 N  
HETATM   22  O   UNL     1     -10.387  12.913  68.082  1.00  0.00    -0.226 OA 
HETATM   23  H   UNL     1      -7.388  12.194  68.917  1.00  0.00     0.000 HD 
BRANCH  21  24
HETATM   24  C   UNL     1      -7.781  13.746  67.459  1.00  0.00    -0.176 C  
BRANCH  24  25
HETATM   25  C   UNL     1      -8.959  14.271  66.593  1.00  0.00    -0.186 C  
BRANCH  25  26
HETATM   26  N   UNL     1      -9.324  15.757  66.826  1.00  0.00    -0.228 N  
BRANCH  26  27
HETATM   27  C   UNL     1     -10.581  16.144  65.993  1.00  0.00    -0.295 C  
HETATM   28  C   UNL     1     -11.266  14.988  65.277  1.00  0.00    -0.368 C  
ENDBRANCH  26  27
BRANCH  26  29
HETATM   29  C   UNL     1      -9.571  15.951  68.348  1.00  0.00    -0.208 C  
HETATM   30  C   UNL     1     -10.982  16.356  68.733  1.00  0.00    -0.344 C  
ENDBRANCH  26  29
BRANCH  26  31
HETATM   31  C   UNL     1      -8.145  16.688  66.355  1.00  0.00    -0.324 C  
BRANCH  31  32
HETATM   32  C   UNL     1      -7.556  17.689  67.335  1.00  0.00    -0.213 A  
HETATM   33  C   UNL     1      -6.553  17.294  68.246  1.00  0.00    -0.171 A  
HETATM   34  C   UNL     1      -6.090  18.159  69.243  1.00  0.00    -0.245 A  
HETATM   35  C   UNL     1      -6.633  19.431  69.367  1.00  0.00    -0.364 A  
HETATM   36  C   UNL     1      -7.610  19.853  68.471  1.00  0.00    -0.286 A  
HETATM   37  C   UNL     1      -8.062  18.998  67.460  1.00  0.00    -0.267 A  
HETATM   38 CL   UNL     1      -9.280  19.620  66.405  1.00  0.00    -0.419 Cl 
ENDBRANCH  31  32
ENDBRANCH  26  31
ENDBRANCH  25  26
ENDBRANCH  24  25
ENDBRANCH  21  24
ENDBRANCH  18  20
ENDBRANCH  15  16
ENDBRANCH  14  15
ENDBRANCH   3  14
ENDBRANCH   2   3
TORSDOF 15
ENDMDL
MODEL      381
REMARK 921   NORMALIZED FREE ENERGY PREDICTED BY IDOCK:   -2.40 KCAL/MOL
REMARK 922        TOTAL FREE ENERGY PREDICTED BY IDOCK:   -7.17 KCAL/MOL
REMARK 923 INTER-LIGAND FREE ENERGY PREDICTED BY IDOCK:   -6.53 KCAL/MOL
REMARK 924 INTRA-LIGAND FREE ENERGY PREDICTED BY IDOCK:   -0.64 KCAL/MOL
REMARK 927      BINDING AFFINITY PREDICTED BY RF-SCORE:    0.00 PKD
ROOT
HETATM    1  C   UNL     1     -14.360   8.872  72.338  1.00  0.00    -0.385 C  
HETATM    2  C   UNL     1     -13.729   8.344  71.058  1.00  0.00     0.131 C  
ENDROOT
BRANCH   2   3
HETATM    3  N   UNL     1     -12.180   8.164  71.092  1.00  0.00    -0.278 N  
BRANCH   3   4
HETATM    4  C   UNL     1     -11.651   8.375  72.541  1.00  0.00    -0.356 C  
HETATM    5  C   UNL     1     -10.153   8.338  72.704  1.00  0.00    -0.365 C  
ENDBRANCH   3   4
BRANCH   3   6
HETATM    6  C   UNL     1     -11.491   9.269  70.257  1.00  0.00    -0.162 C  
BRANCH   6   7
HETATM    7  C   UNL     1     -11.863  10.744  70.378  1.00  0.00    -0.450 A  
HETATM    8  C   UNL     1     -11.684  13.009  69.441  1.00  0.00    -0.386 A  
HETATM    9  C   UNL     1     -12.558  11.323  71.453  1.00  0.00    -0.456 A  
HETATM   10  C   UNL     1     -11.479  11.627  69.346  1.00  0.00    -0.307 A  
HETATM   11  C   UNL     1     -12.820  12.693  71.524  1.00  0.00    -0.368 A  
HETATM   12 CL   UNL     1     -10.695  11.033  67.923  1.00  0.00    -0.241 Cl 
HETATM   13  C   UNL     1     -12.361  13.541  70.532  1.00  0.00    -0.412 A  
ENDBRANCH   6   7
ENDBRANCH   3   6
BRANCH   3  14
HETATM   14  C   UNL     1     -11.901   6.715  70.521  1.00  0.00    -0.370 C  
BRANCH  14  15
HETATM   15  C   UNL     1     -10.541   6.498  69.772  1.00  0.00    -0.235 C  
BRANCH  15  16
HETATM   16  N   UNL     1     -10.555   5.717  68.543  1.00  0.00    -0.208 N  
HETATM   17  H   UNL     1     -10.572   4.698  68.583  1.00  0.00     0.000 HD 
HETATM   18  C   UNL     1     -10.547   6.369  67.314  1.00  0.00    -0.314 C  
HETATM   19  O   UNL     1     -10.720   7.569  67.184  1.00  0.00    -0.326 OA 
BRANCH  18  20
HETATM   20  C   UNL     1     -10.418   5.435  66.084  1.00  0.00    -0.154 C  
HETATM   21  N   UNL     1      -9.175   5.448  65.448  1.00  0.00    -0.315 N  
HETATM   22  O   UNL     1     -11.352   4.738  65.726  1.00  0.00     0.085 OA 
HETATM   23  H   UNL     1      -8.534   6.232  65.569  1.00  0.00     0.000 HD 
BRANCH  21  24
HETATM   24  C   UNL     1      -8.816   4.314  64.605  1.00  0.00    -0.141 C  
BRANCH  24  25
HETATM   25  C   UNL     1      -7.292   4.081  64.423  1.00  0.00    -0.067 C  
BRANCH  25  26
HETATM   26  N   UNL     1      -6.567   3.519  65.671  1.00  0.00    -0.036 N  
BRANCH  26  27
HETATM   27  C   UNL     1      -6.042   2.080  65.389  1.00  0.00    -0.022 C  
HETATM   28  C   UNL     1      -5.708   1.784  63.934  1.00  0.00    -0.009 C  
ENDBRANCH  26  27
BRANCH  26  29
HETATM   29  C   UNL     1      -5.406   4.489  66.020  1.00  0.00    -0.009 C  
HETATM   30  C   UNL     1      -5.457   5.842  65.333  1.00  0.00    -0.013 C  
ENDBRANCH  26  29
BRANCH  26  31
HETATM   31  C   UNL     1      -7.566   3.424  66.883  1.00  0.00    -0.076 C  
BRANCH  31  32
HETATM   32  C   UNL     1      -7.010   3.370  68.296  1.00  0.00    -0.050 A  
HETATM   33  C   UNL     1      -6.675   2.134  68.887  1.00  0.00    -0.033 A  
HETATM   34  C   UNL     1      -6.287   2.046  70.229  1.00  0.00    -0.024 A  
HETATM   35  C   UNL     1      -6.242   3.189  71.016  1.00  0.00    -0.019 A  
HETATM   36  C   UNL     1      -6.548   4.424  70.453  1.00  0.00    -0.032 A  
HETATM   37  C   UNL     1      -6.919   4.519  69.108  1.00  0.00    -0.051 A  
HETATM   38 CL   UNL     1      -7.282   6.099  68.513  1.00  0.00    -0.082 Cl 
ENDBRANCH  31  32
ENDBRANCH  26  31
ENDBRANCH  25  26
ENDBRANCH  24  25
ENDBRANCH  21  24
ENDBRANCH  18  20
ENDBRANCH  15  16
ENDBRANCH  14  15
ENDBRANCH   3  14
ENDBRANCH   2   3
TORSDOF 15
ENDMDL
MODEL      382
REMARK 921   NORMALIZED FREE ENERGY PREDICTED BY IDOCK:   -2.38 KCAL/MOL
REMARK 922        TOTAL FREE ENERGY PREDICTED BY IDOCK:   -7.12 KCAL/MOL
REMARK 923 INTER-LIGAND FREE ENERGY PREDICTED BY IDOCK:   -6.81 KCAL/MOL
REMARK 924 INTRA-LIGAND FREE ENERGY PREDICTED BY IDOCK:   -0.31 KCAL/MOL
REMARK 927      BINDING AFFINITY PREDICTED BY RF-SCORE:    0.00 PKD
ROOT
HETATM    1  C   UNL     1     -11.729  10.730  70.673  1.00  0.00    -0.442 C  
HETATM    2  C   UNL     1     -11.343   9.293  70.352  1.00  0.00    -0.242 C  
ENDROOT
BRANCH   2   3
HETATM    3  N   UNL     1     -11.408   8.293  71.547  1.00  0.00    -0.257 N  
BRANCH   3   4
HETATM    4  C   UNL     1     -12.443   8.787  72.600  1.00  0.00    -0.200 C  
HETATM    5  C   UNL     1     -13.893   8.615  72.225  1.00  0.00    -0.459 C  
ENDBRANCH   3   4
BRANCH   3   6
HETATM    6  C   UNL     1     -10.059   8.269  72.303  1.00  0.00    -0.300 C  
BRANCH   6   7
HETATM    7  C   UNL     1      -8.713   8.327  71.587  1.00  0.00    -0.213 A  
HETATM    8  C   UNL     1      -6.612   7.180  71.028  1.00  0.00    -0.044 A  
HETATM    9  C   UNL     1      -8.181   9.457  70.944  1.00  0.00    -0.103 A  
HETATM   10  C   UNL     1      -7.906   7.170  71.566  1.00  0.00    -0.093 A  
HETATM   11  C   UNL     1      -6.916   9.456  70.353  1.00  0.00    -0.100 A  
HETATM   12 CL   UNL     1      -8.476   5.683  72.243  1.00  0.00    -0.119 Cl 
HETATM   13  C   UNL     1      -6.120   8.327  70.417  1.00  0.00    -0.032 A  
ENDBRANCH   6   7
ENDBRANCH   3   6
BRANCH   3  14
HETATM   14  C   UNL     1     -11.770   6.888  70.915  1.00  0.00    -0.361 C  
BRANCH  14  15
HETATM   15  C   UNL     1     -11.757   6.790  69.350  1.00  0.00     0.042 C  
BRANCH  15  16
HETATM   16  N   UNL     1     -10.675   7.448  68.633  1.00  0.00    -0.362 N  
HETATM   17  H   UNL     1     -10.011   8.037  69.135  1.00  0.00     0.000 HD 
HETATM   18  C   UNL     1     -10.551   7.268  67.258  1.00  0.00    -0.325 C  
HETATM   19  O   UNL     1     -11.180   6.436  66.626  1.00  0.00    -0.245 OA 
BRANCH  18  20
HETATM   20  C   UNL     1      -9.453   8.129  66.586  1.00  0.00    -0.213 C  
HETATM   21  N   UNL     1      -9.813   8.725  65.376  1.00  0.00    -0.308 N  
HETATM   22  O   UNL     1      -8.359   8.269  67.109  1.00  0.00    -0.120 OA 
HETATM   23  H   UNL     1     -10.591   8.361  64.826  1.00  0.00     0.000 HD 
BRANCH  21  24
HETATM   24  C   UNL     1      -9.050   9.879  64.917  1.00  0.00    -0.224 C  
BRANCH  24  25
HETATM   25  C   UNL     1      -8.664  10.900  66.022  1.00  0.00    -0.186 C  
BRANCH  25  26
HETATM   26  N   UNL     1      -9.731  11.986  66.302  1.00  0.00    -0.230 N  
BRANCH  26  27
HETATM   27  C   UNL     1      -9.552  13.186  65.326  1.00  0.00     0.158 C  
HETATM   28  C   UNL     1     -10.662  13.357  64.297  1.00  0.00    -0.374 C  
ENDBRANCH  26  27
BRANCH  26  29
HETATM   29  C   UNL     1     -11.129  11.328  66.142  1.00  0.00    -0.143 C  
HETATM   30  C   UNL     1     -12.120  11.622  67.255  1.00  0.00     0.332 C  
ENDBRANCH  26  29
BRANCH  26  31
HETATM   31  C   UNL     1      -9.569  12.544  67.765  1.00  0.00    -0.203 C  
BRANCH  31  32
HETATM   32  C   UNL     1      -9.010  13.943  67.964  1.00  0.00    -0.184 A  
HETATM   33  C   UNL     1      -7.618  14.152  68.050  1.00  0.00    -0.142 A  
HETATM   34  C   UNL     1      -7.085  15.407  68.364  1.00  0.00    -0.111 A  
HETATM   35  C   UNL     1      -7.931  16.478  68.618  1.00  0.00    -0.232 A  
HETATM   36  C   UNL     1      -9.308  16.305  68.522  1.00  0.00    -0.213 A  
HETATM   37  C   UNL     1      -9.845  15.056  68.189  1.00  0.00    -0.216 A  
HETATM   38 CL   UNL     1     -11.566  14.951  68.101  1.00  0.00    -0.346 Cl 
ENDBRANCH  31  32
ENDBRANCH  26  31
ENDBRANCH  25  26
ENDBRANCH  24  25
ENDBRANCH  21  24
ENDBRANCH  18  20
ENDBRANCH  15  16
ENDBRANCH  14  15
ENDBRANCH   3  14
ENDBRANCH   2   3
TORSDOF 15
ENDMDL
MODEL      383
REMARK 921   NORMALIZED FREE ENERGY PREDICTED BY IDOCK:   -2.36 KCAL/MOL
REMARK 922        TOTAL FREE ENERGY PREDICTED BY IDOCK:   -7.08 KCAL/MOL
REMARK 923 INTER-LIGAND FREE ENERGY PREDICTED BY IDOCK:   -6.58 KCAL/MOL
REMARK 924 INTRA-LIGAND FREE ENERGY PREDICTED BY IDOCK:   -0.50 KCAL/MOL
REMARK 927      BINDING AFFINITY PREDICTED BY RF-SCORE:    0.00 PKD
ROOT
HETATM    1  C   UNL     1      -7.098   8.075  69.169  1.00  0.00    -0.068 C  
HETATM    2  C   UNL     1      -8.276   7.144  68.925  1.00  0.00    -0.125 C  
ENDROOT
BRANCH   2   3
HETATM    3  N   UNL     1      -8.056   5.655  69.335  1.00  0.00    -0.098 N  
BRANCH   3   4
HETATM    4  C   UNL     1      -6.904   5.553  70.377  1.00  0.00    -0.052 C  
HETATM    5  C   UNL     1      -6.951   4.356  71.292  1.00  0.00    -0.036 C  
ENDBRANCH   3   4
BRANCH   3   6
HETATM    6  C   UNL     1      -7.563   4.830  68.122  1.00  0.00    -0.081 C  
BRANCH   6   7
HETATM    7  C   UNL     1      -8.263   4.860  66.767  1.00  0.00    -0.107 A  
HETATM    8  C   UNL     1      -8.324   5.775  64.486  1.00  0.00    -0.091 A  
HETATM    9  C   UNL     1      -9.469   4.209  66.459  1.00  0.00    -0.201 A  
HETATM   10  C   UNL     1      -7.683   5.608  65.720  1.00  0.00    -0.088 A  
HETATM   11  C   UNL     1     -10.083   4.322  65.210  1.00  0.00    -0.231 A  
HETATM   12 CL   UNL     1      -6.153   6.388  65.936  1.00  0.00    -0.032 Cl 
HETATM   13  C   UNL     1      -9.526   5.125  64.232  1.00  0.00     0.389 A  
ENDBRANCH   6   7
ENDBRANCH   3   6
BRANCH   3  14
HETATM   14  C   UNL     1      -9.452   5.147  69.882  1.00  0.00    -0.160 C  
BRANCH  14  15
HETATM   15  C   UNL     1      -9.991   5.828  71.187  1.00  0.00    -0.192 C  
BRANCH  15  16
HETATM   16  N   UNL     1     -10.975   6.891  71.047  1.00  0.00    -0.244 N  
HETATM   17  H   UNL     1     -11.457   7.031  70.159  1.00  0.00     0.000 HD 
HETATM   18  C   UNL     1     -11.255   7.717  72.132  1.00  0.00    -0.297 C  
HETATM   19  O   UNL     1     -10.868   7.496  73.267  1.00  0.00    -0.386 OA 
BRANCH  18  20
HETATM   20  C   UNL     1     -12.208   8.898  71.821  1.00  0.00    -0.359 C  
HETATM   21  N   UNL     1     -11.585  10.118  71.551  1.00  0.00    -0.254 N  
HETATM   22  O   UNL     1     -13.417   8.740  71.808  1.00  0.00    -0.354 OA 
HETATM   23  H   UNL     1     -10.628  10.295  71.857  1.00  0.00     0.000 HD 
BRANCH  21  24
HETATM   24  C   UNL     1     -12.335  11.133  70.822  1.00  0.00    -0.406 C  
BRANCH  24  25
HETATM   25  C   UNL     1     -12.941  12.264  71.697  1.00  0.00    -0.311 C  
BRANCH  25  26
HETATM   26  N   UNL     1     -12.873  13.678  71.068  1.00  0.00    -0.312 N  
BRANCH  26  27
HETATM   27  C   UNL     1     -14.279  14.348  71.089  1.00  0.00    -0.030 C  
HETATM   28  C   UNL     1     -14.332  15.725  71.736  1.00  0.00    -0.167 C  
ENDBRANCH  26  27
BRANCH  26  29
HETATM   29  C   UNL     1     -11.838  14.506  71.878  1.00  0.00    -0.079 C  
HETATM   30  C   UNL     1     -12.177  14.722  73.342  1.00  0.00    -0.394 C  
ENDBRANCH  26  29
BRANCH  26  31
HETATM   31  C   UNL     1     -12.421  13.583  69.563  1.00  0.00    -0.005 C  
BRANCH  31  32
HETATM   32  C   UNL     1     -11.411  14.586  69.031  1.00  0.00    -0.318 A  
HETATM   33  C   UNL     1     -11.746  15.953  68.928  1.00  0.00    -0.376 A  
HETATM   34  C   UNL     1     -10.884  16.872  68.320  1.00  0.00    -0.357 A  
HETATM   35  C   UNL     1      -9.677  16.444  67.784  1.00  0.00    -0.235 A  
HETATM   36  C   UNL     1      -9.314  15.106  67.889  1.00  0.00    -0.185 A  
HETATM   37  C   UNL     1     -10.163  14.186  68.513  1.00  0.00    -0.247 A  
HETATM   38 CL   UNL     1      -9.617  12.550  68.584  1.00  0.00    -0.095 Cl 
ENDBRANCH  31  32
ENDBRANCH  26  31
ENDBRANCH  25  26
ENDBRANCH  24  25
ENDBRANCH  21  24
ENDBRANCH  18  20
ENDBRANCH  15  16
ENDBRANCH  14  15
ENDBRANCH   3  14
ENDBRANCH   2   3
TORSDOF 15
ENDMDL
MODEL      384
REMARK 921   NORMALIZED FREE ENERGY PREDICTED BY IDOCK:   -2.34 KCAL/MOL
REMARK 922        TOTAL FREE ENERGY PREDICTED BY IDOCK:   -7.06 KCAL/MOL
REMARK 923 INTER-LIGAND FREE ENERGY PREDICTED BY IDOCK:   -8.40 KCAL/MOL
REMARK 924 INTRA-LIGAND FREE ENERGY PREDICTED BY IDOCK:    1.34 KCAL/MOL
REMARK 927      BINDING AFFINITY PREDICTED BY RF-SCORE:    0.00 PKD
ROOT
HETATM    1  C   UNL     1      -9.263   8.101  68.934  1.00  0.00    -0.147 C  
HETATM    2  C   UNL     1      -8.505   7.021  68.174  1.00  0.00    -0.129 C  
ENDROOT
BRANCH   2   3
HETATM    3  N   UNL     1      -9.024   6.717  66.735  1.00  0.00    -0.128 N  
BRANCH   3   4
HETATM    4  C   UNL     1     -10.170   5.664  66.794  1.00  0.00    -0.230 C  
HETATM    5  C   UNL     1     -10.080   4.540  65.793  1.00  0.00    -0.274 C  
ENDBRANCH   3   4
BRANCH   3   6
HETATM    6  C   UNL     1      -7.914   6.043  65.895  1.00  0.00    -0.111 C  
BRANCH   6   7
HETATM    7  C   UNL     1      -7.278   6.714  64.681  1.00  0.00    -0.071 A  
HETATM    8  C   UNL     1      -5.438   8.084  63.799  1.00  0.00    -0.052 A  
HETATM    9  C   UNL     1      -7.839   6.772  63.395  1.00  0.00    -0.107 A  
HETATM   10  C   UNL     1      -6.028   7.351  64.837  1.00  0.00    -0.038 A  
HETATM   11  C   UNL     1      -7.226   7.450  62.340  1.00  0.00    -0.083 A  
HETATM   12 CL   UNL     1      -5.183   7.281  66.345  1.00  0.00    -0.023 Cl 
HETATM   13  C   UNL     1      -6.039   8.129  62.547  1.00  0.00    -0.086 A  
ENDBRANCH   6   7
ENDBRANCH   3   6
BRANCH   3  14
HETATM   14  C   UNL     1      -9.474   8.109  66.134  1.00  0.00    -0.147 C  
BRANCH  14  15
HETATM   15  C   UNL     1      -8.342   9.150  65.830  1.00  0.00    -0.126 C  
BRANCH  15  16
HETATM   16  N   UNL     1      -8.726  10.428  65.250  1.00  0.00    -0.172 N  
HETATM   17  H   UNL     1      -8.186  10.826  64.482  1.00  0.00     0.000 HD 
HETATM   18  C   UNL     1      -9.836  11.104  65.749  1.00  0.00    -0.235 C  
HETATM   19  O   UNL     1     -10.636  10.609  66.525  1.00  0.00    -0.238 OA 
BRANCH  18  20
HETATM   20  C   UNL     1     -10.059  12.516  65.152  1.00  0.00    -0.246 C  
HETATM   21  N   UNL     1     -10.149  13.554  66.081  1.00  0.00    -0.298 N  
HETATM   22  O   UNL     1     -10.137  12.681  63.946  1.00  0.00    -0.379 OA 
HETATM   23  H   UNL     1     -10.381  13.365  67.056  1.00  0.00     0.000 HD 
BRANCH  21  24
HETATM   24  C   UNL     1      -9.903  14.916  65.624  1.00  0.00    -0.337 C  
BRANCH  24  25
HETATM   25  C   UNL     1     -10.331  16.034  66.613  1.00  0.00    -0.298 C  
BRANCH  25  26
HETATM   26  N   UNL     1     -10.515  15.569  68.078  1.00  0.00    -0.254 N  
BRANCH  26  27
HETATM   27  C   UNL     1      -9.413  14.538  68.461  1.00  0.00    -0.211 C  
HETATM   28  C   UNL     1      -8.248  15.101  69.265  1.00  0.00    -0.216 C  
ENDBRANCH  26  27
BRANCH  26  29
HETATM   29  C   UNL     1     -10.455  16.828  68.986  1.00  0.00    -0.336 C  
HETATM   30  C   UNL     1      -9.959  18.095  68.311  1.00  0.00    -0.380 C  
ENDBRANCH  26  29
BRANCH  26  31
HETATM   31  C   UNL     1     -11.906  14.853  68.252  1.00  0.00    -0.278 C  
BRANCH  31  32
HETATM   32  C   UNL     1     -12.034  13.721  69.257  1.00  0.00    -0.399 A  
HETATM   33  C   UNL     1     -11.889  12.379  68.846  1.00  0.00    -0.350 A  
HETATM   34  C   UNL     1     -12.132  11.316  69.723  1.00  0.00    -0.394 A  
HETATM   35  C   UNL     1     -12.544  11.568  71.024  1.00  0.00    -0.457 A  
HETATM   36  C   UNL     1     -12.677  12.882  71.461  1.00  0.00    -0.339 A  
HETATM   37  C   UNL     1     -12.417  13.948  70.594  1.00  0.00    -0.366 A  
HETATM   38 CL   UNL     1     -12.617  15.539  71.238  1.00  0.00    -0.466 Cl 
ENDBRANCH  31  32
ENDBRANCH  26  31
ENDBRANCH  25  26
ENDBRANCH  24  25
ENDBRANCH  21  24
ENDBRANCH  18  20
ENDBRANCH  15  16
ENDBRANCH  14  15
ENDBRANCH   3  14
ENDBRANCH   2   3
TORSDOF 15
ENDMDL
MODEL      385
REMARK 921   NORMALIZED FREE ENERGY PREDICTED BY IDOCK:   -2.34 KCAL/MOL
REMARK 922        TOTAL FREE ENERGY PREDICTED BY IDOCK:   -7.05 KCAL/MOL
REMARK 923 INTER-LIGAND FREE ENERGY PREDICTED BY IDOCK:   -6.74 KCAL/MOL
REMARK 924 INTRA-LIGAND FREE ENERGY PREDICTED BY IDOCK:   -0.31 KCAL/MOL
REMARK 927      BINDING AFFINITY PREDICTED BY RF-SCORE:    0.00 PKD
ROOT
HETATM    1  C   UNL     1     -10.309  18.894  67.762  1.00  0.00    -0.490 C  
HETATM    2  C   UNL     1     -10.284  17.406  68.080  1.00  0.00    -0.345 C  
ENDROOT
BRANCH   2   3
HETATM    3  N   UNL     1      -9.050  16.620  67.537  1.00  0.00    -0.201 N  
BRANCH   3   4
HETATM    4  C   UNL     1      -8.465  17.343  66.289  1.00  0.00    -0.225 C  
HETATM    5  C   UNL     1      -6.984  17.623  66.326  1.00  0.00    -0.326 C  
ENDBRANCH   3   4
BRANCH   3   6
HETATM    6  C   UNL     1      -9.484  15.229  67.018  1.00  0.00    -0.223 C  
BRANCH   6   7
HETATM    7  C   UNL     1     -10.685  15.031  66.098  1.00  0.00    -0.328 A  
HETATM    8  C   UNL     1     -12.735  13.767  65.609  1.00  0.00    -0.523 A  
HETATM    9  C   UNL     1     -10.903  15.710  64.887  1.00  0.00    -0.438 A  
HETATM   10  C   UNL     1     -11.667  14.084  66.458  1.00  0.00    -0.394 A  
HETATM   11  C   UNL     1     -11.999  15.442  64.065  1.00  0.00     0.007 A  
HETATM   12 CL   UNL     1     -11.568  13.240  67.965  1.00  0.00    -0.349 Cl 
HETATM   13  C   UNL     1     -12.902  14.453  64.412  1.00  0.00     0.208 A  
ENDBRANCH   6   7
ENDBRANCH   3   6
BRANCH   3  14
HETATM   14  C   UNL     1      -8.034  16.523  68.746  1.00  0.00    -0.236 C  
BRANCH  14  15
HETATM   15  C   UNL     1      -8.196  15.298  69.712  1.00  0.00    -0.009 C  
BRANCH  15  16
HETATM   16  N   UNL     1      -7.226  14.217  69.612  1.00  0.00    -0.353 N  
HETATM   17  H   UNL     1      -6.274  14.349  69.954  1.00  0.00     0.000 HD 
HETATM   18  C   UNL     1      -7.606  13.002  69.050  1.00  0.00     0.142 C  
HETATM   19  O   UNL     1      -8.761  12.705  68.799  1.00  0.00    -0.002 OA 
BRANCH  18  20
HETATM   20  C   UNL     1      -6.454  11.982  68.868  1.00  0.00    -0.083 C  
HETATM   21  N   UNL     1      -6.515  10.855  69.688  1.00  0.00    -0.098 N  
HETATM   22  O   UNL     1      -5.573  12.173  68.046  1.00  0.00    -0.050 OA 
HETATM   23  H   UNL     1      -7.066  10.862  70.547  1.00  0.00     0.000 HD 
BRANCH  21  24
HETATM   24  C   UNL     1      -5.772   9.666  69.289  1.00  0.00    -0.034 C  
BRANCH  24  25
HETATM   25  C   UNL     1      -5.702   8.539  70.355  1.00  0.00    -0.027 C  
BRANCH  25  26
HETATM   26  N   UNL     1      -6.662   7.350  70.107  1.00  0.00    -0.049 N  
BRANCH  26  27
HETATM   27  C   UNL     1      -6.053   6.373  69.058  1.00  0.00    -0.029 C  
HETATM   28  C   UNL     1      -6.307   6.740  67.603  1.00  0.00    -0.044 C  
ENDBRANCH  26  27
BRANCH  26  29
HETATM   29  C   UNL     1      -6.902   6.643  71.469  1.00  0.00    -0.066 C  
HETATM   30  C   UNL     1      -7.156   5.148  71.392  1.00  0.00    -0.061 C  
ENDBRANCH  26  29
BRANCH  26  31
HETATM   31  C   UNL     1      -8.030   7.867  69.526  1.00  0.00    -0.116 C  
BRANCH  31  32
HETATM   32  C   UNL     1      -9.275   7.799  70.395  1.00  0.00    -0.156 A  
HETATM   33  C   UNL     1      -9.239   8.245  71.733  1.00  0.00    -0.261 A  
HETATM   34  C   UNL     1     -10.331   8.071  72.590  1.00  0.00    -0.398 A  
HETATM   35  C   UNL     1     -11.476   7.431  72.137  1.00  0.00    -0.322 A  
HETATM   36  C   UNL     1     -11.546   6.998  70.817  1.00  0.00    -0.381 A  
HETATM   37  C   UNL     1     -10.464   7.186  69.950  1.00  0.00    -0.223 A  
HETATM   38 CL   UNL     1     -10.654   6.607  68.334  1.00  0.00    -0.252 Cl 
ENDBRANCH  31  32
ENDBRANCH  26  31
ENDBRANCH  25  26
ENDBRANCH  24  25
ENDBRANCH  21  24
ENDBRANCH  18  20
ENDBRANCH  15  16
ENDBRANCH  14  15
ENDBRANCH   3  14
ENDBRANCH   2   3
TORSDOF 15
ENDMDL
MODEL      386
REMARK 921   NORMALIZED FREE ENERGY PREDICTED BY IDOCK:   -2.31 KCAL/MOL
REMARK 922        TOTAL FREE ENERGY PREDICTED BY IDOCK:   -7.00 KCAL/MOL
REMARK 923 INTER-LIGAND FREE ENERGY PREDICTED BY IDOCK:   -7.56 KCAL/MOL
REMARK 924 INTRA-LIGAND FREE ENERGY PREDICTED BY IDOCK:    0.56 KCAL/MOL
REMARK 927      BINDING AFFINITY PREDICTED BY RF-SCORE:    0.00 PKD
ROOT
HETATM    1  C   UNL     1     -10.065  19.024  68.860  1.00  0.00    -0.396 C  
HETATM    2  C   UNL     1      -9.729  17.786  68.041  1.00  0.00    -0.304 C  
ENDROOT
BRANCH   2   3
HETATM    3  N   UNL     1      -8.597  17.963  66.982  1.00  0.00    -0.231 N  
BRANCH   3   4
HETATM    4  C   UNL     1      -8.910  19.182  66.067  1.00  0.00    -0.083 C  
HETATM    5  C   UNL     1     -10.284  19.783  66.222  1.00  0.00    -0.615 C  
ENDBRANCH   3   4
BRANCH   3   6
HETATM    6  C   UNL     1      -8.564  16.750  66.023  1.00  0.00    -0.178 C  
BRANCH   6   7
HETATM    7  C   UNL     1      -9.827  16.032  65.559  1.00  0.00    -0.224 A  
HETATM    8  C   UNL     1     -11.048  13.908  65.357  1.00  0.00    -0.310 A  
HETATM    9  C   UNL     1     -10.881  16.620  64.840  1.00  0.00    -0.158 A  
HETATM   10  C   UNL     1      -9.972  14.658  65.849  1.00  0.00    -0.328 A  
HETATM   11  C   UNL     1     -11.986  15.891  64.400  1.00  0.00    -0.018 A  
HETATM   12 CL   UNL     1      -8.790  13.828  66.803  1.00  0.00    -0.201 Cl 
HETATM   13  C   UNL     1     -12.059  14.529  64.635  1.00  0.00    -0.486 A  
ENDBRANCH   6   7
ENDBRANCH   3   6
BRANCH   3  14
HETATM   14  C   UNL     1      -7.256  18.118  67.806  1.00  0.00    -0.213 C  
BRANCH  14  15
HETATM   15  C   UNL     1      -7.242  17.527  69.258  1.00  0.00    -0.088 C  
BRANCH  15  16
HETATM   16  N   UNL     1      -6.620  16.227  69.461  1.00  0.00    -0.202 N  
HETATM   17  H   UNL     1      -5.604  16.139  69.458  1.00  0.00     0.000 HD 
HETATM   18  C   UNL     1      -7.419  15.105  69.660  1.00  0.00    -0.181 C  
HETATM   19  O   UNL     1      -8.619  15.159  69.868  1.00  0.00    -0.071 OA 
BRANCH  18  20
HETATM   20  C   UNL     1      -6.650  13.762  69.720  1.00  0.00    -0.034 C  
HETATM   21  N   UNL     1      -7.431  12.615  69.571  1.00  0.00    -0.146 N  
HETATM   22  O   UNL     1      -5.440  13.739  69.877  1.00  0.00    -0.094 OA 
HETATM   23  H   UNL     1      -8.437  12.641  69.743  1.00  0.00     0.000 HD 
BRANCH  21  24
HETATM   24  C   UNL     1      -6.776  11.378  69.164  1.00  0.00    -0.106 C  
BRANCH  24  25
HETATM   25  C   UNL     1      -6.745  10.259  70.240  1.00  0.00    -0.142 C  
BRANCH  25  26
HETATM   26  N   UNL     1      -7.698   9.069  69.966  1.00  0.00    -0.073 N  
BRANCH  26  27
HETATM   27  C   UNL     1      -8.310   9.183  68.539  1.00  0.00    -0.123 C  
HETATM   28  C   UNL     1      -9.061   7.950  68.054  1.00  0.00    -0.132 C  
ENDBRANCH  26  27
BRANCH  26  29
HETATM   29  C   UNL     1      -6.878   7.760  70.130  1.00  0.00    -0.049 C  
HETATM   30  C   UNL     1      -6.230   7.561  71.489  1.00  0.00    -0.036 C  
ENDBRANCH  26  29
BRANCH  26  31
HETATM   31  C   UNL     1      -8.893   9.081  70.991  1.00  0.00    -0.230 C  
BRANCH  31  32
HETATM   32  C   UNL     1     -10.233   9.648  70.555  1.00  0.00    -0.351 A  
HETATM   33  C   UNL     1     -10.295  10.705  69.622  1.00  0.00    -0.185 A  
HETATM   34  C   UNL     1     -11.505  11.331  69.305  1.00  0.00    -0.369 A  
HETATM   35  C   UNL     1     -12.679  10.929  69.928  1.00  0.00    -0.110 A  
HETATM   36  C   UNL     1     -12.651   9.877  70.838  1.00  0.00    -0.392 A  
HETATM   37  C   UNL     1     -11.446   9.236  71.143  1.00  0.00    -0.333 A  
HETATM   38 CL   UNL     1     -11.523   7.946  72.289  1.00  0.00    -0.371 Cl 
ENDBRANCH  31  32
ENDBRANCH  26  31
ENDBRANCH  25  26
ENDBRANCH  24  25
ENDBRANCH  21  24
ENDBRANCH  18  20
ENDBRANCH  15  16
ENDBRANCH  14  15
ENDBRANCH   3  14
ENDBRANCH   2   3
TORSDOF 15
ENDMDL
MODEL      387
REMARK 921   NORMALIZED FREE ENERGY PREDICTED BY IDOCK:   -2.28 KCAL/MOL
REMARK 922        TOTAL FREE ENERGY PREDICTED BY IDOCK:   -6.95 KCAL/MOL
REMARK 923 INTER-LIGAND FREE ENERGY PREDICTED BY IDOCK:   -5.82 KCAL/MOL
REMARK 924 INTRA-LIGAND FREE ENERGY PREDICTED BY IDOCK:   -1.12 KCAL/MOL
REMARK 927      BINDING AFFINITY PREDICTED BY RF-SCORE:    0.00 PKD
ROOT
HETATM    1  C   UNL     1      -8.440  15.102  69.816  1.00  0.00     0.049 C  
HETATM    2  C   UNL     1      -7.194  15.206  68.948  1.00  0.00    -0.133 C  
ENDROOT
BRANCH   2   3
HETATM    3  N   UNL     1      -7.119  16.457  68.020  1.00  0.00    -0.132 N  
BRANCH   3   4
HETATM    4  C   UNL     1      -5.663  17.006  67.981  1.00  0.00    -0.120 C  
HETATM    5  C   UNL     1      -5.269  17.735  66.722  1.00  0.00    -0.178 C  
ENDBRANCH   3   4
BRANCH   3   6
HETATM    6  C   UNL     1      -7.960  17.615  68.608  1.00  0.00    -0.275 C  
BRANCH   6   7
HETATM    7  C   UNL     1      -8.934  18.435  67.768  1.00  0.00    -0.292 A  
HETATM    8  C   UNL     1     -11.265  18.834  67.098  1.00  0.00     0.213 A  
HETATM    9  C   UNL     1      -8.573  19.414  66.828  1.00  0.00    -0.336 A  
HETATM   10  C   UNL     1     -10.318  18.203  67.915  1.00  0.00    -0.396 A  
HETATM   11  C   UNL     1      -9.516  20.092  66.053  1.00  0.00    -0.384 A  
HETATM   12 CL   UNL     1     -10.905  17.087  69.100  1.00  0.00    -0.244 Cl 
HETATM   13  C   UNL     1     -10.860  19.784  66.168  1.00  0.00    -0.383 A  
ENDBRANCH   6   7
ENDBRANCH   3   6
BRANCH   3  14
HETATM   14  C   UNL     1      -7.654  15.981  66.609  1.00  0.00    -0.165 C  
BRANCH  14  15
HETATM   15  C   UNL     1      -8.838  14.953  66.609  1.00  0.00    -0.254 C  
BRANCH  15  16
HETATM   16  N   UNL     1      -8.516  13.540  66.473  1.00  0.00    -0.391 N  
HETATM   17  H   UNL     1      -7.658  13.252  66.002  1.00  0.00     0.000 HD 
HETATM   18  C   UNL     1      -9.386  12.583  66.988  1.00  0.00    -0.210 C  
HETATM   19  O   UNL     1     -10.322  12.848  67.724  1.00  0.00    -0.215 OA 
BRANCH  18  20
HETATM   20  C   UNL     1      -9.010  11.117  66.656  1.00  0.00    -0.170 C  
HETATM   21  N   UNL     1      -9.862  10.145  67.184  1.00  0.00    -0.179 N  
HETATM   22  O   UNL     1      -8.036  10.861  65.969  1.00  0.00    -0.159 OA 
HETATM   23  H   UNL     1     -10.468  10.355  67.978  1.00  0.00     0.000 HD 
BRANCH  21  24
HETATM   24  C   UNL     1      -9.867   8.822  66.572  1.00  0.00    -0.279 C  
BRANCH  24  25
HETATM   25  C   UNL     1      -8.908   7.788  67.223  1.00  0.00    -0.128 C  
BRANCH  25  26
HETATM   26  N   UNL     1      -8.602   6.547  66.349  1.00  0.00    -0.130 N  
BRANCH  26  27
HETATM   27  C   UNL     1      -9.780   5.532  66.418  1.00  0.00    -0.163 C  
HETATM   28  C   UNL     1     -10.587   5.559  67.709  1.00  0.00    -0.229 C  
ENDBRANCH  26  27
BRANCH  26  29
HETATM   29  C   UNL     1      -8.362   7.040  64.895  1.00  0.00    -0.010 C  
HETATM   30  C   UNL     1      -6.919   7.353  64.542  1.00  0.00    -0.052 C  
ENDBRANCH  26  29
BRANCH  26  31
HETATM   31  C   UNL     1      -7.317   5.810  66.880  1.00  0.00    -0.079 C  
BRANCH  31  32
HETATM   32  C   UNL     1      -7.190   4.309  66.680  1.00  0.00    -0.075 A  
HETATM   33  C   UNL     1      -6.939   3.777  65.398  1.00  0.00    -0.061 A  
HETATM   34  C   UNL     1      -6.948   2.398  65.164  1.00  0.00    -0.048 A  
HETATM   35  C   UNL     1      -7.229   1.519  66.202  1.00  0.00    -0.051 A  
HETATM   36  C   UNL     1      -7.461   2.015  67.480  1.00  0.00    -0.056 A  
HETATM   37  C   UNL     1      -7.433   3.393  67.722  1.00  0.00    -0.058 A  
HETATM   38 CL   UNL     1      -7.740   3.902  69.344  1.00  0.00    -0.053 Cl 
ENDBRANCH  31  32
ENDBRANCH  26  31
ENDBRANCH  25  26
ENDBRANCH  24  25
ENDBRANCH  21  24
ENDBRANCH  18  20
ENDBRANCH  15  16
ENDBRANCH  14  15
ENDBRANCH   3  14
ENDBRANCH   2   3
TORSDOF 15
ENDMDL
MODEL      388
REMARK 921   NORMALIZED FREE ENERGY PREDICTED BY IDOCK:   -2.28 KCAL/MOL
REMARK 922        TOTAL FREE ENERGY PREDICTED BY IDOCK:   -6.93 KCAL/MOL
REMARK 923 INTER-LIGAND FREE ENERGY PREDICTED BY IDOCK:   -7.55 KCAL/MOL
REMARK 924 INTRA-LIGAND FREE ENERGY PREDICTED BY IDOCK:    0.62 KCAL/MOL
REMARK 927      BINDING AFFINITY PREDICTED BY RF-SCORE:    0.00 PKD
ROOT
HETATM    1  C   UNL     1      -9.315   8.001  68.906  1.00  0.00    -0.150 C  
HETATM    2  C   UNL     1      -8.674   6.794  68.235  1.00  0.00    -0.123 C  
ENDROOT
BRANCH   2   3
HETATM    3  N   UNL     1      -9.347   6.322  66.909  1.00  0.00    -0.131 N  
BRANCH   3   4
HETATM    4  C   UNL     1     -10.448   5.266  67.218  1.00  0.00    -0.173 C  
HETATM    5  C   UNL     1     -10.217   4.414  68.440  1.00  0.00     0.154 C  
ENDBRANCH   3   4
BRANCH   3   6
HETATM    6  C   UNL     1      -8.323   5.575  66.023  1.00  0.00    -0.122 C  
BRANCH   6   7
HETATM    7  C   UNL     1      -7.214   4.702  66.603  1.00  0.00    -0.080 A  
HETATM    8  C   UNL     1      -6.355   2.433  66.995  1.00  0.00    -0.028 A  
HETATM    9  C   UNL     1      -6.121   5.166  67.354  1.00  0.00    -0.030 A  
HETATM   10  C   UNL     1      -7.272   3.307  66.398  1.00  0.00    -0.067 A  
HETATM   11  C   UNL     1      -5.169   4.304  67.902  1.00  0.00    -0.011 A  
HETATM   12 CL   UNL     1      -8.515   2.610  65.417  1.00  0.00    -0.096 Cl 
HETATM   13  C   UNL     1      -5.298   2.936  67.745  1.00  0.00    -0.013 A  
ENDBRANCH   6   7
ENDBRANCH   3   6
BRANCH   3  14
HETATM   14  C   UNL     1      -9.903   7.631  66.216  1.00  0.00    -0.010 C  
BRANCH  14  15
HETATM   15  C   UNL     1      -8.906   8.429  65.306  1.00  0.00    -0.069 C  
BRANCH  15  16
HETATM   16  N   UNL     1      -9.353   9.701  64.755  1.00  0.00    -0.355 N  
HETATM   17  H   UNL     1      -9.037   9.999  63.832  1.00  0.00     0.000 HD 
HETATM   18  C   UNL     1     -10.213  10.507  65.495  1.00  0.00    -0.256 C  
HETATM   19  O   UNL     1     -10.781  10.137  66.509  1.00  0.00    -0.153 OA 
BRANCH  18  20
HETATM   20  C   UNL     1     -10.502  11.894  64.869  1.00  0.00    -0.287 C  
HETATM   21  N   UNL     1     -10.329  12.986  65.722  1.00  0.00    -0.282 N  
HETATM   22  O   UNL     1     -10.845  11.996  63.703  1.00  0.00    -0.368 OA 
HETATM   23  H   UNL     1     -10.340  12.865  66.734  1.00  0.00     0.000 HD 
BRANCH  21  24
HETATM   24  C   UNL     1     -10.131  14.303  65.130  1.00  0.00    -0.321 C  
BRANCH  24  25
HETATM   25  C   UNL     1     -10.255  15.497  66.115  1.00  0.00    -0.306 C  
BRANCH  25  26
HETATM   26  N   UNL     1     -10.366  15.099  67.606  1.00  0.00    -0.246 N  
BRANCH  26  27
HETATM   27  C   UNL     1      -9.353  13.964  67.941  1.00  0.00    -0.208 C  
HETATM   28  C   UNL     1      -8.057  14.422  68.595  1.00  0.00    -0.146 C  
ENDBRANCH  26  27
BRANCH  26  29
HETATM   29  C   UNL     1     -10.095  16.370  68.457  1.00  0.00    -0.248 C  
HETATM   30  C   UNL     1     -10.667  17.661  67.900  1.00  0.00    -0.341 C  
ENDBRANCH  26  29
BRANCH  26  31
HETATM   31  C   UNL     1     -11.807  14.547  67.917  1.00  0.00    -0.336 C  
BRANCH  31  32
HETATM   32  C   UNL     1     -11.996  13.590  69.083  1.00  0.00    -0.378 A  
HETATM   33  C   UNL     1     -11.744  12.211  68.925  1.00  0.00    -0.381 A  
HETATM   34  C   UNL     1     -12.035  11.294  69.941  1.00  0.00    -0.440 A  
HETATM   35  C   UNL     1     -12.604  11.731  71.130  1.00  0.00    -0.412 A  
HETATM   36  C   UNL     1     -12.846  13.088  71.319  1.00  0.00    -0.370 A  
HETATM   37  C   UNL     1     -12.538  14.011  70.314  1.00  0.00    -0.291 A  
HETATM   38 CL   UNL     1     -12.883  15.669  70.651  1.00  0.00    -0.475 Cl 
ENDBRANCH  31  32
ENDBRANCH  26  31
ENDBRANCH  25  26
ENDBRANCH  24  25
ENDBRANCH  21  24
ENDBRANCH  18  20
ENDBRANCH  15  16
ENDBRANCH  14  15
ENDBRANCH   3  14
ENDBRANCH   2   3
TORSDOF 15
ENDMDL
MODEL      389
REMARK 921   NORMALIZED FREE ENERGY PREDICTED BY IDOCK:   -2.26 KCAL/MOL
REMARK 922        TOTAL FREE ENERGY PREDICTED BY IDOCK:   -6.90 KCAL/MOL
REMARK 923 INTER-LIGAND FREE ENERGY PREDICTED BY IDOCK:   -6.23 KCAL/MOL
REMARK 924 INTRA-LIGAND FREE ENERGY PREDICTED BY IDOCK:   -0.67 KCAL/MOL
REMARK 927      BINDING AFFINITY PREDICTED BY RF-SCORE:    0.00 PKD
ROOT
HETATM    1  C   UNL     1      -5.554  19.558  69.722  1.00  0.00    -0.259 C  
HETATM    2  C   UNL     1      -5.689  18.044  69.792  1.00  0.00    -0.238 C  
ENDROOT
BRANCH   2   3
HETATM    3  N   UNL     1      -6.310  17.361  68.534  1.00  0.00    -0.171 N  
BRANCH   3   4
HETATM    4  C   UNL     1      -6.295  18.348  67.331  1.00  0.00    -0.182 C  
HETATM    5  C   UNL     1      -5.962  17.743  65.990  1.00  0.00    -0.242 C  
ENDBRANCH   3   4
BRANCH   3   6
HETATM    6  C   UNL     1      -7.808  17.056  68.772  1.00  0.00    -0.253 C  
BRANCH   6   7
HETATM    7  C   UNL     1      -8.925  17.950  68.242  1.00  0.00    -0.277 A  
HETATM    8  C   UNL     1     -10.586  18.364  66.480  1.00  0.00    -0.344 A  
HETATM    9  C   UNL     1      -9.320  19.177  68.801  1.00  0.00    -0.423 A  
HETATM   10  C   UNL     1      -9.628  17.544  67.089  1.00  0.00    -0.262 A  
HETATM   11  C   UNL     1     -10.317  19.972  68.233  1.00  0.00    -0.494 A  
HETATM   12 CL   UNL     1      -9.305  16.013  66.350  1.00  0.00    -0.299 Cl 
HETATM   13  C   UNL     1     -10.933  19.580  67.058  1.00  0.00    -0.443 A  
ENDBRANCH   6   7
ENDBRANCH   3   6
BRANCH   3  14
HETATM   14  C   UNL     1      -5.459  16.051  68.289  1.00  0.00    -0.110 C  
BRANCH  14  15
HETATM   15  C   UNL     1      -5.952  14.742  68.998  1.00  0.00    -0.092 C  
BRANCH  15  16
HETATM   16  N   UNL     1      -6.850  13.864  68.262  1.00  0.00    -0.095 N  
HETATM   17  H   UNL     1      -7.859  14.014  68.300  1.00  0.00     0.000 HD 
HETATM   18  C   UNL     1      -6.326  12.819  67.507  1.00  0.00    -0.162 C  
HETATM   19  O   UNL     1      -5.139  12.694  67.259  1.00  0.00    -0.261 OA 
BRANCH  18  20
HETATM   20  C   UNL     1      -7.383  11.870  66.889  1.00  0.00    -0.075 C  
HETATM   21  N   UNL     1      -7.092  10.508  66.978  1.00  0.00    -0.090 N  
HETATM   22  O   UNL     1      -8.397  12.312  66.375  1.00  0.00    -0.015 OA 
HETATM   23  H   UNL     1      -6.136  10.186  67.129  1.00  0.00     0.000 HD 
BRANCH  21  24
HETATM   24  C   UNL     1      -8.189   9.555  66.851  1.00  0.00    -0.113 C  
BRANCH  24  25
HETATM   25  C   UNL     1      -9.321   9.705  67.904  1.00  0.00    -0.128 C  
BRANCH  25  26
HETATM   26  N   UNL     1      -9.456   8.514  68.884  1.00  0.00    -0.146 N  
BRANCH  26  27
HETATM   27  C   UNL     1     -10.707   7.658  68.527  1.00  0.00    -0.051 C  
HETATM   28  C   UNL     1     -10.723   7.088  67.115  1.00  0.00    -0.433 C  
ENDBRANCH  26  27
BRANCH  26  29
HETATM   29  C   UNL     1      -8.151   7.677  68.795  1.00  0.00    -0.127 C  
HETATM   30  C   UNL     1      -8.187   6.335  69.505  1.00  0.00    -0.117 C  
ENDBRANCH  26  29
BRANCH  26  31
HETATM   31  C   UNL     1      -9.653   9.040  70.355  1.00  0.00    -0.208 C  
BRANCH  31  32
HETATM   32  C   UNL     1      -8.562   8.786  71.382  1.00  0.00    -0.254 A  
HETATM   33  C   UNL     1      -8.777   7.883  72.445  1.00  0.00    -0.206 A  
HETATM   34  C   UNL     1      -7.842   7.731  73.475  1.00  0.00    -0.189 A  
HETATM   35  C   UNL     1      -6.680   8.491  73.476  1.00  0.00    -0.092 A  
HETATM   36  C   UNL     1      -6.434   9.375  72.430  1.00  0.00     0.402 A  
HETATM   37  C   UNL     1      -7.357   9.516  71.389  1.00  0.00     0.358 A  
HETATM   38 CL   UNL     1      -6.956  10.643  70.144  1.00  0.00    -0.140 Cl 
ENDBRANCH  31  32
ENDBRANCH  26  31
ENDBRANCH  25  26
ENDBRANCH  24  25
ENDBRANCH  21  24
ENDBRANCH  18  20
ENDBRANCH  15  16
ENDBRANCH  14  15
ENDBRANCH   3  14
ENDBRANCH   2   3
TORSDOF 15
ENDMDL
MODEL      390
REMARK 921   NORMALIZED FREE ENERGY PREDICTED BY IDOCK:   -2.26 KCAL/MOL
REMARK 922        TOTAL FREE ENERGY PREDICTED BY IDOCK:   -6.89 KCAL/MOL
REMARK 923 INTER-LIGAND FREE ENERGY PREDICTED BY IDOCK:   -4.82 KCAL/MOL
REMARK 924 INTRA-LIGAND FREE ENERGY PREDICTED BY IDOCK:   -2.07 KCAL/MOL
REMARK 927      BINDING AFFINITY PREDICTED BY RF-SCORE:    0.00 PKD
ROOT
HETATM    1  C   UNL     1      -8.389   4.917  70.687  1.00  0.00    -0.102 C  
HETATM    2  C   UNL     1      -8.222   6.419  70.865  1.00  0.00    -0.125 C  
ENDROOT
BRANCH   2   3
HETATM    3  N   UNL     1      -9.271   7.111  71.789  1.00  0.00    -0.140 N  
BRANCH   3   4
HETATM    4  C   UNL     1      -9.754   6.117  72.885  1.00  0.00    -0.158 C  
HETATM    5  C   UNL     1      -9.580   6.576  74.310  1.00  0.00    -0.280 C  
ENDBRANCH   3   4
BRANCH   3   6
HETATM    6  C   UNL     1     -10.546   7.461  70.987  1.00  0.00    -0.224 C  
BRANCH   6   7
HETATM    7  C   UNL     1     -10.621   8.655  70.039  1.00  0.00    -0.233 A  
HETATM    8  C   UNL     1     -10.344   9.503  67.749  1.00  0.00    -0.291 A  
HETATM    9  C   UNL     1     -10.879   9.982  70.421  1.00  0.00    -0.380 A  
HETATM   10  C   UNL     1     -10.404   8.442  68.662  1.00  0.00    -0.197 A  
HETATM   11  C   UNL     1     -10.882  11.037  69.507  1.00  0.00    -0.267 A  
HETATM   12 CL   UNL     1     -10.162   6.844  68.043  1.00  0.00    -0.191 Cl 
HETATM   13  C   UNL     1     -10.588  10.803  68.175  1.00  0.00    -0.238 A  
ENDBRANCH   6   7
ENDBRANCH   3   6
BRANCH   3  14
HETATM   14  C   UNL     1      -8.553   8.395  72.371  1.00  0.00    -0.193 C  
BRANCH  14  15
HETATM   15  C   UNL     1      -7.133   8.735  71.799  1.00  0.00    -0.054 C  
BRANCH  15  16
HETATM   16  N   UNL     1      -6.967   8.760  70.353  1.00  0.00    -0.042 N  
HETATM   17  H   UNL     1      -6.921   7.888  69.826  1.00  0.00     0.000 HD 
HETATM   18  C   UNL     1      -6.873   9.982  69.693  1.00  0.00    -0.078 C  
HETATM   19  O   UNL     1      -7.110  11.055  70.221  1.00  0.00    -0.114 OA 
BRANCH  18  20
HETATM   20  C   UNL     1      -6.555   9.881  68.180  1.00  0.00    -0.056 C  
HETATM   21  N   UNL     1      -6.049   8.651  67.754  1.00  0.00    -0.047 N  
HETATM   22  O   UNL     1      -6.755  10.824  67.434  1.00  0.00    -0.072 OA 
HETATM   23  H   UNL     1      -5.618   8.006  68.416  1.00  0.00     0.000 HD 
BRANCH  21  24
HETATM   24  C   UNL     1      -6.152   8.312  66.340  1.00  0.00    -0.049 C  
BRANCH  24  25
HETATM   25  C   UNL     1      -7.127   7.151  66.006  1.00  0.00    -0.073 C  
BRANCH  25  26
HETATM   26  N   UNL     1      -7.065   6.652  64.542  1.00  0.00    -0.057 N  
BRANCH  26  27
HETATM   27  C   UNL     1      -7.890   7.591  63.614  1.00  0.00    -0.112 C  
HETATM   28  C   UNL     1      -8.738   8.632  64.332  1.00  0.00    -0.006 C  
ENDBRANCH  26  27
BRANCH  26  29
HETATM   29  C   UNL     1      -5.570   6.608  64.120  1.00  0.00    -0.031 C  
HETATM   30  C   UNL     1      -5.199   5.503  63.148  1.00  0.00    -0.013 C  
ENDBRANCH  26  29
BRANCH  26  31
HETATM   31  C   UNL     1      -7.692   5.213  64.430  1.00  0.00    -0.087 C  
BRANCH  31  32
HETATM   32  C   UNL     1      -7.908   4.400  65.696  1.00  0.00    -0.094 A  
HETATM   33  C   UNL     1      -6.807   3.889  66.415  1.00  0.00    -0.058 A  
HETATM   34  C   UNL     1      -6.982   3.030  67.505  1.00  0.00    -0.049 A  
HETATM   35  C   UNL     1      -8.259   2.646  67.891  1.00  0.00    -0.081 A  
HETATM   36  C   UNL     1      -9.364   3.150  67.211  1.00  0.00    -0.217 A  
HETATM   37  C   UNL     1      -9.195   4.025  66.132  1.00  0.00    -0.155 A  
HETATM   38 CL   UNL     1     -10.632   4.587  65.357  1.00  0.00    -0.258 Cl 
ENDBRANCH  31  32
ENDBRANCH  26  31
ENDBRANCH  25  26
ENDBRANCH  24  25
ENDBRANCH  21  24
ENDBRANCH  18  20
ENDBRANCH  15  16
ENDBRANCH  14  15
ENDBRANCH   3  14
ENDBRANCH   2   3
TORSDOF 15
ENDMDL
MODEL      391
REMARK 921   NORMALIZED FREE ENERGY PREDICTED BY IDOCK:   -2.25 KCAL/MOL
REMARK 922        TOTAL FREE ENERGY PREDICTED BY IDOCK:   -6.88 KCAL/MOL
REMARK 923 INTER-LIGAND FREE ENERGY PREDICTED BY IDOCK:   -6.45 KCAL/MOL
REMARK 924 INTRA-LIGAND FREE ENERGY PREDICTED BY IDOCK:   -0.43 KCAL/MOL
REMARK 927      BINDING AFFINITY PREDICTED BY RF-SCORE:    0.00 PKD
ROOT
HETATM    1  C   UNL     1      -9.665   3.450  71.026  1.00  0.00    -0.216 C  
HETATM    2  C   UNL     1      -8.955   4.656  71.622  1.00  0.00    -0.133 C  
ENDROOT
BRANCH   2   3
HETATM    3  N   UNL     1      -9.880   5.738  72.261  1.00  0.00    -0.161 N  
BRANCH   3   4
HETATM    4  C   UNL     1     -10.972   5.055  73.136  1.00  0.00    -0.309 C  
HETATM    5  C   UNL     1     -10.495   4.470  74.441  1.00  0.00    -0.318 C  
ENDBRANCH   3   4
BRANCH   3   6
HETATM    6  C   UNL     1     -10.670   6.487  71.162  1.00  0.00    -0.240 C  
BRANCH   6   7
HETATM    7  C   UNL     1     -11.835   7.420  71.477  1.00  0.00    -0.327 A  
HETATM    8  C   UNL     1     -12.567   9.673  72.132  1.00  0.00    -0.388 A  
HETATM    9  C   UNL     1     -13.185   7.038  71.558  1.00  0.00    -0.382 A  
HETATM   10  C   UNL     1     -11.565   8.782  71.726  1.00  0.00    -0.346 A  
HETATM   11  C   UNL     1     -14.197   7.935  71.903  1.00  0.00    -0.508 A  
HETATM   12 CL   UNL     1      -9.958   9.406  71.573  1.00  0.00    -0.269 Cl 
HETATM   13  C   UNL     1     -13.887   9.246  72.216  1.00  0.00    -0.492 A  
ENDBRANCH   6   7
ENDBRANCH   3   6
BRANCH   3  14
HETATM   14  C   UNL     1      -8.924   6.697  73.077  1.00  0.00    -0.127 C  
BRANCH  14  15
HETATM   15  C   UNL     1      -7.399   6.654  72.716  1.00  0.00    -0.084 C  
BRANCH  15  16
HETATM   16  N   UNL     1      -6.975   7.270  71.466  1.00  0.00    -0.059 N  
HETATM   17  H   UNL     1      -7.105   6.778  70.582  1.00  0.00     0.000 HD 
HETATM   18  C   UNL     1      -6.392   8.534  71.485  1.00  0.00    -0.057 C  
HETATM   19  O   UNL     1      -6.379   9.257  72.467  1.00  0.00    -0.299 OA 
BRANCH  18  20
HETATM   20  C   UNL     1      -5.854   9.022  70.117  1.00  0.00    -0.030 C  
HETATM   21  N   UNL     1      -5.554   8.016  69.197  1.00  0.00    -0.033 N  
HETATM   22  O   UNL     1      -5.721  10.211  69.884  1.00  0.00    -0.040 OA 
HETATM   23  H   UNL     1      -5.386   7.058  69.505  1.00  0.00     0.000 HD 
BRANCH  21  24
HETATM   24  C   UNL     1      -5.487   8.367  67.783  1.00  0.00    -0.035 C  
BRANCH  24  25
HETATM   25  C   UNL     1      -6.680   7.872  66.920  1.00  0.00    -0.068 C  
BRANCH  25  26
HETATM   26  N   UNL     1      -7.207   8.902  65.891  1.00  0.00    -0.087 N  
BRANCH  26  27
HETATM   27  C   UNL     1      -6.023   9.691  65.260  1.00  0.00    -0.069 C  
HETATM   28  C   UNL     1      -5.969   9.675  63.738  1.00  0.00    -0.100 C  
ENDBRANCH  26  27
BRANCH  26  29
HETATM   29  C   UNL     1      -8.010   8.123  64.812  1.00  0.00    -0.147 C  
HETATM   30  C   UNL     1      -8.115   6.625  65.033  1.00  0.00    -0.124 C  
ENDBRANCH  26  29
BRANCH  26  31
HETATM   31  C   UNL     1      -8.144   9.949  66.600  1.00  0.00    -0.117 C  
BRANCH  31  32
HETATM   32  C   UNL     1      -7.538  11.230  67.150  1.00  0.00    -0.137 A  
HETATM   33  C   UNL     1      -6.217  11.597  66.816  1.00  0.00    -0.123 A  
HETATM   34  C   UNL     1      -5.592  12.698  67.411  1.00  0.00    -0.087 A  
HETATM   35  C   UNL     1      -6.265  13.446  68.368  1.00  0.00    -0.088 A  
HETATM   36  C   UNL     1      -7.574  13.118  68.702  1.00  0.00    -0.089 A  
HETATM   37  C   UNL     1      -8.210  12.029  68.096  1.00  0.00    -0.163 A  
HETATM   38 CL   UNL     1      -9.834  11.706  68.587  1.00  0.00    -0.197 Cl 
ENDBRANCH  31  32
ENDBRANCH  26  31
ENDBRANCH  25  26
ENDBRANCH  24  25
ENDBRANCH  21  24
ENDBRANCH  18  20
ENDBRANCH  15  16
ENDBRANCH  14  15
ENDBRANCH   3  14
ENDBRANCH   2   3
TORSDOF 15
ENDMDL
MODEL      392
REMARK 921   NORMALIZED FREE ENERGY PREDICTED BY IDOCK:   -2.02 KCAL/MOL
REMARK 922        TOTAL FREE ENERGY PREDICTED BY IDOCK:   -6.45 KCAL/MOL
REMARK 923 INTER-LIGAND FREE ENERGY PREDICTED BY IDOCK:   -6.57 KCAL/MOL
REMARK 924 INTRA-LIGAND FREE ENERGY PREDICTED BY IDOCK:    0.11 KCAL/MOL
REMARK 927      BINDING AFFINITY PREDICTED BY RF-SCORE:    0.00 PKD
ROOT
HETATM    1  C   UNL     1     -13.521  14.602  71.243  1.00  0.00    -0.451 C  
HETATM    2  C   UNL     1     -12.239  13.806  71.051  1.00  0.00    -0.319 C  
ENDROOT
BRANCH   2   3
HETATM    3  N   UNL     1     -11.363  14.221  69.828  1.00  0.00    -0.250 N  
BRANCH   3   4
HETATM    4  C   UNL     1     -10.167  15.097  70.302  1.00  0.00     0.002 C  
HETATM    5  C   UNL     1      -8.878  14.914  69.542  1.00  0.00     0.021 C  
ENDBRANCH   3   4
BRANCH   3   6
HETATM    6  C   UNL     1     -12.167  15.136  68.876  1.00  0.00    -0.103 C  
BRANCH   6   7
HETATM    7  C   UNL     1     -11.539  15.821  67.666  1.00  0.00    -0.029 A  
HETATM    8  C   UNL     1     -10.851  15.649  65.313  1.00  0.00    -0.420 A  
HETATM    9  C   UNL     1     -10.957  17.100  67.666  1.00  0.00    -0.148 A  
HETATM   10  C   UNL     1     -11.511  15.133  66.435  1.00  0.00    -0.160 A  
HETATM   11  C   UNL     1     -10.351  17.647  66.533  1.00  0.00    -0.337 A  
HETATM   12 CL   UNL     1     -12.269  13.585  66.272  1.00  0.00    -0.469 Cl 
HETATM   13  C   UNL     1     -10.274  16.913  65.364  1.00  0.00    -0.056 A  
ENDBRANCH   6   7
ENDBRANCH   3   6
BRANCH   3  14
HETATM   14  C   UNL     1     -10.922  12.868  69.135  1.00  0.00    -0.133 C  
BRANCH  14  15
HETATM   15  C   UNL     1     -11.844  11.621  69.362  1.00  0.00    -0.342 C  
BRANCH  15  16
HETATM   16  N   UNL     1     -11.302  10.497  70.110  1.00  0.00    -0.302 N  
HETATM   17  H   UNL     1     -10.351  10.173  69.932  1.00  0.00     0.000 HD 
HETATM   18  C   UNL     1     -12.088   9.866  71.070  1.00  0.00    -0.358 C  
HETATM   19  O   UNL     1     -13.150  10.310  71.471  1.00  0.00    -0.384 OA 
BRANCH  18  20
HETATM   20  C   UNL     1     -11.456   8.597  71.695  1.00  0.00    -0.305 C  
HETATM   21  N   UNL     1     -10.461   7.983  70.932  1.00  0.00    -0.201 N  
HETATM   22  O   UNL     1     -11.816   8.192  72.788  1.00  0.00    -0.389 OA 
HETATM   23  H   UNL     1     -10.393   8.151  69.928  1.00  0.00     0.000 HD 
BRANCH  21  24
HETATM   24  C   UNL     1      -9.520   7.096  71.605  1.00  0.00    -0.152 C  
BRANCH  24  25
HETATM   25  C   UNL     1      -9.308   5.716  70.924  1.00  0.00    -0.160 C  
BRANCH  25  26
HETATM   26  N   UNL     1      -8.875   5.786  69.439  1.00  0.00    -0.116 N  
BRANCH  26  27
HETATM   27  C   UNL     1      -9.813   6.744  68.647  1.00  0.00    -0.142 C  
HETATM   28  C   UNL     1     -11.086   6.108  68.107  1.00  0.00    -0.328 C  
ENDBRANCH  26  27
BRANCH  26  29
HETATM   29  C   UNL     1      -7.400   6.273  69.398  1.00  0.00    -0.091 C  
HETATM   30  C   UNL     1      -6.557   5.899  70.604  1.00  0.00    -0.047 C  
ENDBRANCH  26  29
BRANCH  26  31
HETATM   31  C   UNL     1      -8.986   4.364  68.773  1.00  0.00    -0.110 C  
BRANCH  31  32
HETATM   32  C   UNL     1      -7.728   3.531  68.596  1.00  0.00    -0.055 A  
HETATM   33  C   UNL     1      -7.337   2.606  69.587  1.00  0.00    -0.044 A  
HETATM   34  C   UNL     1      -6.118   1.925  69.510  1.00  0.00    -0.024 A  
HETATM   35  C   UNL     1      -5.252   2.166  68.452  1.00  0.00    -0.012 A  
HETATM   36  C   UNL     1      -5.620   3.058  67.451  1.00  0.00    -0.021 A  
HETATM   37  C   UNL     1      -6.847   3.728  67.513  1.00  0.00    -0.054 A  
HETATM   38 CL   UNL     1      -7.204   4.817  66.221  1.00  0.00    -0.075 Cl 
ENDBRANCH  31  32
ENDBRANCH  26  31
ENDBRANCH  25  26
ENDBRANCH  24  25
ENDBRANCH  21  24
ENDBRANCH  18  20
ENDBRANCH  15  16
ENDBRANCH  14  15
ENDBRANCH   3  14
ENDBRANCH   2   3
TORSDOF 15
ENDMDL
MODEL      393
REMARK 921   NORMALIZED FREE ENERGY PREDICTED BY IDOCK:   -2.01 KCAL/MOL
REMARK 922        TOTAL FREE ENERGY PREDICTED BY IDOCK:   -6.43 KCAL/MOL
REMARK 923 INTER-LIGAND FREE ENERGY PREDICTED BY IDOCK:   -7.97 KCAL/MOL
REMARK 924 INTRA-LIGAND FREE ENERGY PREDICTED BY IDOCK:    1.53 KCAL/MOL
REMARK 927      BINDING AFFINITY PREDICTED BY RF-SCORE:    0.00 PKD
ROOT
HETATM    1  C   UNL     1     -12.380   8.518  72.178  1.00  0.00    -0.444 C  
HETATM    2  C   UNL     1     -11.785   7.119  72.123  1.00  0.00    -0.284 C  
ENDROOT
BRANCH   2   3
HETATM    3  N   UNL     1     -10.241   7.048  71.910  1.00  0.00    -0.188 N  
BRANCH   3   4
HETATM    4  C   UNL     1      -9.924   6.564  70.465  1.00  0.00    -0.184 C  
HETATM    5  C   UNL     1     -11.114   6.153  69.635  1.00  0.00    -0.489 C  
ENDBRANCH   3   4
BRANCH   3   6
HETATM    6  C   UNL     1      -9.620   5.972  72.831  1.00  0.00    -0.154 C  
BRANCH   6   7
HETATM    7  C   UNL     1      -9.465   4.515  72.406  1.00  0.00    -0.176 A  
HETATM    8  C   UNL     1     -10.339   2.221  72.514  1.00  0.00    -0.219 A  
HETATM    9  C   UNL     1      -8.383   3.989  71.680  1.00  0.00    -0.095 A  
HETATM   10  C   UNL     1     -10.468   3.592  72.769  1.00  0.00    -0.133 A  
HETATM   11  C   UNL     1      -8.278   2.633  71.369  1.00  0.00    -0.073 A  
HETATM   12 CL   UNL     1     -11.898   4.120  73.588  1.00  0.00    -0.036 Cl 
HETATM   13  C   UNL     1      -9.242   1.743  71.808  1.00  0.00    -0.149 A  
ENDBRANCH   6   7
ENDBRANCH   3   6
BRANCH   3  14
HETATM   14  C   UNL     1      -9.695   8.500  72.225  1.00  0.00    -0.310 C  
BRANCH  14  15
HETATM   15  C   UNL     1     -10.162   9.655  71.273  1.00  0.00    -0.017 C  
BRANCH  15  16
HETATM   16  N   UNL     1      -9.315   9.989  70.138  1.00  0.00    -0.385 N  
HETATM   17  H   UNL     1      -9.731  10.307  69.263  1.00  0.00     0.000 HD 
HETATM   18  C   UNL     1      -7.932   9.874  70.254  1.00  0.00    -0.109 C  
HETATM   19  O   UNL     1      -7.356   9.689  71.312  1.00  0.00    -0.322 OA 
BRANCH  18  20
HETATM   20  C   UNL     1      -7.148  10.118  68.940  1.00  0.00    -0.069 C  
HETATM   21  N   UNL     1      -7.926  10.444  67.828  1.00  0.00    -0.102 N  
HETATM   22  O   UNL     1      -5.931  10.034  68.913  1.00  0.00    -0.035 OA 
HETATM   23  H   UNL     1      -8.920  10.216  67.800  1.00  0.00     0.000 HD 
BRANCH  21  24
HETATM   24  C   UNL     1      -7.283  11.119  66.707  1.00  0.00    -0.146 C  
BRANCH  24  25
HETATM   25  C   UNL     1      -7.631  10.551  65.304  1.00  0.00    -0.074 C  
BRANCH  25  26
HETATM   26  N   UNL     1      -9.102  10.101  65.133  1.00  0.00    -0.184 N  
BRANCH  26  27
HETATM   27  C   UNL     1      -9.548  10.262  63.650  1.00  0.00    -0.277 C  
HETATM   28  C   UNL     1      -8.641   9.599  62.623  1.00  0.00    -0.206 C  
ENDBRANCH  26  27
BRANCH  26  29
HETATM   29  C   UNL     1      -9.202   8.622  65.599  1.00  0.00    -0.139 C  
HETATM   30  C   UNL     1     -10.201   8.355  66.710  1.00  0.00    -0.376 C  
ENDBRANCH  26  29
BRANCH  26  31
HETATM   31  C   UNL     1     -10.052  11.001  66.008  1.00  0.00    -0.247 C  
BRANCH  31  32
HETATM   32  C   UNL     1     -10.735  12.196  65.366  1.00  0.00    -0.323 A  
HETATM   33  C   UNL     1     -11.680  12.012  64.334  1.00  0.00    -0.399 A  
HETATM   34  C   UNL     1     -12.224  13.097  63.639  1.00  0.00    -0.553 A  
HETATM   35  C   UNL     1     -11.822  14.391  63.944  1.00  0.00    -0.086 A  
HETATM   36  C   UNL     1     -10.906  14.603  64.969  1.00  0.00    -0.431 A  
HETATM   37  C   UNL     1     -10.374  13.522  65.680  1.00  0.00    -0.297 A  
HETATM   38 CL   UNL     1      -9.242  13.897  66.929  1.00  0.00    -0.258 Cl 
ENDBRANCH  31  32
ENDBRANCH  26  31
ENDBRANCH  25  26
ENDBRANCH  24  25
ENDBRANCH  21  24
ENDBRANCH  18  20
ENDBRANCH  15  16
ENDBRANCH  14  15
ENDBRANCH   3  14
ENDBRANCH   2   3
TORSDOF 15
ENDMDL
MODEL      394
REMARK 921   NORMALIZED FREE ENERGY PREDICTED BY IDOCK:   -1.95 KCAL/MOL
REMARK 922        TOTAL FREE ENERGY PREDICTED BY IDOCK:   -6.32 KCAL/MOL
REMARK 923 INTER-LIGAND FREE ENERGY PREDICTED BY IDOCK:   -8.02 KCAL/MOL
REMARK 924 INTRA-LIGAND FREE ENERGY PREDICTED BY IDOCK:    1.71 KCAL/MOL
REMARK 927      BINDING AFFINITY PREDICTED BY RF-SCORE:    0.00 PKD
ROOT
HETATM    1  C   UNL     1     -12.576  13.757  65.929  1.00  0.00    -0.494 C  
HETATM    2  C   UNL     1     -12.185  13.942  67.388  1.00  0.00    -0.256 C  
ENDROOT
BRANCH   2   3
HETATM    3  N   UNL     1     -11.219  12.865  67.971  1.00  0.00    -0.252 N  
BRANCH   3   4
HETATM    4  C   UNL     1     -11.869  11.454  67.866  1.00  0.00    -0.165 C  
HETATM    5  C   UNL     1     -12.085  10.732  69.172  1.00  0.00    -0.227 C  
ENDBRANCH   3   4
BRANCH   3   6
HETATM    6  C   UNL     1     -11.013  13.090  69.487  1.00  0.00     0.097 C  
BRANCH   6   7
HETATM    7  C   UNL     1     -12.041  13.803  70.361  1.00  0.00    -0.421 A  
HETATM    8  C   UNL     1     -12.751  15.894  71.439  1.00  0.00    -0.403 A  
HETATM    9  C   UNL     1     -13.122  13.186  71.013  1.00  0.00    -0.121 A  
HETATM   10  C   UNL     1     -11.914  15.194  70.561  1.00  0.00    -0.325 A  
HETATM   11  C   UNL     1     -13.997  13.890  71.842  1.00  0.00    -0.512 A  
HETATM   12 CL   UNL     1     -10.681  16.093  69.747  1.00  0.00    -0.317 Cl 
HETATM   13  C   UNL     1     -13.797  15.239  72.077  1.00  0.00    -0.626 A  
ENDBRANCH   6   7
ENDBRANCH   3   6
BRANCH   3  14
HETATM   14  C   UNL     1      -9.873  13.004  67.152  1.00  0.00    -0.230 C  
BRANCH  14  15
HETATM   15  C   UNL     1      -9.562  11.881  66.103  1.00  0.00    -0.234 C  
BRANCH  15  16
HETATM   16  N   UNL     1      -8.454  10.977  66.377  1.00  0.00    -0.160 N  
HETATM   17  H   UNL     1      -7.963  10.519  65.609  1.00  0.00     0.000 HD 
HETATM   18  C   UNL     1      -8.066  10.744  67.693  1.00  0.00    -0.114 C  
HETATM   19  O   UNL     1      -8.470  11.394  68.642  1.00  0.00    -0.155 OA 
BRANCH  18  20
HETATM   20  C   UNL     1      -6.975   9.658  67.866  1.00  0.00    -0.079 C  
HETATM   21  N   UNL     1      -7.164   8.781  68.936  1.00  0.00    -0.073 N  
HETATM   22  O   UNL     1      -6.031   9.590  67.096  1.00  0.00    -0.051 OA 
HETATM   23  H   UNL     1      -7.768   9.034  69.718  1.00  0.00     0.000 HD 
BRANCH  21  24
HETATM   24  C   UNL     1      -6.476   7.496  68.908  1.00  0.00    -0.044 C  
BRANCH  24  25
HETATM   25  C   UNL     1      -7.219   6.364  68.148  1.00  0.00    -0.085 C  
BRANCH  25  26
HETATM   26  N   UNL     1      -8.656   6.081  68.648  1.00  0.00    -0.112 N  
BRANCH  26  27
HETATM   27  C   UNL     1      -9.482   5.359  67.542  1.00  0.00    -0.121 C  
HETATM   28  C   UNL     1     -10.685   6.132  67.020  1.00  0.00    -0.423 C  
ENDBRANCH  26  27
BRANCH  26  29
HETATM   29  C   UNL     1      -8.549   5.215  69.933  1.00  0.00    -0.100 C  
HETATM   30  C   UNL     1      -8.131   5.960  71.188  1.00  0.00    -0.121 C  
ENDBRANCH  26  29
BRANCH  26  31
HETATM   31  C   UNL     1      -9.395   7.432  68.976  1.00  0.00    -0.145 C  
BRANCH  31  32
HETATM   32  C   UNL     1     -10.466   7.446  70.054  1.00  0.00    -0.233 A  
HETATM   33  C   UNL     1     -11.613   6.633  69.933  1.00  0.00    -0.393 A  
HETATM   34  C   UNL     1     -12.672   6.725  70.843  1.00  0.00    -0.127 A  
HETATM   35  C   UNL     1     -12.618   7.644  71.882  1.00  0.00    -0.332 A  
HETATM   36  C   UNL     1     -11.491   8.444  72.036  1.00  0.00    -0.418 A  
HETATM   37  C   UNL     1     -10.421   8.342  71.140  1.00  0.00    -0.212 A  
HETATM   38 CL   UNL     1      -9.073   9.385  71.420  1.00  0.00    -0.036 Cl 
ENDBRANCH  31  32
ENDBRANCH  26  31
ENDBRANCH  25  26
ENDBRANCH  24  25
ENDBRANCH  21  24
ENDBRANCH  18  20
ENDBRANCH  15  16
ENDBRANCH  14  15
ENDBRANCH   3  14
ENDBRANCH   2   3
TORSDOF 15
ENDMDL
MODEL      395
REMARK 921   NORMALIZED FREE ENERGY PREDICTED BY IDOCK:   -1.90 KCAL/MOL
REMARK 922        TOTAL FREE ENERGY PREDICTED BY IDOCK:   -6.23 KCAL/MOL
REMARK 923 INTER-LIGAND FREE ENERGY PREDICTED BY IDOCK:   -6.52 KCAL/MOL
REMARK 924 INTRA-LIGAND FREE ENERGY PREDICTED BY IDOCK:    0.29 KCAL/MOL
REMARK 927      BINDING AFFINITY PREDICTED BY RF-SCORE:    0.00 PKD
ROOT
HETATM    1  C   UNL     1      -9.633   7.169  74.467  1.00  0.00    -0.034 C  
HETATM    2  C   UNL     1      -9.824   7.653  73.037  1.00  0.00    -0.261 C  
ENDROOT
BRANCH   2   3
HETATM    3  N   UNL     1     -10.631   6.699  72.103  1.00  0.00    -0.209 N  
BRANCH   3   4
HETATM    4  C   UNL     1     -11.147   5.473  72.912  1.00  0.00    -0.299 C  
HETATM    5  C   UNL     1     -10.483   4.155  72.602  1.00  0.00    -0.228 C  
ENDBRANCH   3   4
BRANCH   3   6
HETATM    6  C   UNL     1      -9.705   6.094  71.022  1.00  0.00    -0.177 C  
BRANCH   6   7
HETATM    7  C   UNL     1      -8.498   6.840  70.461  1.00  0.00    -0.138 A  
HETATM    8  C   UNL     1      -6.104   7.358  70.665  1.00  0.00    -0.035 A  
HETATM    9  C   UNL     1      -8.530   7.755  69.395  1.00  0.00    -0.134 A  
HETATM   10  C   UNL     1      -7.234   6.625  71.050  1.00  0.00    -0.078 A  
HETATM   11  C   UNL     1      -7.394   8.444  68.965  1.00  0.00    -0.088 A  
HETATM   12 CL   UNL     1      -7.036   5.460  72.314  1.00  0.00    -0.084 Cl 
HETATM   13  C   UNL     1      -6.186   8.266  69.616  1.00  0.00    -0.032 A  
ENDBRANCH   6   7
ENDBRANCH   3   6
BRANCH   3  14
HETATM   14  C   UNL     1     -11.789   7.580  71.483  1.00  0.00    -0.295 C  
BRANCH  14  15
HETATM   15  C   UNL     1     -11.933   9.045  72.023  1.00  0.00    -0.363 C  
BRANCH  15  16
HETATM   16  N   UNL     1     -11.344  10.122  71.241  1.00  0.00    -0.266 N  
HETATM   17  H   UNL     1     -10.817  10.863  71.704  1.00  0.00     0.000 HD 
HETATM   18  C   UNL     1     -11.504  10.136  69.859  1.00  0.00    -0.254 C  
HETATM   19  O   UNL     1     -11.949   9.197  69.221  1.00  0.00     0.761 OA 
BRANCH  18  20
HETATM   20  C   UNL     1     -10.958  11.403  69.154  1.00  0.00    -0.236 C  
HETATM   21  N   UNL     1     -10.432  11.201  67.877  1.00  0.00    -0.182 N  
HETATM   22  O   UNL     1     -11.008  12.493  69.699  1.00  0.00    -0.006 OA 
HETATM   23  H   UNL     1     -10.131  10.274  67.576  1.00  0.00     0.000 HD 
BRANCH  21  24
HETATM   24  C   UNL     1     -10.325  12.347  66.982  1.00  0.00    -0.220 C  
BRANCH  24  25
HETATM   25  C   UNL     1     -11.086  13.620  67.442  1.00  0.00    -0.282 C  
BRANCH  25  26
HETATM   26  N   UNL     1     -10.441  14.957  67.002  1.00  0.00    -0.268 N  
BRANCH  26  27
HETATM   27  C   UNL     1      -9.037  15.121  67.656  1.00  0.00    -0.180 C  
HETATM   28  C   UNL     1      -7.912  15.484  66.696  1.00  0.00    -0.134 C  
ENDBRANCH  26  27
BRANCH  26  29
HETATM   29  C   UNL     1     -10.347  14.949  65.451  1.00  0.00    -0.388 C  
HETATM   30  C   UNL     1     -11.669  14.799  64.719  1.00  0.00    -0.422 C  
ENDBRANCH  26  29
BRANCH  26  31
HETATM   31  C   UNL     1     -11.323  16.170  67.477  1.00  0.00     0.002 C  
BRANCH  31  32
HETATM   32  C   UNL     1     -10.694  17.551  67.566  1.00  0.00    -0.280 A  
HETATM   33  C   UNL     1     -10.350  18.101  68.819  1.00  0.00    -0.270 A  
HETATM   34  C   UNL     1      -9.894  19.418  68.938  1.00  0.00    -0.523 A  
HETATM   35  C   UNL     1      -9.789  20.222  67.811  1.00  0.00    -0.534 A  
HETATM   36  C   UNL     1     -10.103  19.699  66.561  1.00  0.00    -0.568 A  
HETATM   37  C   UNL     1     -10.542  18.377  66.435  1.00  0.00    -0.309 A  
HETATM   38 CL   UNL     1     -10.909  17.831  64.838  1.00  0.00     0.493 Cl 
ENDBRANCH  31  32
ENDBRANCH  26  31
ENDBRANCH  25  26
ENDBRANCH  24  25
ENDBRANCH  21  24
ENDBRANCH  18  20
ENDBRANCH  15  16
ENDBRANCH  14  15
ENDBRANCH   3  14
ENDBRANCH   2   3
TORSDOF 15
ENDMDL
MODEL      396
REMARK 921   NORMALIZED FREE ENERGY PREDICTED BY IDOCK:   -1.88 KCAL/MOL
REMARK 922        TOTAL FREE ENERGY PREDICTED BY IDOCK:   -6.19 KCAL/MOL
REMARK 923 INTER-LIGAND FREE ENERGY PREDICTED BY IDOCK:   -5.59 KCAL/MOL
REMARK 924 INTRA-LIGAND FREE ENERGY PREDICTED BY IDOCK:   -0.61 KCAL/MOL
REMARK 927      BINDING AFFINITY PREDICTED BY RF-SCORE:    0.00 PKD
ROOT
HETATM    1  C   UNL     1      -9.825  14.183  65.644  1.00  0.00    -0.278 C  
HETATM    2  C   UNL     1      -9.806  12.817  66.315  1.00  0.00    -0.267 C  
ENDROOT
BRANCH   2   3
HETATM    3  N   UNL     1      -9.952  12.824  67.868  1.00  0.00    -0.222 N  
BRANCH   3   4
HETATM    4  C   UNL     1     -11.333  12.233  68.276  1.00  0.00    -0.289 C  
HETATM    5  C   UNL     1     -12.144  13.064  69.238  1.00  0.00    -0.251 C  
ENDBRANCH   3   4
BRANCH   3   6
HETATM    6  C   UNL     1      -9.973  14.276  68.400  1.00  0.00    -0.240 C  
BRANCH   6   7
HETATM    7  C   UNL     1      -8.705  15.030  68.788  1.00  0.00    -0.186 A  
HETATM    8  C   UNL     1      -7.504  17.173  68.846  1.00  0.00    -0.241 A  
HETATM    9  C   UNL     1      -7.534  14.444  69.296  1.00  0.00    -0.060 A  
HETATM   10  C   UNL     1      -8.669  16.430  68.620  1.00  0.00    -0.234 A  
HETATM   11  C   UNL     1      -6.387  15.187  69.582  1.00  0.00    -0.146 A  
HETATM   12 CL   UNL     1     -10.072  17.291  68.085  1.00  0.00    -0.306 Cl 
HETATM   13  C   UNL     1      -6.362  16.548  69.333  1.00  0.00    -0.205 A  
ENDBRANCH   6   7
ENDBRANCH   3   6
BRANCH   3  14
HETATM   14  C   UNL     1      -8.722  11.997  68.421  1.00  0.00    -0.147 C  
BRANCH  14  15
HETATM   15  C   UNL     1      -9.044  10.810  69.393  1.00  0.00     0.040 C  
BRANCH  15  16
HETATM   16  N   UNL     1      -8.282   9.579  69.246  1.00  0.00    -0.105 N  
HETATM   17  H   UNL     1      -8.391   9.004  68.410  1.00  0.00     0.000 HD 
HETATM   18  C   UNL     1      -7.401   9.191  70.251  1.00  0.00    -0.090 C  
HETATM   19  O   UNL     1      -7.074   9.912  71.179  1.00  0.00    -0.327 OA 
BRANCH  18  20
HETATM   20  C   UNL     1      -6.757   7.797  70.048  1.00  0.00    -0.045 C  
HETATM   21  N   UNL     1      -7.592   6.824  69.497  1.00  0.00    -0.097 N  
HETATM   22  O   UNL     1      -5.592   7.595  70.349  1.00  0.00    -0.023 OA 
HETATM   23  H   UNL     1      -8.607   6.922  69.537  1.00  0.00     0.000 HD 
BRANCH  21  24
HETATM   24  C   UNL     1      -6.979   5.664  68.861  1.00  0.00    -0.067 C  
BRANCH  24  25
HETATM   25  C   UNL     1      -7.753   4.328  69.033  1.00  0.00    -0.054 C  
BRANCH  25  26
HETATM   26  N   UNL     1      -9.028   4.200  68.164  1.00  0.00    -0.110 N  
BRANCH  26  27
HETATM   27  C   UNL     1      -9.504   2.719  68.116  1.00  0.00    -0.157 C  
HETATM   28  C   UNL     1      -8.622   1.728  68.864  1.00  0.00    -0.096 C  
ENDBRANCH  26  27
BRANCH  26  29
HETATM   29  C   UNL     1     -10.114   5.126  68.778  1.00  0.00    -0.161 C  
HETATM   30  C   UNL     1     -10.795   6.068  67.802  1.00  0.00    -0.380 C  
ENDBRANCH  26  29
BRANCH  26  31
HETATM   31  C   UNL     1      -8.725   4.643  66.684  1.00  0.00    -0.111 C  
BRANCH  31  32
HETATM   32  C   UNL     1      -8.481   3.577  65.629  1.00  0.00    -0.108 A  
HETATM   33  C   UNL     1      -7.281   2.835  65.625  1.00  0.00    -0.066 A  
HETATM   34  C   UNL     1      -6.977   1.943  64.591  1.00  0.00    -0.043 A  
HETATM   35  C   UNL     1      -7.855   1.787  63.527  1.00  0.00    -0.060 A  
HETATM   36  C   UNL     1      -9.054   2.492  63.515  1.00  0.00    -0.093 A  
HETATM   37  C   UNL     1      -9.371   3.370  64.556  1.00  0.00    -0.143 A  
HETATM   38 CL   UNL     1     -10.882   4.198  64.439  1.00  0.00    -0.217 Cl 
ENDBRANCH  31  32
ENDBRANCH  26  31
ENDBRANCH  25  26
ENDBRANCH  24  25
ENDBRANCH  21  24
ENDBRANCH  18  20
ENDBRANCH  15  16
ENDBRANCH  14  15
ENDBRANCH   3  14
ENDBRANCH   2   3
TORSDOF 15
ENDMDL
MODEL      397
REMARK 921   NORMALIZED FREE ENERGY PREDICTED BY IDOCK:   -1.88 KCAL/MOL
REMARK 922        TOTAL FREE ENERGY PREDICTED BY IDOCK:   -6.18 KCAL/MOL
REMARK 923 INTER-LIGAND FREE ENERGY PREDICTED BY IDOCK:   -6.87 KCAL/MOL
REMARK 924 INTRA-LIGAND FREE ENERGY PREDICTED BY IDOCK:    0.68 KCAL/MOL
REMARK 927      BINDING AFFINITY PREDICTED BY RF-SCORE:    0.00 PKD
ROOT
HETATM    1  C   UNL     1     -10.282  12.125  64.879  1.00  0.00    -0.309 C  
HETATM    2  C   UNL     1      -9.954  12.246  66.360  1.00  0.00    -0.228 C  
ENDROOT
BRANCH   2   3
HETATM    3  N   UNL     1     -11.065  12.885  67.249  1.00  0.00    -0.265 N  
BRANCH   3   4
HETATM    4  C   UNL     1     -11.959  13.826  66.389  1.00  0.00    -0.438 C  
HETATM    5  C   UNL     1     -12.983  13.144  65.518  1.00  0.00    -0.005 C  
ENDBRANCH   3   4
BRANCH   3   6
HETATM    6  C   UNL     1     -10.435  13.809  68.317  1.00  0.00    -0.248 C  
BRANCH   6   7
HETATM    7  C   UNL     1     -11.250  14.449  69.436  1.00  0.00    -0.317 A  
HETATM    8  C   UNL     1     -11.336  16.106  71.250  1.00  0.00    -0.347 A  
HETATM    9  C   UNL     1     -12.525  14.034  69.855  1.00  0.00    -0.301 A  
HETATM   10  C   UNL     1     -10.698  15.542  70.138  1.00  0.00    -0.329 A  
HETATM   11  C   UNL     1     -13.194  14.633  70.924  1.00  0.00    -0.392 A  
HETATM   12 CL   UNL     1      -9.172  16.211  69.670  1.00  0.00    -0.053 Cl 
HETATM   13  C   UNL     1     -12.590  15.651  71.639  1.00  0.00    -0.512 A  
ENDBRANCH   6   7
ENDBRANCH   3   6
BRANCH   3  14
HETATM   14  C   UNL     1     -11.856  11.673  67.889  1.00  0.00    -0.203 C  
BRANCH  14  15
HETATM   15  C   UNL     1     -11.266  11.059  69.206  1.00  0.00    -0.257 C  
BRANCH  15  16
HETATM   16  N   UNL     1     -11.395   9.623  69.407  1.00  0.00    -0.441 N  
HETATM   17  H   UNL     1     -11.523   9.002  68.608  1.00  0.00     0.000 HD 
HETATM   18  C   UNL     1     -11.343   9.102  70.697  1.00  0.00    -0.273 C  
HETATM   19  O   UNL     1     -11.003   9.748  71.674  1.00  0.00    -0.240 OA 
BRANCH  18  20
HETATM   20  C   UNL     1     -11.635   7.584  70.797  1.00  0.00    -0.277 C  
HETATM   21  N   UNL     1     -11.471   6.862  69.613  1.00  0.00    -0.555 N  
HETATM   22  O   UNL     1     -11.973   7.079  71.854  1.00  0.00    -0.294 OA 
HETATM   23  H   UNL     1     -11.487   7.331  68.708  1.00  0.00     0.000 HD 
BRANCH  21  24
HETATM   24  C   UNL     1     -11.276   5.420  69.703  1.00  0.00     0.668 C  
BRANCH  24  25
HETATM   25  C   UNL     1      -9.946   4.971  70.365  1.00  0.00    -0.247 C  
BRANCH  25  26
HETATM   26  N   UNL     1      -8.681   5.203  69.503  1.00  0.00    -0.098 N  
BRANCH  26  27
HETATM   27  C   UNL     1      -8.331   3.917  68.698  1.00  0.00    -0.078 C  
HETATM   28  C   UNL     1      -9.274   2.741  68.909  1.00  0.00    -0.224 C  
ENDBRANCH  26  27
BRANCH  26  29
HETATM   29  C   UNL     1      -8.966   6.404  68.559  1.00  0.00    -0.125 C  
HETATM   30  C   UNL     1      -8.373   6.293  67.166  1.00  0.00    -0.109 C  
ENDBRANCH  26  29
BRANCH  26  31
HETATM   31  C   UNL     1      -7.447   5.530  70.423  1.00  0.00    -0.079 C  
BRANCH  31  32
HETATM   32  C   UNL     1      -6.969   6.968  70.536  1.00  0.00    -0.062 A  
HETATM   33  C   UNL     1      -7.495   7.821  71.529  1.00  0.00    -0.077 A  
HETATM   34  C   UNL     1      -7.171   9.182  71.570  1.00  0.00     0.027 A  
HETATM   35  C   UNL     1      -6.329   9.725  70.609  1.00  0.00    -0.105 A  
HETATM   36  C   UNL     1      -5.781   8.903  69.630  1.00  0.00    -0.033 A  
HETATM   37  C   UNL     1      -6.088   7.539  69.596  1.00  0.00    -0.030 A  
HETATM   38 CL   UNL     1      -5.357   6.610  68.336  1.00  0.00    -0.011 Cl 
ENDBRANCH  31  32
ENDBRANCH  26  31
ENDBRANCH  25  26
ENDBRANCH  24  25
ENDBRANCH  21  24
ENDBRANCH  18  20
ENDBRANCH  15  16
ENDBRANCH  14  15
ENDBRANCH   3  14
ENDBRANCH   2   3
TORSDOF 15
ENDMDL
MODEL      398
REMARK 921   NORMALIZED FREE ENERGY PREDICTED BY IDOCK:   -1.82 KCAL/MOL
REMARK 922        TOTAL FREE ENERGY PREDICTED BY IDOCK:   -6.08 KCAL/MOL
REMARK 923 INTER-LIGAND FREE ENERGY PREDICTED BY IDOCK:   -6.51 KCAL/MOL
REMARK 924 INTRA-LIGAND FREE ENERGY PREDICTED BY IDOCK:    0.43 KCAL/MOL
REMARK 927      BINDING AFFINITY PREDICTED BY RF-SCORE:    0.00 PKD
ROOT
HETATM    1  C   UNL     1     -11.271   7.279  72.686  1.00  0.00    -0.355 C  
HETATM    2  C   UNL     1     -10.739   6.112  71.867  1.00  0.00    -0.232 C  
ENDROOT
BRANCH   2   3
HETATM    3  N   UNL     1      -9.552   6.442  70.911  1.00  0.00    -0.175 N  
BRANCH   3   4
HETATM    4  C   UNL     1     -10.090   6.788  69.492  1.00  0.00    -0.178 C  
HETATM    5  C   UNL     1     -11.369   6.098  69.089  1.00  0.00    -0.303 C  
ENDBRANCH   3   4
BRANCH   3   6
HETATM    6  C   UNL     1      -8.666   5.192  70.701  1.00  0.00    -0.127 C  
BRANCH   6   7
HETATM    7  C   UNL     1      -7.662   5.076  69.558  1.00  0.00    -0.067 A  
HETATM    8  C   UNL     1      -6.919   3.835  67.571  1.00  0.00    -0.055 A  
HETATM    9  C   UNL     1      -6.525   5.884  69.388  1.00  0.00    -0.042 A  
HETATM   10  C   UNL     1      -7.857   4.075  68.583  1.00  0.00    -0.068 A  
HETATM   11  C   UNL     1      -5.617   5.689  68.346  1.00  0.00    -0.008 A  
HETATM   12 CL   UNL     1      -9.263   3.067  68.621  1.00  0.00    -0.214 Cl 
HETATM   13  C   UNL     1      -5.798   4.649  67.452  1.00  0.00    -0.022 A  
ENDBRANCH   6   7
ENDBRANCH   3   6
BRANCH   3  14
HETATM   14  C   UNL     1      -8.764   7.632  71.596  1.00  0.00    -0.116 C  
BRANCH  14  15
HETATM   15  C   UNL     1      -9.396   9.062  71.478  1.00  0.00    -0.224 C  
BRANCH  15  16
HETATM   16  N   UNL     1      -8.889   9.950  70.443  1.00  0.00    -0.315 N  
HETATM   17  H   UNL     1      -9.536  10.467  69.847  1.00  0.00     0.000 HD 
HETATM   18  C   UNL     1      -7.515  10.091  70.270  1.00  0.00    -0.129 C  
HETATM   19  O   UNL     1      -6.687   9.663  71.058  1.00  0.00    -0.225 OA 
BRANCH  18  20
HETATM   20  C   UNL     1      -7.097  10.948  69.049  1.00  0.00    -0.095 C  
HETATM   21  N   UNL     1      -8.102  11.752  68.508  1.00  0.00    -0.176 N  
HETATM   22  O   UNL     1      -5.957  10.911  68.618  1.00  0.00    -0.043 OA 
HETATM   23  H   UNL     1      -9.087  11.547  68.682  1.00  0.00     0.000 HD 
BRANCH  21  24
HETATM   24  C   UNL     1      -7.712  12.893  67.689  1.00  0.00    -0.162 C  
BRANCH  24  25
HETATM   25  C   UNL     1      -8.799  13.407  66.707  1.00  0.00    -0.132 C  
BRANCH  25  26
HETATM   26  N   UNL     1      -9.764  14.461  67.303  1.00  0.00    -0.229 N  
BRANCH  26  27
HETATM   27  C   UNL     1     -10.474  15.250  66.163  1.00  0.00    -0.309 C  
HETATM   28  C   UNL     1     -11.130  14.393  65.090  1.00  0.00    -0.365 C  
ENDBRANCH  26  27
BRANCH  26  29
HETATM   29  C   UNL     1     -10.790  13.712  68.198  1.00  0.00    -0.246 C  
HETATM   30  C   UNL     1     -11.911  14.567  68.761  1.00  0.00    -0.350 C  
ENDBRANCH  26  29
BRANCH  26  31
HETATM   31  C   UNL     1      -8.965  15.505  68.168  1.00  0.00    -0.179 C  
BRANCH  31  32
HETATM   32  C   UNL     1      -8.003  16.456  67.475  1.00  0.00    -0.172 A  
HETATM   33  C   UNL     1      -8.491  17.492  66.651  1.00  0.00    -0.288 A  
HETATM   34  C   UNL     1      -7.627  18.296  65.900  1.00  0.00    -0.164 A  
HETATM   35  C   UNL     1      -6.257  18.072  65.940  1.00  0.00    -0.283 A  
HETATM   36  C   UNL     1      -5.748  17.070  66.759  1.00  0.00    -0.210 A  
HETATM   37  C   UNL     1      -6.606  16.276  67.526  1.00  0.00    -0.164 A  
HETATM   38 CL   UNL     1      -5.870  15.058  68.504  1.00  0.00    -0.091 Cl 
ENDBRANCH  31  32
ENDBRANCH  26  31
ENDBRANCH  25  26
ENDBRANCH  24  25
ENDBRANCH  21  24
ENDBRANCH  18  20
ENDBRANCH  15  16
ENDBRANCH  14  15
ENDBRANCH   3  14
ENDBRANCH   2   3
TORSDOF 15
ENDMDL
MODEL      399
REMARK 921   NORMALIZED FREE ENERGY PREDICTED BY IDOCK:   -1.81 KCAL/MOL
REMARK 922        TOTAL FREE ENERGY PREDICTED BY IDOCK:   -6.07 KCAL/MOL
REMARK 923 INTER-LIGAND FREE ENERGY PREDICTED BY IDOCK:   -5.05 KCAL/MOL
REMARK 924 INTRA-LIGAND FREE ENERGY PREDICTED BY IDOCK:   -1.01 KCAL/MOL
REMARK 927      BINDING AFFINITY PREDICTED BY RF-SCORE:    0.00 PKD
ROOT
HETATM    1  C   UNL     1      -6.797   6.150  69.847  1.00  0.00    -0.058 C  
HETATM    2  C   UNL     1      -8.082   5.338  69.765  1.00  0.00    -0.087 C  
ENDROOT
BRANCH   2   3
HETATM    3  N   UNL     1      -8.015   3.904  70.374  1.00  0.00    -0.050 N  
BRANCH   3   4
HETATM    4  C   UNL     1      -7.128   3.909  71.653  1.00  0.00    -0.038 C  
HETATM    5  C   UNL     1      -5.767   3.276  71.511  1.00  0.00    -0.012 C  
ENDBRANCH   3   4
BRANCH   3   6
HETATM    6  C   UNL     1      -7.296   2.939  69.402  1.00  0.00    -0.044 C  
BRANCH   6   7
HETATM    7  C   UNL     1      -7.392   3.076  67.885  1.00  0.00    -0.053 A  
HETATM    8  C   UNL     1      -8.501   2.374  65.808  1.00  0.00    -0.099 A  
HETATM    9  C   UNL     1      -6.523   3.831  67.080  1.00  0.00    -0.041 A  
HETATM   10  C   UNL     1      -8.419   2.388  67.206  1.00  0.00    -0.095 A  
HETATM   11  C   UNL     1      -6.637   3.871  65.689  1.00  0.00    -0.041 A  
HETATM   12 CL   UNL     1      -9.612   1.492  68.083  1.00  0.00    -0.222 Cl 
HETATM   13  C   UNL     1      -7.609   3.122  65.049  1.00  0.00    -0.077 A  
ENDBRANCH   6   7
ENDBRANCH   3   6
BRANCH   3  14
HETATM   14  C   UNL     1      -9.515   3.480  70.646  1.00  0.00    -0.173 C  
BRANCH  14  15
HETATM   15  C   UNL     1     -10.381   4.456  71.515  1.00  0.00    -0.026 C  
BRANCH  15  16
HETATM   16  N   UNL     1     -10.486   5.843  71.086  1.00  0.00    -0.223 N  
HETATM   17  H   UNL     1     -10.658   6.065  70.106  1.00  0.00     0.000 HD 
HETATM   18  C   UNL     1     -10.349   6.864  72.022  1.00  0.00    -0.199 C  
HETATM   19  O   UNL     1     -10.335   6.679  73.227  1.00  0.00    -0.210 OA 
BRANCH  18  20
HETATM   20  C   UNL     1     -10.336   8.294  71.426  1.00  0.00    -0.213 C  
HETATM   21  N   UNL     1     -10.832   8.407  70.126  1.00  0.00    -0.240 N  
HETATM   22  O   UNL     1      -9.923   9.240  72.076  1.00  0.00    -0.164 OA 
HETATM   23  H   UNL     1     -10.883   7.594  69.513  1.00  0.00     0.000 HD 
BRANCH  21  24
HETATM   24  C   UNL     1     -11.277   9.717  69.666  1.00  0.00    -0.178 C  
BRANCH  24  25
HETATM   25  C   UNL     1     -10.168  10.801  69.580  1.00  0.00    -0.113 C  
BRANCH  25  26
HETATM   26  N   UNL     1      -9.311  10.750  68.292  1.00  0.00    -0.154 N  
BRANCH  26  27
HETATM   27  C   UNL     1      -9.121  12.183  67.711  1.00  0.00    -0.189 C  
HETATM   28  C   UNL     1     -10.400  12.992  67.548  1.00  0.00    -0.224 C  
ENDBRANCH  26  27
BRANCH  26  29
HETATM   29  C   UNL     1      -7.947  10.101  68.656  1.00  0.00    -0.103 C  
HETATM   30  C   UNL     1      -6.753  10.607  67.866  1.00  0.00    -0.064 C  
ENDBRANCH  26  29
BRANCH  26  31
HETATM   31  C   UNL     1     -10.034   9.890  67.190  1.00  0.00    -0.200 C  
BRANCH  31  32
HETATM   32  C   UNL     1      -9.352   9.684  65.848  1.00  0.00    -0.275 A  
HETATM   33  C   UNL     1      -9.513  10.627  64.811  1.00  0.00    -0.306 A  
HETATM   34  C   UNL     1      -9.005  10.397  63.528  1.00  0.00    -0.247 A  
HETATM   35  C   UNL     1      -8.342   9.210  63.245  1.00  0.00    -0.193 A  
HETATM   36  C   UNL     1      -8.152   8.271  64.254  1.00  0.00    -0.147 A  
HETATM   37  C   UNL     1      -8.641   8.506  65.543  1.00  0.00    -0.180 A  
HETATM   38 CL   UNL     1      -8.354   7.273  66.718  1.00  0.00    -0.116 Cl 
ENDBRANCH  31  32
ENDBRANCH  26  31
ENDBRANCH  25  26
ENDBRANCH  24  25
ENDBRANCH  21  24
ENDBRANCH  18  20
ENDBRANCH  15  16
ENDBRANCH  14  15
ENDBRANCH   3  14
ENDBRANCH   2   3
TORSDOF 15
ENDMDL
MODEL      400
REMARK 921   NORMALIZED FREE ENERGY PREDICTED BY IDOCK:   -1.80 KCAL/MOL
REMARK 922        TOTAL FREE ENERGY PREDICTED BY IDOCK:   -6.04 KCAL/MOL
REMARK 923 INTER-LIGAND FREE ENERGY PREDICTED BY IDOCK:   -6.36 KCAL/MOL
REMARK 924 INTRA-LIGAND FREE ENERGY PREDICTED BY IDOCK:    0.32 KCAL/MOL
REMARK 927      BINDING AFFINITY PREDICTED BY RF-SCORE:    0.00 PKD
ROOT
HETATM    1  C   UNL     1     -12.687  13.817  66.058  1.00  0.00    -0.407 C  
HETATM    2  C   UNL     1     -12.154  13.937  67.478  1.00  0.00    -0.331 C  
ENDROOT
BRANCH   2   3
HETATM    3  N   UNL     1     -11.032  12.925  67.867  1.00  0.00    -0.233 N  
BRANCH   3   4
HETATM    4  C   UNL     1     -11.607  11.479  67.897  1.00  0.00    -0.282 C  
HETATM    5  C   UNL     1     -11.808  10.881  69.267  1.00  0.00    -0.395 C  
ENDBRANCH   3   4
BRANCH   3   6
HETATM    6  C   UNL     1     -10.550  13.187  69.313  1.00  0.00     0.140 C  
BRANCH   6   7
HETATM    7  C   UNL     1     -11.302  14.094  70.281  1.00  0.00    -0.093 A  
HETATM    8  C   UNL     1     -11.543  16.337  71.257  1.00  0.00    -0.402 A  
HETATM    9  C   UNL     1     -12.305  13.679  71.173  1.00  0.00    -0.403 A  
HETATM   10  C   UNL     1     -10.976  15.466  70.317  1.00  0.00    -0.315 A  
HETATM   11  C   UNL     1     -12.918  14.555  72.071  1.00  0.00    -0.417 A  
HETATM   12 CL   UNL     1      -9.821  16.128  69.212  1.00  0.00    -0.246 Cl 
HETATM   13  C   UNL     1     -12.519  15.878  72.133  1.00  0.00    -0.540 A  
ENDBRANCH   6   7
ENDBRANCH   3   6
BRANCH   3  14
HETATM   14  C   UNL     1      -9.881  13.126  66.801  1.00  0.00    -0.251 C  
BRANCH  14  15
HETATM   15  C   UNL     1      -9.799  12.077  65.638  1.00  0.00    -0.243 C  
BRANCH  15  16
HETATM   16  N   UNL     1      -8.534  11.389  65.427  1.00  0.00    -0.382 N  
HETATM   17  H   UNL     1      -8.343  10.930  64.536  1.00  0.00     0.000 HD 
HETATM   18  C   UNL     1      -7.587  11.361  66.446  1.00  0.00    -0.024 C  
HETATM   19  O   UNL     1      -7.661  12.041  67.456  1.00  0.00    -0.127 OA 
BRANCH  18  20
HETATM   20  C   UNL     1      -6.346  10.480  66.156  1.00  0.00    -0.119 C  
HETATM   21  N   UNL     1      -6.020   9.557  67.151  1.00  0.00    -0.052 N  
HETATM   22  O   UNL     1      -5.722  10.600  65.115  1.00  0.00    -0.139 OA 
HETATM   23  H   UNL     1      -6.353   9.678  68.107  1.00  0.00     0.000 HD 
BRANCH  21  24
HETATM   24  C   UNL     1      -5.190   8.413  66.790  1.00  0.00    -0.032 C  
BRANCH  24  25
HETATM   25  C   UNL     1      -5.963   7.178  66.252  1.00  0.00    -0.036 C  
BRANCH  25  26
HETATM   26  N   UNL     1      -6.700   6.353  67.335  1.00  0.00    -0.058 N  
BRANCH  26  27
HETATM   27  C   UNL     1      -6.022   6.551  68.722  1.00  0.00    -0.022 C  
HETATM   28  C   UNL     1      -5.126   5.406  69.177  1.00  0.00     0.000 C  
ENDBRANCH  26  27
BRANCH  26  29
HETATM   29  C   UNL     1      -8.182   6.818  67.356  1.00  0.00    -0.122 C  
HETATM   30  C   UNL     1      -8.795   7.106  65.997  1.00  0.00    -0.154 C  
ENDBRANCH  26  29
BRANCH  26  31
HETATM   31  C   UNL     1      -6.628   4.818  66.993  1.00  0.00    -0.050 C  
BRANCH  31  32
HETATM   32  C   UNL     1      -7.767   3.910  67.425  1.00  0.00    -0.079 A  
HETATM   33  C   UNL     1      -8.471   4.165  68.621  1.00  0.00    -0.101 A  
HETATM   34  C   UNL     1      -9.433   3.273  69.107  1.00  0.00    -0.189 A  
HETATM   35  C   UNL     1      -9.701   2.097  68.420  1.00  0.00     0.035 A  
HETATM   36  C   UNL     1      -9.035   1.829  67.228  1.00  0.00    -0.153 A  
HETATM   37  C   UNL     1      -8.086   2.728  66.728  1.00  0.00    -0.081 A  
HETATM   38 CL   UNL     1      -7.316   2.296  65.244  1.00  0.00    -0.061 Cl 
ENDBRANCH  31  32
ENDBRANCH  26  31
ENDBRANCH  25  26
ENDBRANCH  24  25
ENDBRANCH  21  24
ENDBRANCH  18  20
ENDBRANCH  15  16
ENDBRANCH  14  15
ENDBRANCH   3  14
ENDBRANCH   2   3
TORSDOF 15
ENDMDL
MODEL      401
REMARK 921   NORMALIZED FREE ENERGY PREDICTED BY IDOCK:   -1.70 KCAL/MOL
REMARK 922        TOTAL FREE ENERGY PREDICTED BY IDOCK:   -5.84 KCAL/MOL
REMARK 923 INTER-LIGAND FREE ENERGY PREDICTED BY IDOCK:   -5.03 KCAL/MOL
REMARK 924 INTRA-LIGAND FREE ENERGY PREDICTED BY IDOCK:   -0.81 KCAL/MOL
REMARK 927      BINDING AFFINITY PREDICTED BY RF-SCORE:    0.00 PKD
ROOT
HETATM    1  C   UNL     1     -12.920  14.891  65.913  1.00  0.00     0.731 C  
HETATM    2  C   UNL     1     -11.961  13.815  66.400  1.00  0.00    -0.438 C  
ENDROOT
BRANCH   2   3
HETATM    3  N   UNL     1     -10.691  14.330  67.146  1.00  0.00    -0.279 N  
BRANCH   3   4
HETATM    4  C   UNL     1     -10.689  13.812  68.614  1.00  0.00    -0.256 C  
HETATM    5  C   UNL     1     -12.045  13.552  69.220  1.00  0.00    -0.335 C  
ENDBRANCH   3   4
BRANCH   3   6
HETATM    6  C   UNL     1     -10.729  15.871  67.273  1.00  0.00    -0.306 C  
BRANCH   6   7
HETATM    7  C   UNL     1      -9.471  16.733  67.221  1.00  0.00    -0.231 A  
HETATM    8  C   UNL     1      -8.053  18.399  68.341  1.00  0.00    -0.327 A  
HETATM    9  C   UNL     1      -8.609  16.849  66.118  1.00  0.00    -0.277 A  
HETATM   10  C   UNL     1      -9.126  17.499  68.355  1.00  0.00    -0.276 A  
HETATM   11  C   UNL     1      -7.502  17.699  66.119  1.00  0.00    -0.334 A  
HETATM   12 CL   UNL     1     -10.051  17.383  69.813  1.00  0.00     0.171 Cl 
HETATM   13  C   UNL     1      -7.237  18.494  67.220  1.00  0.00    -0.215 A  
ENDBRANCH   6   7
ENDBRANCH   3   6
BRANCH   3  14
HETATM   14  C   UNL     1      -9.456  13.825  66.295  1.00  0.00    -0.202 C  
BRANCH  14  15
HETATM   15  C   UNL     1      -8.616  12.645  66.896  1.00  0.00    -0.151 C  
BRANCH  15  16
HETATM   16  N   UNL     1      -9.096  11.287  66.683  1.00  0.00    -0.174 N  
HETATM   17  H   UNL     1      -9.312  10.961  65.741  1.00  0.00     0.000 HD 
HETATM   18  C   UNL     1      -9.256  10.436  67.772  1.00  0.00    -0.142 C  
HETATM   19  O   UNL     1      -8.841  10.684  68.891  1.00  0.00    -0.147 OA 
BRANCH  18  20
HETATM   20  C   UNL     1      -9.907   9.070  67.439  1.00  0.00    -0.190 C  
HETATM   21  N   UNL     1      -9.452   8.458  66.269  1.00  0.00    -0.263 N  
HETATM   22  O   UNL     1     -10.749   8.581  68.173  1.00  0.00    -0.157 OA 
HETATM   23  H   UNL     1      -8.993   9.002  65.539  1.00  0.00     0.000 HD 
BRANCH  21  24
HETATM   24  C   UNL     1      -9.650   7.021  66.117  1.00  0.00     0.057 C  
BRANCH  24  25
HETATM   25  C   UNL     1      -9.435   6.183  67.407  1.00  0.00    -0.114 C  
BRANCH  25  26
HETATM   26  N   UNL     1      -8.037   5.529  67.531  1.00  0.00    -0.101 N  
BRANCH  26  27
HETATM   27  C   UNL     1      -7.060   6.480  68.282  1.00  0.00    -0.083 C  
HETATM   28  C   UNL     1      -6.287   7.449  67.397  1.00  0.00    -0.055 C  
ENDBRANCH  26  27
BRANCH  26  29
HETATM   29  C   UNL     1      -8.210   4.182  68.285  1.00  0.00    -0.088 C  
HETATM   30  C   UNL     1      -9.581   3.947  68.893  1.00  0.00    -0.200 C  
ENDBRANCH  26  29
BRANCH  26  31
HETATM   31  C   UNL     1      -7.430   5.266  66.102  1.00  0.00    -0.083 C  
BRANCH  31  32
HETATM   32  C   UNL     1      -7.804   3.992  65.364  1.00  0.00    -0.089 A  
HETATM   33  C   UNL     1      -9.067   3.866  64.748  1.00  0.00    -0.141 A  
HETATM   34  C   UNL     1      -9.485   2.659  64.177  1.00  0.00    -0.132 A  
HETATM   35  C   UNL     1      -8.659   1.545  64.226  1.00  0.00    -0.084 A  
HETATM   36  C   UNL     1      -7.400   1.646  64.809  1.00  0.00    -0.053 A  
HETATM   37  C   UNL     1      -6.971   2.856  65.364  1.00  0.00    -0.053 A  
HETATM   38 CL   UNL     1      -5.393   2.871  66.068  1.00  0.00    -0.012 Cl 
ENDBRANCH  31  32
ENDBRANCH  26  31
ENDBRANCH  25  26
ENDBRANCH  24  25
ENDBRANCH  21  24
ENDBRANCH  18  20
ENDBRANCH  15  16
ENDBRANCH  14  15
ENDBRANCH   3  14
ENDBRANCH   2   3
TORSDOF 15
ENDMDL
MODEL      402
REMARK 921   NORMALIZED FREE ENERGY PREDICTED BY IDOCK:   -1.61 KCAL/MOL
REMARK 922        TOTAL FREE ENERGY PREDICTED BY IDOCK:   -5.69 KCAL/MOL
REMARK 923 INTER-LIGAND FREE ENERGY PREDICTED BY IDOCK:   -6.43 KCAL/MOL
REMARK 924 INTRA-LIGAND FREE ENERGY PREDICTED BY IDOCK:    0.74 KCAL/MOL
REMARK 927      BINDING AFFINITY PREDICTED BY RF-SCORE:    0.00 PKD
ROOT
HETATM    1  C   UNL     1     -13.341   8.810  72.500  1.00  0.00    -0.403 C  
HETATM    2  C   UNL     1     -12.918   8.673  71.045  1.00  0.00     0.051 C  
ENDROOT
BRANCH   2   3
HETATM    3  N   UNL     1     -11.444   8.218  70.810  1.00  0.00    -0.269 N  
BRANCH   3   4
HETATM    4  C   UNL     1     -10.648   8.279  72.146  1.00  0.00    -0.310 C  
HETATM    5  C   UNL     1      -9.195   8.663  72.028  1.00  0.00    -0.338 C  
ENDBRANCH   3   4
BRANCH   3   6
HETATM    6  C   UNL     1     -10.717   9.212  69.874  1.00  0.00    -0.231 C  
BRANCH   6   7
HETATM    7  C   UNL     1     -11.212  10.637  69.643  1.00  0.00    -0.351 A  
HETATM    8  C   UNL     1     -11.541  12.483  68.054  1.00  0.00    -0.395 A  
HETATM    9  C   UNL     1     -11.666  11.513  70.642  1.00  0.00    -0.133 A  
HETATM   10  C   UNL     1     -11.210  11.150  68.328  1.00  0.00    -0.279 A  
HETATM   11  C   UNL     1     -12.056  12.825  70.367  1.00  0.00    -0.382 A  
HETATM   12 CL   UNL     1     -10.758  10.150  66.990  1.00  0.00    -0.291 Cl 
HETATM   13  C   UNL     1     -11.969  13.320  69.078  1.00  0.00    -0.336 A  
ENDBRANCH   6   7
ENDBRANCH   3   6
BRANCH   3  14
HETATM   14  C   UNL     1     -11.534   6.764  70.193  1.00  0.00    -0.349 C  
BRANCH  14  15
HETATM   15  C   UNL     1     -10.178   6.033  69.899  1.00  0.00    -0.205 C  
BRANCH  15  16
HETATM   16  N   UNL     1      -9.974   5.482  68.567  1.00  0.00    -0.147 N  
HETATM   17  H   UNL     1      -9.329   4.704  68.427  1.00  0.00     0.000 HD 
HETATM   18  C   UNL     1     -10.664   6.022  67.486  1.00  0.00    -0.301 C  
HETATM   19  O   UNL     1     -11.584   6.814  67.599  1.00  0.00     0.082 OA 
BRANCH  18  20
HETATM   20  C   UNL     1     -10.257   5.450  66.105  1.00  0.00    -0.138 C  
HETATM   21  N   UNL     1      -9.085   5.976  65.559  1.00  0.00    -0.358 N  
HETATM   22  O   UNL     1     -10.929   4.591  65.560  1.00  0.00    -0.247 OA 
HETATM   23  H   UNL     1      -8.720   6.876  65.872  1.00  0.00     0.000 HD 
BRANCH  21  24
HETATM   24  C   UNL     1      -8.394   5.208  64.530  1.00  0.00    -0.137 C  
BRANCH  24  25
HETATM   25  C   UNL     1      -6.877   5.505  64.388  1.00  0.00    -0.047 C  
BRANCH  25  26
HETATM   26  N   UNL     1      -6.351   6.644  65.296  1.00  0.00    -0.041 N  
BRANCH  26  27
HETATM   27  C   UNL     1      -5.483   6.059  66.449  1.00  0.00    -0.009 C  
HETATM   28  C   UNL     1      -6.151   4.971  67.278  1.00  0.00    -0.031 C  
ENDBRANCH  26  27
BRANCH  26  29
HETATM   29  C   UNL     1      -5.531   7.618  64.406  1.00  0.00    -0.033 C  
HETATM   30  C   UNL     1      -5.253   7.134  62.994  1.00  0.00    -0.033 C  
ENDBRANCH  26  29
BRANCH  26  31
HETATM   31  C   UNL     1      -7.554   7.412  65.959  1.00  0.00    -0.088 C  
BRANCH  31  32
HETATM   32  C   UNL     1      -7.298   8.754  66.623  1.00  0.00    -0.082 A  
HETATM   33  C   UNL     1      -7.145   8.842  68.023  1.00  0.00    -0.079 A  
HETATM   34  C   UNL     1      -7.040  10.077  68.671  1.00  0.00    -0.078 A  
HETATM   35  C   UNL     1      -7.105  11.254  67.937  1.00  0.00    -0.078 A  
HETATM   36  C   UNL     1      -7.237  11.197  66.554  1.00  0.00    -0.124 A  
HETATM   37  C   UNL     1      -7.323   9.963  65.900  1.00  0.00    -0.108 A  
HETATM   38 CL   UNL     1      -7.489  10.005  64.181  1.00  0.00    -0.133 Cl 
ENDBRANCH  31  32
ENDBRANCH  26  31
ENDBRANCH  25  26
ENDBRANCH  24  25
ENDBRANCH  21  24
ENDBRANCH  18  20
ENDBRANCH  15  16
ENDBRANCH  14  15
ENDBRANCH   3  14
ENDBRANCH   2   3
TORSDOF 15
ENDMDL
MODEL      403
REMARK 921   NORMALIZED FREE ENERGY PREDICTED BY IDOCK:   -1.47 KCAL/MOL
REMARK 922        TOTAL FREE ENERGY PREDICTED BY IDOCK:   -5.41 KCAL/MOL
REMARK 923 INTER-LIGAND FREE ENERGY PREDICTED BY IDOCK:   -5.30 KCAL/MOL
REMARK 924 INTRA-LIGAND FREE ENERGY PREDICTED BY IDOCK:   -0.11 KCAL/MOL
REMARK 927      BINDING AFFINITY PREDICTED BY RF-SCORE:    0.00 PKD
ROOT
HETATM    1  C   UNL     1     -12.925   8.951  71.846  1.00  0.00    -0.436 C  
HETATM    2  C   UNL     1     -12.111   7.691  72.098  1.00  0.00    -0.286 C  
ENDROOT
BRANCH   2   3
HETATM    3  N   UNL     1     -10.619   7.749  71.647  1.00  0.00    -0.212 N  
BRANCH   3   4
HETATM    4  C   UNL     1     -10.449   7.030  70.276  1.00  0.00    -0.208 C  
HETATM    5  C   UNL     1     -11.632   6.222  69.808  1.00  0.00    -0.330 C  
ENDBRANCH   3   4
BRANCH   3   6
HETATM    6  C   UNL     1      -9.729   6.945  72.624  1.00  0.00    -0.149 C  
BRANCH   6   7
HETATM    7  C   UNL     1      -9.123   5.592  72.264  1.00  0.00    -0.144 A  
HETATM    8  C   UNL     1      -9.291   3.144  72.400  1.00  0.00    -0.163 A  
HETATM    9  C   UNL     1      -7.885   5.398  71.629  1.00  0.00    -0.111 A  
HETATM   10  C   UNL     1      -9.835   4.420  72.596  1.00  0.00    -0.154 A  
HETATM   11  C   UNL     1      -7.365   4.128  71.375  1.00  0.00    -0.051 A  
HETATM   12 CL   UNL     1     -11.412   4.516  73.302  1.00  0.00    -0.366 Cl 
HETATM   13  C   UNL     1      -8.054   3.000  71.784  1.00  0.00    -0.058 A  
ENDBRANCH   6   7
ENDBRANCH   3   6
BRANCH   3  14
HETATM   14  C   UNL     1     -10.239   9.284  71.608  1.00  0.00    -0.201 C  
BRANCH  14  15
HETATM   15  C   UNL     1     -10.006   9.922  70.194  1.00  0.00    -0.238 C  
BRANCH  15  16
HETATM   16  N   UNL     1      -8.940   9.377  69.366  1.00  0.00    -0.148 N  
HETATM   17  H   UNL     1      -9.161   8.906  68.490  1.00  0.00     0.000 HD 
HETATM   18  C   UNL     1      -7.616   9.505  69.777  1.00  0.00    -0.110 C  
HETATM   19  O   UNL     1      -7.262  10.216  70.703  1.00  0.00    -0.317 OA 
BRANCH  18  20
HETATM   20  C   UNL     1      -6.586   8.764  68.890  1.00  0.00    -0.053 C  
HETATM   21  N   UNL     1      -7.070   7.639  68.220  1.00  0.00    -0.078 N  
HETATM   22  O   UNL     1      -5.438   9.166  68.793  1.00  0.00    -0.037 OA 
HETATM   23  H   UNL     1      -7.912   7.161  68.541  1.00  0.00     0.000 HD 
BRANCH  21  24
HETATM   24  C   UNL     1      -6.343   7.163  67.049  1.00  0.00    -0.053 C  
BRANCH  24  25
HETATM   25  C   UNL     1      -6.283   5.620  66.888  1.00  0.00    -0.034 C  
BRANCH  25  26
HETATM   26  N   UNL     1      -7.471   5.002  66.111  1.00  0.00    -0.085 N  
BRANCH  26  27
HETATM   27  C   UNL     1      -6.953   4.183  64.892  1.00  0.00    -0.054 C  
HETATM   28  C   UNL     1      -7.920   3.136  64.355  1.00  0.00    -0.082 C  
ENDBRANCH  26  27
BRANCH  26  29
HETATM   29  C   UNL     1      -8.268   4.107  67.099  1.00  0.00    -0.100 C  
HETATM   30  C   UNL     1      -7.430   3.180  67.961  1.00  0.00    -0.053 C  
ENDBRANCH  26  29
BRANCH  26  31
HETATM   31  C   UNL     1      -8.404   6.138  65.549  1.00  0.00    -0.147 C  
BRANCH  31  32
HETATM   32  C   UNL     1      -7.912   6.996  64.395  1.00  0.00    -0.101 A  
HETATM   33  C   UNL     1      -7.072   6.446  63.403  1.00  0.00    -0.054 A  
HETATM   34  C   UNL     1      -6.501   7.244  62.406  1.00  0.00    -0.061 A  
HETATM   35  C   UNL     1      -6.738   8.612  62.389  1.00  0.00    -0.095 A  
HETATM   36  C   UNL     1      -7.577   9.177  63.344  1.00  0.00    -0.108 A  
HETATM   37  C   UNL     1      -8.166   8.380  64.331  1.00  0.00    -0.138 A  
HETATM   38 CL   UNL     1      -9.187   9.183  65.470  1.00  0.00    -0.285 Cl 
ENDBRANCH  31  32
ENDBRANCH  26  31
ENDBRANCH  25  26
ENDBRANCH  24  25
ENDBRANCH  21  24
ENDBRANCH  18  20
ENDBRANCH  15  16
ENDBRANCH  14  15
ENDBRANCH   3  14
ENDBRANCH   2   3
TORSDOF 15
ENDMDL
MODEL      404
REMARK 921   NORMALIZED FREE ENERGY PREDICTED BY IDOCK:   -1.32 KCAL/MOL
REMARK 922        TOTAL FREE ENERGY PREDICTED BY IDOCK:   -5.14 KCAL/MOL
REMARK 923 INTER-LIGAND FREE ENERGY PREDICTED BY IDOCK:   -6.20 KCAL/MOL
REMARK 924 INTRA-LIGAND FREE ENERGY PREDICTED BY IDOCK:    1.06 KCAL/MOL
REMARK 927      BINDING AFFINITY PREDICTED BY RF-SCORE:    0.00 PKD
ROOT
HETATM    1  C   UNL     1     -12.660  13.738  65.906  1.00  0.00    -0.494 C  
HETATM    2  C   UNL     1     -12.134  13.753  67.334  1.00  0.00    -0.343 C  
ENDROOT
BRANCH   2   3
HETATM    3  N   UNL     1     -11.137  12.610  67.699  1.00  0.00    -0.250 N  
BRANCH   3   4
HETATM    4  C   UNL     1     -11.885  11.246  67.747  1.00  0.00    -0.084 C  
HETATM    5  C   UNL     1     -12.037  10.629  69.115  1.00  0.00    -0.152 C  
ENDBRANCH   3   4
BRANCH   3   6
HETATM    6  C   UNL     1     -10.592  12.810  69.133  1.00  0.00     0.054 C  
BRANCH   6   7
HETATM    7  C   UNL     1     -11.337  13.616  70.193  1.00  0.00     0.006 A  
HETATM    8  C   UNL     1     -11.550  15.740  71.410  1.00  0.00    -0.511 A  
HETATM    9  C   UNL     1     -12.350  13.119  71.029  1.00  0.00    -0.355 A  
HETATM   10  C   UNL     1     -10.991  14.971  70.382  1.00  0.00    -0.190 A  
HETATM   11  C   UNL     1     -12.955  13.899  72.016  1.00  0.00    -0.438 A  
HETATM   12 CL   UNL     1      -9.821  15.734  69.361  1.00  0.00    -0.270 Cl 
HETATM   13  C   UNL     1     -12.538  15.201  72.226  1.00  0.00    -0.422 A  
ENDBRANCH   6   7
ENDBRANCH   3   6
BRANCH   3  14
HETATM   14  C   UNL     1      -9.995  12.668  66.606  1.00  0.00    -0.242 C  
BRANCH  14  15
HETATM   15  C   UNL     1      -9.983  11.525  65.532  1.00  0.00    -0.242 C  
BRANCH  15  16
HETATM   16  N   UNL     1      -8.807  10.670  65.458  1.00  0.00    -0.183 N  
HETATM   17  H   UNL     1      -8.451  10.365  64.552  1.00  0.00     0.000 HD 
HETATM   18  C   UNL     1      -8.171  10.272  66.630  1.00  0.00    -0.125 C  
HETATM   19  O   UNL     1      -8.417  10.745  67.727  1.00  0.00    -0.118 OA 
BRANCH  18  20
HETATM   20  C   UNL     1      -7.023   9.251  66.432  1.00  0.00    -0.084 C  
HETATM   21  N   UNL     1      -7.099   8.101  67.220  1.00  0.00    -0.078 N  
HETATM   22  O   UNL     1      -6.132   9.459  65.626  1.00  0.00    -0.058 OA 
HETATM   23  H   UNL     1      -7.660   8.087  68.072  1.00  0.00     0.000 HD 
BRANCH  21  24
HETATM   24  C   UNL     1      -6.359   6.919  66.795  1.00  0.00    -0.045 C  
BRANCH  24  25
HETATM   25  C   UNL     1      -7.139   5.946  65.869  1.00  0.00    -0.074 C  
BRANCH  25  26
HETATM   26  N   UNL     1      -7.556   4.612  66.534  1.00  0.00    -0.086 N  
BRANCH  26  27
HETATM   27  C   UNL     1      -8.352   3.731  65.527  1.00  0.00    -0.105 C  
HETATM   28  C   UNL     1      -7.830   3.744  64.097  1.00  0.00    -0.085 C  
ENDBRANCH  26  27
BRANCH  26  29
HETATM   29  C   UNL     1      -6.262   3.897  67.013  1.00  0.00    -0.032 C  
HETATM   30  C   UNL     1      -5.834   4.209  68.436  1.00  0.00    -0.026 C  
ENDBRANCH  26  29
BRANCH  26  31
HETATM   31  C   UNL     1      -8.499   4.888  67.763  1.00  0.00    -0.104 C  
BRANCH  31  32
HETATM   32  C   UNL     1      -8.737   3.780  68.776  1.00  0.00    -0.138 A  
HETATM   33  C   UNL     1      -9.072   2.478  68.346  1.00  0.00    -0.227 A  
HETATM   34  C   UNL     1      -9.423   1.476  69.257  1.00  0.00    -0.146 A  
HETATM   35  C   UNL     1      -9.468   1.756  70.616  1.00  0.00    -0.179 A  
HETATM   36  C   UNL     1      -9.124   3.026  71.069  1.00  0.00    -0.185 A  
HETATM   37  C   UNL     1      -8.753   4.026  70.163  1.00  0.00    -0.071 A  
HETATM   38 CL   UNL     1      -8.349   5.566  70.831  1.00  0.00    -0.118 Cl 
ENDBRANCH  31  32
ENDBRANCH  26  31
ENDBRANCH  25  26
ENDBRANCH  24  25
ENDBRANCH  21  24
ENDBRANCH  18  20
ENDBRANCH  15  16
ENDBRANCH  14  15
ENDBRANCH   3  14
ENDBRANCH   2   3
TORSDOF 15
ENDMDL
MODEL      405
REMARK 921   NORMALIZED FREE ENERGY PREDICTED BY IDOCK:   -1.17 KCAL/MOL
REMARK 922        TOTAL FREE ENERGY PREDICTED BY IDOCK:   -4.86 KCAL/MOL
REMARK 923 INTER-LIGAND FREE ENERGY PREDICTED BY IDOCK:   -5.12 KCAL/MOL
REMARK 924 INTRA-LIGAND FREE ENERGY PREDICTED BY IDOCK:    0.26 KCAL/MOL
REMARK 927      BINDING AFFINITY PREDICTED BY RF-SCORE:    0.00 PKD
ROOT
HETATM    1  C   UNL     1     -12.454  14.200  66.561  1.00  0.00    -0.306 C  
HETATM    2  C   UNL     1     -12.045  13.656  67.922  1.00  0.00    -0.283 C  
ENDROOT
BRANCH   2   3
HETATM    3  N   UNL     1     -11.079  12.431  67.898  1.00  0.00    -0.224 N  
BRANCH   3   4
HETATM    4  C   UNL     1     -11.658  11.314  66.981  1.00  0.00     0.027 C  
HETATM    5  C   UNL     1     -10.875  10.026  66.941  1.00  0.00    -0.152 C  
ENDBRANCH   3   4
BRANCH   3   6
HETATM    6  C   UNL     1     -10.995  11.784  69.300  1.00  0.00    -0.175 C  
BRANCH   6   7
HETATM    7  C   UNL     1     -11.975  12.118  70.421  1.00  0.00    -0.360 A  
HETATM    8  C   UNL     1     -13.515  11.281  72.144  1.00  0.00    -0.197 A  
HETATM    9  C   UNL     1     -12.402  13.409  70.771  1.00  0.00    -0.433 A  
HETATM   10  C   UNL     1     -12.525  11.061  71.177  1.00  0.00    -0.397 A  
HETATM   11  C   UNL     1     -13.344  13.640  71.775  1.00  0.00    -0.469 A  
HETATM   12 CL   UNL     1     -12.019   9.428  70.911  1.00  0.00    -0.352 Cl 
HETATM   13  C   UNL     1     -13.920  12.575  72.445  1.00  0.00    -0.027 A  
ENDBRANCH   6   7
ENDBRANCH   3   6
BRANCH   3  14
HETATM   14  C   UNL     1      -9.684  12.992  67.407  1.00  0.00    -0.213 C  
BRANCH  14  15
HETATM   15  C   UNL     1      -9.221  12.580  65.967  1.00  0.00    -0.013 C  
BRANCH  15  16
HETATM   16  N   UNL     1      -7.940  11.903  65.828  1.00  0.00     0.018 N  
HETATM   17  H   UNL     1      -7.461  11.890  64.928  1.00  0.00     0.000 HD 
HETATM   18  C   UNL     1      -7.372  11.273  66.932  1.00  0.00    -0.145 C  
HETATM   19  O   UNL     1      -7.783  11.407  68.072  1.00  0.00    -0.103 OA 
BRANCH  18  20
HETATM   20  C   UNL     1      -6.085  10.466  66.629  1.00  0.00    -0.068 C  
HETATM   21  N   UNL     1      -6.082   9.146  67.082  1.00  0.00    -0.057 N  
HETATM   22  O   UNL     1      -5.156  10.974  66.023  1.00  0.00    -0.104 OA 
HETATM   23  H   UNL     1      -6.715   8.846  67.824  1.00  0.00     0.000 HD 
BRANCH  21  24
HETATM   24  C   UNL     1      -5.153   8.204  66.468  1.00  0.00    -0.027 C  
BRANCH  24  25
HETATM   25  C   UNL     1      -5.690   7.470  65.209  1.00  0.00    -0.037 C  
BRANCH  25  26
HETATM   26  N   UNL     1      -6.741   6.370  65.498  1.00  0.00    -0.047 N  
BRANCH  26  27
HETATM   27  C   UNL     1      -6.417   5.651  66.840  1.00  0.00    -0.047 C  
HETATM   28  C   UNL     1      -7.585   5.527  67.809  1.00  0.00    -0.088 C  
ENDBRANCH  26  27
BRANCH  26  29
HETATM   29  C   UNL     1      -8.137   7.050  65.541  1.00  0.00    -0.132 C  
HETATM   30  C   UNL     1      -8.239   8.376  64.809  1.00  0.00    -0.162 C  
ENDBRANCH  26  29
BRANCH  26  31
HETATM   31  C   UNL     1      -6.714   5.280  64.363  1.00  0.00    -0.047 C  
BRANCH  31  32
HETATM   32  C   UNL     1      -7.896   4.336  64.218  1.00  0.00    -0.085 A  
HETATM   33  C   UNL     1      -7.934   3.121  64.935  1.00  0.00    -0.082 A  
HETATM   34  C   UNL     1      -8.943   2.177  64.720  1.00  0.00    -0.123 A  
HETATM   35  C   UNL     1      -9.927   2.415  63.770  1.00  0.00    -0.142 A  
HETATM   36  C   UNL     1      -9.924   3.612  63.062  1.00  0.00    -0.153 A  
HETATM   37  C   UNL     1      -8.928   4.568  63.287  1.00  0.00    -0.132 A  
HETATM   38 CL   UNL     1      -9.016   6.017  62.351  1.00  0.00     0.213 Cl 
ENDBRANCH  31  32
ENDBRANCH  26  31
ENDBRANCH  25  26
ENDBRANCH  24  25
ENDBRANCH  21  24
ENDBRANCH  18  20
ENDBRANCH  15  16
ENDBRANCH  14  15
ENDBRANCH   3  14
ENDBRANCH   2   3
TORSDOF 15
ENDMDL
MODEL      406
REMARK 921   NORMALIZED FREE ENERGY PREDICTED BY IDOCK:   -0.80 KCAL/MOL
REMARK 922        TOTAL FREE ENERGY PREDICTED BY IDOCK:   -4.16 KCAL/MOL
REMARK 923 INTER-LIGAND FREE ENERGY PREDICTED BY IDOCK:   -5.19 KCAL/MOL
REMARK 924 INTRA-LIGAND FREE ENERGY PREDICTED BY IDOCK:    1.03 KCAL/MOL
REMARK 927      BINDING AFFINITY PREDICTED BY RF-SCORE:    0.00 PKD
ROOT
HETATM    1  C   UNL     1      -5.317   6.254  72.320  1.00  0.00    -0.031 C  
HETATM    2  C   UNL     1      -5.712   7.143  71.151  1.00  0.00    -0.035 C  
ENDROOT
BRANCH   2   3
HETATM    3  N   UNL     1      -7.176   6.976  70.638  1.00  0.00    -0.067 N  
BRANCH   3   4
HETATM    4  C   UNL     1      -8.124   6.655  71.831  1.00  0.00    -0.103 C  
HETATM    5  C   UNL     1      -9.503   7.259  71.754  1.00  0.00    -0.162 C  
ENDBRANCH   3   4
BRANCH   3   6
HETATM    6  C   UNL     1      -7.283   5.744  69.709  1.00  0.00    -0.069 C  
BRANCH   6   7
HETATM    7  C   UNL     1      -7.770   4.383  70.198  1.00  0.00    -0.049 A  
HETATM    8  C   UNL     1      -7.201   2.063  70.775  1.00  0.00    -0.033 A  
HETATM    9  C   UNL     1      -9.112   4.033  70.426  1.00  0.00    -0.183 A  
HETATM   10  C   UNL     1      -6.820   3.368  70.436  1.00  0.00    -0.033 A  
HETATM   11  C   UNL     1      -9.494   2.751  70.824  1.00  0.00    -0.219 A  
HETATM   12 CL   UNL     1      -5.127   3.689  70.280  1.00  0.00    -0.003 Cl 
HETATM   13  C   UNL     1      -8.542   1.757  70.973  1.00  0.00    -0.087 A  
ENDBRANCH   6   7
ENDBRANCH   3   6
BRANCH   3  14
HETATM   14  C   UNL     1      -7.530   8.326  69.894  1.00  0.00    -0.065 C  
BRANCH  14  15
HETATM   15  C   UNL     1      -8.792   8.313  68.963  1.00  0.00    -0.143 C  
BRANCH  15  16
HETATM   16  N   UNL     1      -8.626   8.736  67.580  1.00  0.00    -0.127 N  
HETATM   17  H   UNL     1      -8.407   9.708  67.364  1.00  0.00     0.000 HD 
HETATM   18  C   UNL     1      -8.768   7.805  66.555  1.00  0.00    -0.148 C  
HETATM   19  O   UNL     1      -8.838   6.602  66.739  1.00  0.00    -0.122 OA 
BRANCH  18  20
HETATM   20  C   UNL     1      -8.712   8.400  65.126  1.00  0.00    -0.083 C  
HETATM   21  N   UNL     1      -9.290   9.663  64.977  1.00  0.00    -0.283 N  
HETATM   22  O   UNL     1      -8.182   7.789  64.213  1.00  0.00    -0.121 OA 
HETATM   23  H   UNL     1      -9.971  10.008  65.653  1.00  0.00     0.000 HD 
BRANCH  21  24
HETATM   24  C   UNL     1      -8.895  10.475  63.833  1.00  0.00    -0.194 C  
BRANCH  24  25
HETATM   25  C   UNL     1      -9.724  11.772  63.625  1.00  0.00    -0.271 C  
BRANCH  25  26
HETATM   26  N   UNL     1     -10.134  12.496  64.930  1.00  0.00    -0.257 N  
BRANCH  26  27
HETATM   27  C   UNL     1     -11.402  11.831  65.542  1.00  0.00    -0.223 C  
HETATM   28  C   UNL     1     -12.723  12.244  64.908  1.00  0.00    -0.113 C  
ENDBRANCH  26  27
BRANCH  26  29
HETATM   29  C   UNL     1      -8.929  12.428  65.908  1.00  0.00     0.201 C  
HETATM   30  C   UNL     1      -9.266  12.009  67.328  1.00  0.00    -0.182 C  
ENDBRANCH  26  29
BRANCH  26  31
HETATM   31  C   UNL     1     -10.492  13.999  64.629  1.00  0.00    -0.373 C  
BRANCH  31  32
HETATM   32  C   UNL     1     -10.329  15.033  65.731  1.00  0.00    -0.354 A  
HETATM   33  C   UNL     1      -9.173  15.840  65.790  1.00  0.00    -0.255 A  
HETATM   34  C   UNL     1      -8.938  16.703  66.865  1.00  0.00    -0.244 A  
HETATM   35  C   UNL     1      -9.843  16.766  67.916  1.00  0.00    -0.257 A  
HETATM   36  C   UNL     1     -11.000  15.995  67.876  1.00  0.00    -0.327 A  
HETATM   37  C   UNL     1     -11.248  15.145  66.793  1.00  0.00    -0.285 A  
HETATM   38 CL   UNL     1     -12.712  14.230  66.845  1.00  0.00     0.109 Cl 
ENDBRANCH  31  32
ENDBRANCH  26  31
ENDBRANCH  25  26
ENDBRANCH  24  25
ENDBRANCH  21  24
ENDBRANCH  18  20
ENDBRANCH  15  16
ENDBRANCH  14  15
ENDBRANCH   3  14
ENDBRANCH   2   3
TORSDOF 15
ENDMDL
MODEL      407
REMARK 921   NORMALIZED FREE ENERGY PREDICTED BY IDOCK:   -0.80 KCAL/MOL
REMARK 922        TOTAL FREE ENERGY PREDICTED BY IDOCK:   -4.16 KCAL/MOL
REMARK 923 INTER-LIGAND FREE ENERGY PREDICTED BY IDOCK:   -3.43 KCAL/MOL
REMARK 924 INTRA-LIGAND FREE ENERGY PREDICTED BY IDOCK:   -0.72 KCAL/MOL
REMARK 927      BINDING AFFINITY PREDICTED BY RF-SCORE:    0.00 PKD
ROOT
HETATM    1  C   UNL     1     -11.811   4.903  64.774  1.00  0.00     2.239 C  
HETATM    2  C   UNL     1     -10.392   4.800  64.232  1.00  0.00     0.557 C  
ENDROOT
BRANCH   2   3
HETATM    3  N   UNL     1      -9.320   4.283  65.240  1.00  0.00    -0.154 N  
BRANCH   3   4
HETATM    4  C   UNL     1      -7.962   4.999  64.986  1.00  0.00    -0.101 C  
HETATM    5  C   UNL     1      -7.850   5.752  63.685  1.00  0.00    -0.106 C  
ENDBRANCH   3   4
BRANCH   3   6
HETATM    6  C   UNL     1      -9.027   2.785  64.992  1.00  0.00    -0.134 C  
BRANCH   6   7
HETATM    7  C   UNL     1      -7.704   2.289  64.415  1.00  0.00    -0.072 A  
HETATM    8  C   UNL     1      -5.352   1.709  64.827  1.00  0.00    -0.005 A  
HETATM    9  C   UNL     1      -7.448   2.052  63.055  1.00  0.00    -0.049 A  
HETATM   10  C   UNL     1      -6.626   2.054  65.295  1.00  0.00    -0.027 A  
HETATM   11  C   UNL     1      -6.195   1.648  62.588  1.00  0.00    -0.009 A  
HETATM   12 CL   UNL     1      -6.830   2.222  67.005  1.00  0.00    -0.039 Cl 
HETATM   13  C   UNL     1      -5.139   1.502  63.469  1.00  0.00    -0.004 A  
ENDBRANCH   6   7
ENDBRANCH   3   6
BRANCH   3  14
HETATM   14  C   UNL     1      -9.917   4.550  66.681  1.00  0.00    -0.230 C  
BRANCH  14  15
HETATM   15  C   UNL     1      -9.306   5.746  67.491  1.00  0.00    -0.111 C  
BRANCH  15  16
HETATM   16  N   UNL     1      -9.717   7.095  67.133  1.00  0.00    -0.154 N  
HETATM   17  H   UNL     1      -9.795   7.364  66.152  1.00  0.00     0.000 HD 
HETATM   18  C   UNL     1     -10.004   8.016  68.136  1.00  0.00    -0.185 C  
HETATM   19  O   UNL     1     -10.120   7.719  69.313  1.00  0.00    -0.188 OA 
BRANCH  18  20
HETATM   20  C   UNL     1     -10.289   9.454  67.636  1.00  0.00    -0.246 C  
HETATM   21  N   UNL     1      -9.239  10.073  66.955  1.00  0.00    -0.145 N  
HETATM   22  O   UNL     1     -11.372   9.981  67.829  1.00  0.00    -0.209 OA 
HETATM   23  H   UNL     1      -8.279   9.748  67.069  1.00  0.00     0.000 HD 
BRANCH  21  24
HETATM   24  C   UNL     1      -9.548  11.195  66.077  1.00  0.00    -0.217 C  
BRANCH  24  25
HETATM   25  C   UNL     1      -9.495  12.595  66.748  1.00  0.00    -0.237 C  
BRANCH  25  26
HETATM   26  N   UNL     1     -10.403  13.663  66.091  1.00  0.00    -0.290 N  
BRANCH  26  27
HETATM   27  C   UNL     1     -11.073  13.090  64.807  1.00  0.00    -0.322 C  
HETATM   28  C   UNL     1     -12.567  13.353  64.681  1.00  0.00    -0.322 C  
ENDBRANCH  26  27
BRANCH  26  29
HETATM   29  C   UNL     1     -11.465  14.091  67.141  1.00  0.00    -0.352 C  
HETATM   30  C   UNL     1     -12.148  12.954  67.880  1.00  0.00    -0.209 C  
ENDBRANCH  26  29
BRANCH  26  31
HETATM   31  C   UNL     1      -9.549  14.911  65.657  1.00  0.00    -0.223 C  
BRANCH  31  32
HETATM   32  C   UNL     1      -9.525  16.138  66.553  1.00  0.00    -0.289 A  
HETATM   33  C   UNL     1     -10.355  17.245  66.275  1.00  0.00    -0.323 A  
HETATM   34  C   UNL     1     -10.256  18.434  67.005  1.00  0.00    -0.402 A  
HETATM   35  C   UNL     1      -9.313  18.552  68.017  1.00  0.00    -0.321 A  
HETATM   36  C   UNL     1      -8.495  17.470  68.326  1.00  0.00    -0.266 A  
HETATM   37  C   UNL     1      -8.603  16.272  67.611  1.00  0.00    -0.173 A  
HETATM   38 CL   UNL     1      -7.537  14.995  68.072  1.00  0.00    -0.114 Cl 
ENDBRANCH  31  32
ENDBRANCH  26  31
ENDBRANCH  25  26
ENDBRANCH  24  25
ENDBRANCH  21  24
ENDBRANCH  18  20
ENDBRANCH  15  16
ENDBRANCH  14  15
ENDBRANCH   3  14
ENDBRANCH   2   3
TORSDOF 15
ENDMDL
MODEL      408
REMARK 921   NORMALIZED FREE ENERGY PREDICTED BY IDOCK:   -0.71 KCAL/MOL
REMARK 922        TOTAL FREE ENERGY PREDICTED BY IDOCK:   -3.99 KCAL/MOL
REMARK 923 INTER-LIGAND FREE ENERGY PREDICTED BY IDOCK:   -4.40 KCAL/MOL
REMARK 924 INTRA-LIGAND FREE ENERGY PREDICTED BY IDOCK:    0.41 KCAL/MOL
REMARK 927      BINDING AFFINITY PREDICTED BY RF-SCORE:    0.00 PKD
ROOT
HETATM    1  C   UNL     1     -10.602   5.607  66.340  1.00  0.00    -0.254 C  
HETATM    2  C   UNL     1      -9.929   4.499  67.138  1.00  0.00    -0.159 C  
ENDROOT
BRANCH   2   3
HETATM    3  N   UNL     1      -8.874   3.653  66.361  1.00  0.00    -0.121 N  
BRANCH   3   4
HETATM    4  C   UNL     1      -9.531   2.352  65.814  1.00  0.00     0.139 C  
HETATM    5  C   UNL     1      -8.720   1.581  64.804  1.00  0.00    -0.102 C  
ENDBRANCH   3   4
BRANCH   3   6
HETATM    6  C   UNL     1      -7.767   3.160  67.321  1.00  0.00    -0.074 C  
BRANCH   6   7
HETATM    7  C   UNL     1      -8.053   2.731  68.758  1.00  0.00    -0.069 A  
HETATM    8  C   UNL     1      -7.173   2.344  71.019  1.00  0.00    -0.033 A  
HETATM    9  C   UNL     1      -9.277   2.227  69.227  1.00  0.00    -0.190 A  
HETATM   10  C   UNL     1      -7.019   2.824  69.712  1.00  0.00    -0.034 A  
HETATM   11  C   UNL     1      -9.456   1.803  70.545  1.00  0.00    -0.163 A  
HETATM   12 CL   UNL     1      -5.487   3.510  69.290  1.00  0.00    -0.016 Cl 
HETATM   13  C   UNL     1      -8.398   1.837  71.436  1.00  0.00    -0.060 A  
ENDBRANCH   6   7
ENDBRANCH   3   6
BRANCH   3  14
HETATM   14  C   UNL     1      -8.310   4.601  65.227  1.00  0.00    -0.124 C  
BRANCH  14  15
HETATM   15  C   UNL     1      -7.170   5.597  65.636  1.00  0.00    -0.071 C  
BRANCH  15  16
HETATM   16  N   UNL     1      -6.820   5.692  67.046  1.00  0.00    -0.062 N  
HETATM   17  H   UNL     1      -6.405   4.893  67.526  1.00  0.00     0.000 HD 
HETATM   18  C   UNL     1      -7.054   6.878  67.735  1.00  0.00    -0.085 C  
HETATM   19  O   UNL     1      -7.363   7.925  67.191  1.00  0.00    -0.087 OA 
BRANCH  18  20
HETATM   20  C   UNL     1      -6.775   6.812  69.257  1.00  0.00    -0.053 C  
HETATM   21  N   UNL     1      -7.870   6.475  70.054  1.00  0.00    -0.109 N  
HETATM   22  O   UNL     1      -5.660   7.032  69.700  1.00  0.00    -0.015 OA 
HETATM   23  H   UNL     1      -8.823   6.592  69.710  1.00  0.00     0.000 HD 
BRANCH  21  24
HETATM   24  C   UNL     1      -7.619   5.953  71.392  1.00  0.00    -0.098 C  
BRANCH  24  25
HETATM   25  C   UNL     1      -6.936   6.944  72.373  1.00  0.00    -0.066 C  
BRANCH  25  26
HETATM   26  N   UNL     1      -7.878   7.550  73.442  1.00  0.00    -0.104 N  
BRANCH  26  27
HETATM   27  C   UNL     1      -8.728   6.431  74.112  1.00  0.00    -0.130 C  
HETATM   28  C   UNL     1      -7.960   5.176  74.501  1.00  0.00    -0.098 C  
ENDBRANCH  26  27
BRANCH  26  29
HETATM   29  C   UNL     1      -6.996   8.293  74.483  1.00  0.00    -0.168 C  
HETATM   30  C   UNL     1      -5.728   8.922  73.933  1.00  0.00    -0.116 C  
ENDBRANCH  26  29
BRANCH  26  31
HETATM   31  C   UNL     1      -8.880   8.563  72.774  1.00  0.00    -0.127 C  
BRANCH  31  32
HETATM   32  C   UNL     1     -10.162   8.034  72.154  1.00  0.00    -0.308 A  
HETATM   33  C   UNL     1     -10.901   7.017  72.795  1.00  0.00    -0.321 A  
HETATM   34  C   UNL     1     -12.009   6.422  72.183  1.00  0.00    -0.346 A  
HETATM   35  C   UNL     1     -12.394   6.815  70.908  1.00  0.00    -0.336 A  
HETATM   36  C   UNL     1     -11.695   7.829  70.261  1.00  0.00     0.031 A  
HETATM   37  C   UNL     1     -10.598   8.440  70.877  1.00  0.00    -0.204 A  
HETATM   38 CL   UNL     1      -9.800   9.683  69.983  1.00  0.00    -0.265 Cl 
ENDBRANCH  31  32
ENDBRANCH  26  31
ENDBRANCH  25  26
ENDBRANCH  24  25
ENDBRANCH  21  24
ENDBRANCH  18  20
ENDBRANCH  15  16
ENDBRANCH  14  15
ENDBRANCH   3  14
ENDBRANCH   2   3
TORSDOF 15
ENDMDL
MODEL      409
REMARK 921   NORMALIZED FREE ENERGY PREDICTED BY IDOCK:   -0.69 KCAL/MOL
REMARK 922        TOTAL FREE ENERGY PREDICTED BY IDOCK:   -3.95 KCAL/MOL
REMARK 923 INTER-LIGAND FREE ENERGY PREDICTED BY IDOCK:   -3.16 KCAL/MOL
REMARK 924 INTRA-LIGAND FREE ENERGY PREDICTED BY IDOCK:   -0.80 KCAL/MOL
REMARK 927      BINDING AFFINITY PREDICTED BY RF-SCORE:    0.00 PKD
ROOT
HETATM    1  C   UNL     1     -10.456   6.596  66.268  1.00  0.00     0.230 C  
HETATM    2  C   UNL     1      -9.775   5.296  66.672  1.00  0.00    -0.164 C  
ENDROOT
BRANCH   2   3
HETATM    3  N   UNL     1      -9.181   4.452  65.502  1.00  0.00    -0.141 N  
BRANCH   3   4
HETATM    4  C   UNL     1     -10.283   3.537  64.893  1.00  0.00     0.009 C  
HETATM    5  C   UNL     1     -10.628   3.796  63.449  1.00  0.00    -0.234 C  
ENDBRANCH   3   4
BRANCH   3   6
HETATM    6  C   UNL     1      -8.108   3.475  66.035  1.00  0.00    -0.093 C  
BRANCH   6   7
HETATM    7  C   UNL     1      -8.207   2.810  67.405  1.00  0.00    -0.086 A  
HETATM    8  C   UNL     1      -7.027   1.976  69.393  1.00  0.00    -0.033 A  
HETATM    9  C   UNL     1      -9.382   2.295  67.977  1.00  0.00    -0.251 A  
HETATM   10  C   UNL     1      -7.035   2.675  68.179  1.00  0.00    -0.048 A  
HETATM   11  C   UNL     1      -9.391   1.651  69.216  1.00  0.00    -0.171 A  
HETATM   12 CL   UNL     1      -5.534   3.343  67.633  1.00  0.00    -0.016 Cl 
HETATM   13  C   UNL     1      -8.211   1.467  69.913  1.00  0.00    -0.063 A  
ENDBRANCH   6   7
ENDBRANCH   3   6
BRANCH   3  14
HETATM   14  C   UNL     1      -8.588   5.498  64.473  1.00  0.00    -0.042 C  
BRANCH  14  15
HETATM   15  C   UNL     1      -7.232   6.184  64.862  1.00  0.00    -0.063 C  
BRANCH  15  16
HETATM   16  N   UNL     1      -6.751   6.022  66.226  1.00  0.00    -0.058 N  
HETATM   17  H   UNL     1      -6.476   5.100  66.567  1.00  0.00     0.000 HD 
HETATM   18  C   UNL     1      -6.666   7.131  67.062  1.00  0.00    -0.064 C  
HETATM   19  O   UNL     1      -6.790   8.281  66.673  1.00  0.00    -0.066 OA 
BRANCH  18  20
HETATM   20  C   UNL     1      -6.279   6.812  68.527  1.00  0.00    -0.030 C  
HETATM   21  N   UNL     1      -7.298   6.275  69.315  1.00  0.00    -0.089 N  
HETATM   22  O   UNL     1      -5.147   7.017  68.935  1.00  0.00    -0.012 OA 
HETATM   23  H   UNL     1      -8.278   6.394  69.055  1.00  0.00     0.000 HD 
BRANCH  21  24
HETATM   24  C   UNL     1      -6.930   5.539  70.518  1.00  0.00    -0.057 C  
BRANCH  24  25
HETATM   25  C   UNL     1      -6.266   6.388  71.636  1.00  0.00    -0.042 C  
BRANCH  25  26
HETATM   26  N   UNL     1      -7.176   6.683  72.854  1.00  0.00    -0.080 N  
BRANCH  26  27
HETATM   27  C   UNL     1      -8.428   5.757  72.831  1.00  0.00    -0.122 C  
HETATM   28  C   UNL     1      -9.708   6.382  73.368  1.00  0.00    -0.177 C  
ENDBRANCH  26  27
BRANCH  26  29
HETATM   29  C   UNL     1      -6.332   6.463  74.140  1.00  0.00    -0.070 C  
HETATM   30  C   UNL     1      -5.502   5.192  74.165  1.00  0.00    -0.019 C  
ENDBRANCH  26  29
BRANCH  26  31
HETATM   31  C   UNL     1      -7.691   8.169  72.802  1.00  0.00    -0.136 C  
BRANCH  31  32
HETATM   32  C   UNL     1      -8.192   8.731  71.482  1.00  0.00    -0.190 A  
HETATM   33  C   UNL     1      -9.426   8.307  70.946  1.00  0.00    -0.192 A  
HETATM   34  C   UNL     1      -9.847   8.709  69.673  1.00  0.00    -0.186 A  
HETATM   35  C   UNL     1      -9.035   9.528  68.900  1.00  0.00    -0.141 A  
HETATM   36  C   UNL     1      -7.822   9.977  69.411  1.00  0.00    -0.141 A  
HETATM   37  C   UNL     1      -7.407   9.593  70.691  1.00  0.00    -0.096 A  
HETATM   38 CL   UNL     1      -5.882  10.203  71.227  1.00  0.00    -0.023 Cl 
ENDBRANCH  31  32
ENDBRANCH  26  31
ENDBRANCH  25  26
ENDBRANCH  24  25
ENDBRANCH  21  24
ENDBRANCH  18  20
ENDBRANCH  15  16
ENDBRANCH  14  15
ENDBRANCH   3  14
ENDBRANCH   2   3
TORSDOF 15
ENDMDL
MODEL      410
REMARK 921   NORMALIZED FREE ENERGY PREDICTED BY IDOCK:   -0.68 KCAL/MOL
REMARK 922        TOTAL FREE ENERGY PREDICTED BY IDOCK:   -3.94 KCAL/MOL
REMARK 923 INTER-LIGAND FREE ENERGY PREDICTED BY IDOCK:   -5.23 KCAL/MOL
REMARK 924 INTRA-LIGAND FREE ENERGY PREDICTED BY IDOCK:    1.29 KCAL/MOL
REMARK 927      BINDING AFFINITY PREDICTED BY RF-SCORE:    0.00 PKD
ROOT
HETATM    1  C   UNL     1     -13.040   8.713  72.487  1.00  0.00    -0.339 C  
HETATM    2  C   UNL     1     -12.665   8.752  71.013  1.00  0.00    -0.038 C  
ENDROOT
BRANCH   2   3
HETATM    3  N   UNL     1     -11.274   8.143  70.653  1.00  0.00    -0.263 N  
BRANCH   3   4
HETATM    4  C   UNL     1     -10.469   7.848  71.953  1.00  0.00    -0.228 C  
HETATM    5  C   UNL     1      -8.979   8.053  71.863  1.00  0.00    -0.200 C  
ENDBRANCH   3   4
BRANCH   3   6
HETATM    6  C   UNL     1     -10.416   9.177  69.887  1.00  0.00    -0.223 C  
BRANCH   6   7
HETATM    7  C   UNL     1     -11.002  10.453  69.290  1.00  0.00    -0.287 A  
HETATM    8  C   UNL     1     -11.338  11.842  67.291  1.00  0.00    -0.393 A  
HETATM    9  C   UNL     1     -11.615  11.486  70.020  1.00  0.00    -0.364 A  
HETATM   10  C   UNL     1     -10.925  10.648  67.895  1.00  0.00    -0.295 A  
HETATM   11  C   UNL     1     -12.084  12.653  69.416  1.00  0.00    -0.236 A  
HETATM   12 CL   UNL     1     -10.275   9.417  66.867  1.00  0.00    -0.308 Cl 
HETATM   13  C   UNL     1     -11.922  12.845  68.055  1.00  0.00    -0.323 A  
ENDBRANCH   6   7
ENDBRANCH   3   6
BRANCH   3  14
HETATM   14  C   UNL     1     -11.577   6.852  69.790  1.00  0.00    -0.152 C  
BRANCH  14  15
HETATM   15  C   UNL     1     -10.382   5.869  69.541  1.00  0.00    -0.248 C  
BRANCH  15  16
HETATM   16  N   UNL     1     -10.329   5.167  68.267  1.00  0.00    -0.114 N  
HETATM   17  H   UNL     1      -9.860   4.263  68.198  1.00  0.00     0.000 HD 
HETATM   18  C   UNL     1     -10.922   5.735  67.143  1.00  0.00    -0.108 C  
HETATM   19  O   UNL     1     -11.658   6.706  67.186  1.00  0.00    -0.035 OA 
BRANCH  18  20
HETATM   20  C   UNL     1     -10.676   4.967  65.820  1.00  0.00    -0.079 C  
HETATM   21  N   UNL     1      -9.353   4.947  65.375  1.00  0.00    -0.188 N  
HETATM   22  O   UNL     1     -11.595   4.418  65.235  1.00  0.00     0.144 OA 
HETATM   23  H   UNL     1      -8.681   5.642  65.699  1.00  0.00     0.000 HD 
BRANCH  21  24
HETATM   24  C   UNL     1      -8.955   3.907  64.434  1.00  0.00    -0.128 C  
BRANCH  24  25
HETATM   25  C   UNL     1      -7.423   3.722  64.259  1.00  0.00    -0.071 C  
BRANCH  25  26
HETATM   26  N   UNL     1      -6.599   5.030  64.342  1.00  0.00    -0.041 N  
BRANCH  26  27
HETATM   27  C   UNL     1      -6.054   5.236  65.786  1.00  0.00    -0.033 C  
HETATM   28  C   UNL     1      -5.328   4.039  66.384  1.00  0.00    -0.013 C  
ENDBRANCH  26  27
BRANCH  26  29
HETATM   29  C   UNL     1      -5.443   4.928  63.309  1.00  0.00    -0.013 C  
HETATM   30  C   UNL     1      -5.229   3.551  62.705  1.00  0.00    -0.005 C  
ENDBRANCH  26  29
BRANCH  26  31
HETATM   31  C   UNL     1      -7.508   6.270  64.004  1.00  0.00    -0.083 C  
BRANCH  31  32
HETATM   32  C   UNL     1      -6.920   7.667  64.103  1.00  0.00    -0.061 A  
HETATM   33  C   UNL     1      -6.532   8.365  62.940  1.00  0.00    -0.087 A  
HETATM   34  C   UNL     1      -5.869   9.595  63.012  1.00  0.00    -0.100 A  
HETATM   35  C   UNL     1      -5.560  10.146  64.248  1.00  0.00    -0.122 A  
HETATM   36  C   UNL     1      -5.947   9.489  65.411  1.00  0.00    -0.064 A  
HETATM   37  C   UNL     1      -6.628   8.268  65.344  1.00  0.00    -0.052 A  
HETATM   38 CL   UNL     1      -7.058   7.535  66.847  1.00  0.00    -0.081 Cl 
ENDBRANCH  31  32
ENDBRANCH  26  31
ENDBRANCH  25  26
ENDBRANCH  24  25
ENDBRANCH  21  24
ENDBRANCH  18  20
ENDBRANCH  15  16
ENDBRANCH  14  15
ENDBRANCH   3  14
ENDBRANCH   2   3
TORSDOF 15
ENDMDL
MODEL      411
REMARK 921   NORMALIZED FREE ENERGY PREDICTED BY IDOCK:   -0.60 KCAL/MOL
REMARK 922        TOTAL FREE ENERGY PREDICTED BY IDOCK:   -3.78 KCAL/MOL
REMARK 923 INTER-LIGAND FREE ENERGY PREDICTED BY IDOCK:   -3.39 KCAL/MOL
REMARK 924 INTRA-LIGAND FREE ENERGY PREDICTED BY IDOCK:   -0.39 KCAL/MOL
REMARK 927      BINDING AFFINITY PREDICTED BY RF-SCORE:    0.00 PKD
ROOT
HETATM    1  C   UNL     1     -10.489  13.155  69.420  1.00  0.00     0.314 C  
HETATM    2  C   UNL     1      -9.910  11.749  69.351  1.00  0.00     0.574 C  
ENDROOT
BRANCH   2   3
HETATM    3  N   UNL     1     -10.953  10.590  69.304  1.00  0.00    -0.227 N  
BRANCH   3   4
HETATM    4  C   UNL     1     -11.982  10.752  70.461  1.00  0.00    -0.361 C  
HETATM    5  C   UNL     1     -13.283  10.009  70.292  1.00  0.00     0.203 C  
ENDBRANCH   3   4
BRANCH   3   6
HETATM    6  C   UNL     1     -10.263   9.233  69.579  1.00  0.00    -0.207 C  
BRANCH   6   7
HETATM    7  C   UNL     1      -9.968   8.730  70.989  1.00  0.00    -0.297 A  
HETATM    8  C   UNL     1      -8.282   8.304  72.726  1.00  0.00    -0.221 A  
HETATM    9  C   UNL     1     -10.902   8.135  71.853  1.00  0.00    -0.333 A  
HETATM   10  C   UNL     1      -8.653   8.845  71.489  1.00  0.00    -0.135 A  
HETATM   11  C   UNL     1     -10.552   7.648  73.113  1.00  0.00    -0.438 A  
HETATM   12 CL   UNL     1      -7.424   9.638  70.564  1.00  0.00    -0.156 Cl 
HETATM   13  C   UNL     1      -9.237   7.708  73.541  1.00  0.00    -0.331 A  
ENDBRANCH   6   7
ENDBRANCH   3   6
BRANCH   3  14
HETATM   14  C   UNL     1     -11.606  10.654  67.864  1.00  0.00    -0.047 C  
BRANCH  14  15
HETATM   15  C   UNL     1     -11.082   9.626  66.802  1.00  0.00     0.365 C  
BRANCH  15  16
HETATM   16  N   UNL     1      -9.716   9.142  66.935  1.00  0.00    -0.178 N  
HETATM   17  H   UNL     1      -9.536   8.218  67.328  1.00  0.00     0.000 HD 
HETATM   18  C   UNL     1      -8.658   9.946  66.523  1.00  0.00    -0.124 C  
HETATM   19  O   UNL     1      -8.799  10.968  65.874  1.00  0.00    -0.188 OA 
BRANCH  18  20
HETATM   20  C   UNL     1      -7.251   9.384  66.847  1.00  0.00    -0.087 C  
HETATM   21  N   UNL     1      -7.232   8.206  67.596  1.00  0.00    -0.090 N  
HETATM   22  O   UNL     1      -6.245   9.948  66.451  1.00  0.00    -0.065 OA 
HETATM   23  H   UNL     1      -8.039   7.930  68.157  1.00  0.00     0.000 HD 
BRANCH  21  24
HETATM   24  C   UNL     1      -6.032   7.379  67.559  1.00  0.00    -0.038 C  
BRANCH  24  25
HETATM   25  C   UNL     1      -6.234   5.899  67.981  1.00  0.00    -0.028 C  
BRANCH  25  26
HETATM   26  N   UNL     1      -6.851   4.991  66.889  1.00  0.00    -0.061 N  
BRANCH  26  27
HETATM   27  C   UNL     1      -6.848   5.721  65.513  1.00  0.00    -0.059 C  
HETATM   28  C   UNL     1      -5.677   5.382  64.601  1.00  0.00    -0.017 C  
ENDBRANCH  26  27
BRANCH  26  29
HETATM   29  C   UNL     1      -6.020   3.680  66.838  1.00  0.00    -0.024 C  
HETATM   30  C   UNL     1      -5.538   3.161  68.181  1.00  0.00    -0.018 C  
ENDBRANCH  26  29
BRANCH  26  31
HETATM   31  C   UNL     1      -8.350   4.659  67.239  1.00  0.00    -0.105 C  
BRANCH  31  32
HETATM   32  C   UNL     1      -8.647   3.696  68.377  1.00  0.00    -0.120 A  
HETATM   33  C   UNL     1      -9.082   2.382  68.106  1.00  0.00    -0.225 A  
HETATM   34  C   UNL     1      -9.487   1.521  69.132  1.00  0.00    -0.157 A  
HETATM   35  C   UNL     1      -9.485   1.959  70.449  1.00  0.00    -0.154 A  
HETATM   36  C   UNL     1      -9.042   3.244  70.746  1.00  0.00    -0.185 A  
HETATM   37  C   UNL     1      -8.618   4.102  69.726  1.00  0.00    -0.064 A  
HETATM   38 CL   UNL     1      -8.093   5.676  70.204  1.00  0.00    -0.101 Cl 
ENDBRANCH  31  32
ENDBRANCH  26  31
ENDBRANCH  25  26
ENDBRANCH  24  25
ENDBRANCH  21  24
ENDBRANCH  18  20
ENDBRANCH  15  16
ENDBRANCH  14  15
ENDBRANCH   3  14
ENDBRANCH   2   3
TORSDOF 15
ENDMDL
MODEL      412
REMARK 921   NORMALIZED FREE ENERGY PREDICTED BY IDOCK:   -0.55 KCAL/MOL
REMARK 922        TOTAL FREE ENERGY PREDICTED BY IDOCK:   -3.69 KCAL/MOL
REMARK 923 INTER-LIGAND FREE ENERGY PREDICTED BY IDOCK:   -6.01 KCAL/MOL
REMARK 924 INTRA-LIGAND FREE ENERGY PREDICTED BY IDOCK:    2.32 KCAL/MOL
REMARK 927      BINDING AFFINITY PREDICTED BY RF-SCORE:    0.00 PKD
ROOT
HETATM    1  C   UNL     1     -12.032  13.002  66.685  1.00  0.00    -0.453 C  
HETATM    2  C   UNL     1     -11.570  12.774  68.117  1.00  0.00    -0.336 C  
ENDROOT
BRANCH   2   3
HETATM    3  N   UNL     1     -10.567  11.597  68.324  1.00  0.00    -0.197 N  
BRANCH   3   4
HETATM    4  C   UNL     1     -11.116  10.305  67.652  1.00  0.00    -0.251 C  
HETATM    5  C   UNL     1     -10.655  10.052  66.239  1.00  0.00    -0.115 C  
ENDBRANCH   3   4
BRANCH   3   6
HETATM    6  C   UNL     1     -10.456  11.242  69.825  1.00  0.00     0.267 C  
BRANCH   6   7
HETATM    7  C   UNL     1     -11.478  10.365  70.542  1.00  0.00    -0.431 A  
HETATM    8  C   UNL     1     -13.401  10.249  72.067  1.00  0.00    -0.466 A  
HETATM    9  C   UNL     1     -11.490   8.960  70.537  1.00  0.00    -0.231 A  
HETATM   10  C   UNL     1     -12.498  10.987  71.291  1.00  0.00    -0.370 A  
HETATM   11  C   UNL     1     -12.425   8.217  71.260  1.00  0.00    -0.264 A  
HETATM   12 CL   UNL     1     -12.654  12.711  71.311  1.00  0.00    -0.408 Cl 
HETATM   13  C   UNL     1     -13.365   8.860  72.046  1.00  0.00    -0.471 A  
ENDBRANCH   6   7
ENDBRANCH   3   6
BRANCH   3  14
HETATM   14  C   UNL     1      -9.191  12.090  67.717  1.00  0.00    -0.190 C  
BRANCH  14  15
HETATM   15  C   UNL     1      -8.440  11.097  66.763  1.00  0.00    -0.153 C  
BRANCH  15  16
HETATM   16  N   UNL     1      -7.262  10.415  67.278  1.00  0.00    -0.088 N  
HETATM   17  H   UNL     1      -6.435  10.305  66.692  1.00  0.00     0.000 HD 
HETATM   18  C   UNL     1      -7.270   9.913  68.577  1.00  0.00    -0.076 C  
HETATM   19  O   UNL     1      -8.137  10.170  69.395  1.00  0.00    -0.133 OA 
BRANCH  18  20
HETATM   20  C   UNL     1      -6.019   9.085  68.961  1.00  0.00    -0.043 C  
HETATM   21  N   UNL     1      -6.001   8.595  70.268  1.00  0.00    -0.030 N  
HETATM   22  O   UNL     1      -5.130   8.880  68.151  1.00  0.00    -0.033 OA 
HETATM   23  H   UNL     1      -6.582   9.018  70.993  1.00  0.00     0.000 HD 
BRANCH  21  24
HETATM   24  C   UNL     1      -5.132   7.466  70.574  1.00  0.00    -0.023 C  
BRANCH  24  25
HETATM   25  C   UNL     1      -5.787   6.066  70.421  1.00  0.00    -0.021 C  
BRANCH  25  26
HETATM   26  N   UNL     1      -7.061   5.850  71.272  1.00  0.00    -0.071 N  
BRANCH  26  27
HETATM   27  C   UNL     1      -7.151   6.924  72.396  1.00  0.00    -0.070 C  
HETATM   28  C   UNL     1      -6.093   6.815  73.486  1.00  0.00    -0.062 C  
ENDBRANCH  26  27
BRANCH  26  29
HETATM   29  C   UNL     1      -8.286   5.923  70.319  1.00  0.00    -0.114 C  
HETATM   30  C   UNL     1      -7.998   5.603  68.863  1.00  0.00    -0.097 C  
ENDBRANCH  26  29
BRANCH  26  31
HETATM   31  C   UNL     1      -7.016   4.442  71.974  1.00  0.00    -0.054 C  
BRANCH  31  32
HETATM   32  C   UNL     1      -8.293   3.870  72.567  1.00  0.00    -0.098 A  
HETATM   33  C   UNL     1      -8.643   4.140  73.907  1.00  0.00    -0.094 A  
HETATM   34  C   UNL     1      -9.741   3.521  74.514  1.00  0.00    -0.157 A  
HETATM   35  C   UNL     1     -10.503   2.603  73.803  1.00  0.00    -0.232 A  
HETATM   36  C   UNL     1     -10.192   2.333  72.475  1.00  0.00    -0.230 A  
HETATM   37  C   UNL     1      -9.106   2.964  71.858  1.00  0.00    -0.091 A  
HETATM   38 CL   UNL     1      -8.806   2.552  70.208  1.00  0.00    -0.130 Cl 
ENDBRANCH  31  32
ENDBRANCH  26  31
ENDBRANCH  25  26
ENDBRANCH  24  25
ENDBRANCH  21  24
ENDBRANCH  18  20
ENDBRANCH  15  16
ENDBRANCH  14  15
ENDBRANCH   3  14
ENDBRANCH   2   3
TORSDOF 15
ENDMDL
MODEL      413
REMARK 921   NORMALIZED FREE ENERGY PREDICTED BY IDOCK:   -0.47 KCAL/MOL
REMARK 922        TOTAL FREE ENERGY PREDICTED BY IDOCK:   -3.55 KCAL/MOL
REMARK 923 INTER-LIGAND FREE ENERGY PREDICTED BY IDOCK:   -5.38 KCAL/MOL
REMARK 924 INTRA-LIGAND FREE ENERGY PREDICTED BY IDOCK:    1.84 KCAL/MOL
REMARK 927      BINDING AFFINITY PREDICTED BY RF-SCORE:    0.00 PKD
ROOT
HETATM    1  C   UNL     1     -13.018  14.074  70.423  1.00  0.00    -0.124 C  
HETATM    2  C   UNL     1     -11.592  13.544  70.425  1.00  0.00    -0.002 C  
ENDROOT
BRANCH   2   3
HETATM    3  N   UNL     1     -10.619  14.217  69.409  1.00  0.00    -0.144 N  
BRANCH   3   4
HETATM    4  C   UNL     1      -9.533  15.032  70.170  1.00  0.00     0.424 C  
HETATM    5  C   UNL     1      -8.134  14.941  69.615  1.00  0.00     0.018 C  
ENDBRANCH   3   4
BRANCH   3   6
HETATM    6  C   UNL     1     -11.371  15.266  68.557  1.00  0.00    -0.327 C  
BRANCH   6   7
HETATM    7  C   UNL     1     -10.691  16.509  67.991  1.00  0.00    -0.343 A  
HETATM    8  C   UNL     1      -9.354  17.495  66.179  1.00  0.00    -0.168 A  
HETATM    9  C   UNL     1     -10.588  17.749  68.642  1.00  0.00    -0.200 A  
HETATM   10  C   UNL     1     -10.093  16.432  66.715  1.00  0.00    -0.285 A  
HETATM   11  C   UNL     1      -9.904  18.832  68.087  1.00  0.00    -0.396 A  
HETATM   12 CL   UNL     1     -10.221  14.992  65.765  1.00  0.00    -0.333 Cl 
HETATM   13  C   UNL     1      -9.264  18.698  66.868  1.00  0.00    -0.305 A  
ENDBRANCH   6   7
ENDBRANCH   3   6
BRANCH   3  14
HETATM   14  C   UNL     1     -10.028  13.040  68.532  1.00  0.00    -0.172 C  
BRANCH  14  15
HETATM   15  C   UNL     1     -10.854  11.708  68.484  1.00  0.00    -0.219 C  
BRANCH  15  16
HETATM   16  N   UNL     1     -10.364  10.572  69.251  1.00  0.00    -0.217 N  
HETATM   17  H   UNL     1      -9.404  10.250  69.134  1.00  0.00     0.000 HD 
HETATM   18  C   UNL     1     -11.214   9.929  70.147  1.00  0.00    -0.289 C  
HETATM   19  O   UNL     1     -12.301  10.369  70.481  1.00  0.00    -0.298 OA 
BRANCH  18  20
HETATM   20  C   UNL     1     -10.627   8.651  70.795  1.00  0.00    -0.210 C  
HETATM   21  N   UNL     1      -9.717   7.942  70.009  1.00  0.00    -0.179 N  
HETATM   22  O   UNL     1     -10.949   8.317  71.924  1.00  0.00    -0.250 OA 
HETATM   23  H   UNL     1      -9.697   8.061  68.996  1.00  0.00     0.000 HD 
BRANCH  21  24
HETATM   24  C   UNL     1      -8.796   7.025  70.671  1.00  0.00    -0.150 C  
BRANCH  24  25
HETATM   25  C   UNL     1      -8.771   5.583  70.097  1.00  0.00    -0.129 C  
BRANCH  25  26
HETATM   26  N   UNL     1      -8.865   5.497  68.554  1.00  0.00    -0.104 N  
BRANCH  26  27
HETATM   27  C   UNL     1      -9.666   6.708  67.992  1.00  0.00    -0.123 C  
HETATM   28  C   UNL     1     -11.173   6.643  68.200  1.00  0.00    -0.207 C  
ENDBRANCH  26  27
BRANCH  26  29
HETATM   29  C   UNL     1      -7.416   5.465  67.992  1.00  0.00    -0.077 C  
HETATM   30  C   UNL     1      -6.405   4.714  68.839  1.00  0.00    -0.032 C  
ENDBRANCH  26  29
BRANCH  26  31
HETATM   31  C   UNL     1      -9.630   4.190  68.127  1.00  0.00    -0.134 C  
BRANCH  31  32
HETATM   32  C   UNL     1      -9.145   3.411  66.915  1.00  0.00    -0.188 A  
HETATM   33  C   UNL     1      -8.477   2.179  67.077  1.00  0.00    -0.102 A  
HETATM   34  C   UNL     1      -7.906   1.510  65.989  1.00  0.00    -0.067 A  
HETATM   35  C   UNL     1      -7.971   2.065  64.719  1.00  0.00    -0.074 A  
HETATM   36  C   UNL     1      -8.641   3.269  64.527  1.00  0.00    -0.094 A  
HETATM   37  C   UNL     1      -9.230   3.933  65.609  1.00  0.00    -0.152 A  
HETATM   38 CL   UNL     1     -10.032   5.423  65.261  1.00  0.00     0.267 Cl 
ENDBRANCH  31  32
ENDBRANCH  26  31
ENDBRANCH  25  26
ENDBRANCH  24  25
ENDBRANCH  21  24
ENDBRANCH  18  20
ENDBRANCH  15  16
ENDBRANCH  14  15
ENDBRANCH   3  14
ENDBRANCH   2   3
TORSDOF 15
ENDMDL
MODEL      414
REMARK 921   NORMALIZED FREE ENERGY PREDICTED BY IDOCK:   -0.39 KCAL/MOL
REMARK 922        TOTAL FREE ENERGY PREDICTED BY IDOCK:   -3.38 KCAL/MOL
REMARK 923 INTER-LIGAND FREE ENERGY PREDICTED BY IDOCK:   -4.39 KCAL/MOL
REMARK 924 INTRA-LIGAND FREE ENERGY PREDICTED BY IDOCK:    1.01 KCAL/MOL
REMARK 927      BINDING AFFINITY PREDICTED BY RF-SCORE:    0.00 PKD
ROOT
HETATM    1  C   UNL     1      -5.345   6.265  72.305  1.00  0.00    -0.031 C  
HETATM    2  C   UNL     1      -5.441   7.476  71.388  1.00  0.00    -0.035 C  
ENDROOT
BRANCH   2   3
HETATM    3  N   UNL     1      -6.822   7.690  70.693  1.00  0.00    -0.046 N  
BRANCH   3   4
HETATM    4  C   UNL     1      -7.930   6.911  71.460  1.00  0.00    -0.104 C  
HETATM    5  C   UNL     1      -9.318   7.494  71.377  1.00  0.00    -0.151 C  
ENDBRANCH   3   4
BRANCH   3   6
HETATM    6  C   UNL     1      -6.813   7.068  69.277  1.00  0.00    -0.054 C  
BRANCH   6   7
HETATM    7  C   UNL     1      -7.561   5.782  68.938  1.00  0.00    -0.089 A  
HETATM    8  C   UNL     1      -7.438   3.364  68.513  1.00  0.00    -0.050 A  
HETATM    9  C   UNL     1      -8.925   5.695  68.614  1.00  0.00    -0.113 A  
HETATM   10  C   UNL     1      -6.846   4.565  68.926  1.00  0.00    -0.050 A  
HETATM   11  C   UNL     1      -9.535   4.490  68.261  1.00  0.00    -0.205 A  
HETATM   12 CL   UNL     1      -5.180   4.515  69.391  1.00  0.00    -0.003 Cl 
HETATM   13  C   UNL     1      -8.787   3.329  68.184  1.00  0.00    -0.161 A  
ENDBRANCH   6   7
ENDBRANCH   3   6
BRANCH   3  14
HETATM   14  C   UNL     1      -7.052   9.255  70.664  1.00  0.00    -0.111 C  
BRANCH  14  15
HETATM   15  C   UNL     1      -8.338   9.768  69.929  1.00  0.00    -0.184 C  
BRANCH  15  16
HETATM   16  N   UNL     1      -8.182  10.816  68.931  1.00  0.00    -0.144 N  
HETATM   17  H   UNL     1      -7.791  11.721  69.194  1.00  0.00     0.000 HD 
HETATM   18  C   UNL     1      -8.568  10.577  67.615  1.00  0.00    -0.118 C  
HETATM   19  O   UNL     1      -8.860   9.473  67.187  1.00  0.00    -0.130 OA 
BRANCH  18  20
HETATM   20  C   UNL     1      -8.489  11.809  66.680  1.00  0.00    -0.153 C  
HETATM   21  N   UNL     1      -8.619  13.049  67.308  1.00  0.00    -0.199 N  
HETATM   22  O   UNL     1      -8.312  11.675  65.481  1.00  0.00     0.212 OA 
HETATM   23  H   UNL     1      -9.056  13.127  68.227  1.00  0.00     0.000 HD 
BRANCH  21  24
HETATM   24  C   UNL     1      -8.116  14.231  66.619  1.00  0.00     0.444 C  
BRANCH  24  25
HETATM   25  C   UNL     1      -8.668  15.586  67.139  1.00  0.00    -0.211 C  
BRANCH  25  26
HETATM   26  N   UNL     1      -8.603  15.767  68.675  1.00  0.00    -0.182 N  
BRANCH  26  27
HETATM   27  C   UNL     1      -9.387  14.625  69.388  1.00  0.00     0.108 C  
HETATM   28  C   UNL     1     -10.834  14.947  69.733  1.00  0.00    -0.255 C  
ENDBRANCH  26  27
BRANCH  26  29
HETATM   29  C   UNL     1      -7.106  15.771  69.088  1.00  0.00    -0.176 C  
HETATM   30  C   UNL     1      -6.805  15.183  70.456  1.00  0.00     0.283 C  
ENDBRANCH  26  29
BRANCH  26  31
HETATM   31  C   UNL     1      -9.276  17.127  69.092  1.00  0.00    -0.042 C  
BRANCH  31  32
HETATM   32  C   UNL     1      -9.411  18.233  68.058  1.00  0.00    -0.298 A  
HETATM   33  C   UNL     1     -10.686  18.666  67.637  1.00  0.00    -0.428 A  
HETATM   34  C   UNL     1     -10.837  19.586  66.594  1.00  0.00    -0.476 A  
HETATM   35  C   UNL     1      -9.719  20.080  65.935  1.00  0.00    -0.387 A  
HETATM   36  C   UNL     1      -8.449  19.684  66.342  1.00  0.00    -0.382 A  
HETATM   37  C   UNL     1      -8.293  18.779  67.397  1.00  0.00    -0.264 A  
HETATM   38 CL   UNL     1      -6.673  18.351  67.819  1.00  0.00    -0.205 Cl 
ENDBRANCH  31  32
ENDBRANCH  26  31
ENDBRANCH  25  26
ENDBRANCH  24  25
ENDBRANCH  21  24
ENDBRANCH  18  20
ENDBRANCH  15  16
ENDBRANCH  14  15
ENDBRANCH   3  14
ENDBRANCH   2   3
TORSDOF 15
ENDMDL
MODEL      415
REMARK 921   NORMALIZED FREE ENERGY PREDICTED BY IDOCK:   -0.33 KCAL/MOL
REMARK 922        TOTAL FREE ENERGY PREDICTED BY IDOCK:   -3.27 KCAL/MOL
REMARK 923 INTER-LIGAND FREE ENERGY PREDICTED BY IDOCK:   -5.51 KCAL/MOL
REMARK 924 INTRA-LIGAND FREE ENERGY PREDICTED BY IDOCK:    2.24 KCAL/MOL
REMARK 927      BINDING AFFINITY PREDICTED BY RF-SCORE:    0.00 PKD
ROOT
HETATM    1  C   UNL     1     -13.332  13.724  70.301  1.00  0.00     0.602 C  
HETATM    2  C   UNL     1     -11.847  13.427  70.440  1.00  0.00    -0.208 C  
ENDROOT
BRANCH   2   3
HETATM    3  N   UNL     1     -10.906  14.218  69.480  1.00  0.00    -0.171 N  
BRANCH   3   4
HETATM    4  C   UNL     1      -9.945  15.124  70.304  1.00  0.00     0.154 C  
HETATM    5  C   UNL     1      -8.526  15.203  69.801  1.00  0.00     0.049 C  
ENDBRANCH   3   4
BRANCH   3   6
HETATM    6  C   UNL     1     -11.726  15.201  68.613  1.00  0.00    -0.341 C  
BRANCH   6   7
HETATM    7  C   UNL     1     -11.113  16.444  67.973  1.00  0.00    -0.292 A  
HETATM    8  C   UNL     1     -10.186  17.490  65.952  1.00  0.00    -0.251 A  
HETATM    9  C   UNL     1     -10.764  17.622  68.654  1.00  0.00    -0.139 A  
HETATM   10  C   UNL     1     -10.850  16.433  66.587  1.00  0.00    -0.086 A  
HETATM   11  C   UNL     1     -10.157  18.704  68.015  1.00  0.00    -0.413 A  
HETATM   12 CL   UNL     1     -11.311  15.080  65.611  1.00  0.00    -0.330 Cl 
HETATM   13  C   UNL     1      -9.843  18.630  66.669  1.00  0.00    -0.377 A  
ENDBRANCH   6   7
ENDBRANCH   3   6
BRANCH   3  14
HETATM   14  C   UNL     1     -10.158  13.127  68.612  1.00  0.00    -0.139 C  
BRANCH  14  15
HETATM   15  C   UNL     1     -10.702  11.659  68.697  1.00  0.00    -0.212 C  
BRANCH  15  16
HETATM   16  N   UNL     1     -10.055  10.743  69.625  1.00  0.00    -0.442 N  
HETATM   17  H   UNL     1      -9.049  10.581  69.569  1.00  0.00     0.000 HD 
HETATM   18  C   UNL     1     -10.816  10.090  70.590  1.00  0.00    -0.297 C  
HETATM   19  O   UNL     1     -11.975  10.374  70.842  1.00  0.00    -0.319 OA 
BRANCH  18  20
HETATM   20  C   UNL     1     -10.045   9.036  71.423  1.00  0.00    -0.329 C  
HETATM   21  N   UNL     1      -8.999   8.393  70.758  1.00  0.00    -0.147 N  
HETATM   22  O   UNL     1     -10.346   8.812  72.583  1.00  0.00    -0.176 OA 
HETATM   23  H   UNL     1      -8.962   8.372  69.739  1.00  0.00     0.000 HD 
BRANCH  21  24
HETATM   24  C   UNL     1      -7.961   7.752  71.555  1.00  0.00    -0.092 C  
BRANCH  24  25
HETATM   25  C   UNL     1      -7.640   6.283  71.168  1.00  0.00    -0.094 C  
BRANCH  25  26
HETATM   26  N   UNL     1      -8.080   5.878  69.740  1.00  0.00    -0.104 N  
BRANCH  26  27
HETATM   27  C   UNL     1      -9.532   6.365  69.462  1.00  0.00    -0.145 C  
HETATM   28  C   UNL     1     -10.632   5.389  69.857  1.00  0.00    -0.351 C  
ENDBRANCH  26  27
BRANCH  26  29
HETATM   29  C   UNL     1      -7.070   6.504  68.739  1.00  0.00    -0.082 C  
HETATM   30  C   UNL     1      -5.630   6.565  69.217  1.00  0.00    -0.014 C  
ENDBRANCH  26  29
BRANCH  26  31
HETATM   31  C   UNL     1      -8.075   4.311  69.592  1.00  0.00    -0.059 C  
BRANCH  31  32
HETATM   32  C   UNL     1      -8.339   3.452  70.818  1.00  0.00    -0.090 A  
HETATM   33  C   UNL     1      -9.619   2.904  71.044  1.00  0.00    -0.219 A  
HETATM   34  C   UNL     1      -9.923   2.223  72.228  1.00  0.00    -0.226 A  
HETATM   35  C   UNL     1      -8.961   2.089  73.220  1.00  0.00    -0.068 A  
HETATM   36  C   UNL     1      -7.685   2.603  73.015  1.00  0.00    -0.050 A  
HETATM   37  C   UNL     1      -7.371   3.269  71.825  1.00  0.00    -0.047 A  
HETATM   38 CL   UNL     1      -5.760   3.872  71.675  1.00  0.00    -0.008 Cl 
ENDBRANCH  31  32
ENDBRANCH  26  31
ENDBRANCH  25  26
ENDBRANCH  24  25
ENDBRANCH  21  24
ENDBRANCH  18  20
ENDBRANCH  15  16
ENDBRANCH  14  15
ENDBRANCH   3  14
ENDBRANCH   2   3
TORSDOF 15
ENDMDL
MODEL      416
REMARK 921   NORMALIZED FREE ENERGY PREDICTED BY IDOCK:    0.12 KCAL/MOL
REMARK 922        TOTAL FREE ENERGY PREDICTED BY IDOCK:   -2.44 KCAL/MOL
REMARK 923 INTER-LIGAND FREE ENERGY PREDICTED BY IDOCK:   -4.48 KCAL/MOL
REMARK 924 INTRA-LIGAND FREE ENERGY PREDICTED BY IDOCK:    2.04 KCAL/MOL
REMARK 927      BINDING AFFINITY PREDICTED BY RF-SCORE:    0.00 PKD
ROOT
HETATM    1  C   UNL     1      -8.096  15.971  66.965  1.00  0.00    -0.257 C  
HETATM    2  C   UNL     1      -8.036  17.491  67.028  1.00  0.00    -0.217 C  
ENDROOT
BRANCH   2   3
HETATM    3  N   UNL     1      -9.284  18.191  67.649  1.00  0.00    -0.258 N  
BRANCH   3   4
HETATM    4  C   UNL     1      -8.880  19.573  68.239  1.00  0.00    -0.335 C  
HETATM    5  C   UNL     1     -10.007  20.399  68.808  1.00  0.00    -0.054 C  
ENDBRANCH   3   4
BRANCH   3   6
HETATM    6  C   UNL     1      -9.806  17.384  68.861  1.00  0.00    -0.286 C  
BRANCH   6   7
HETATM    7  C   UNL     1     -10.558  16.065  68.710  1.00  0.00    -0.262 A  
HETATM    8  C   UNL     1     -10.504  13.616  68.907  1.00  0.00    -0.167 A  
HETATM    9  C   UNL     1     -11.848  15.920  68.174  1.00  0.00    -0.001 A  
HETATM   10  C   UNL     1      -9.924  14.873  69.119  1.00  0.00    -0.211 A  
HETATM   11  C   UNL     1     -12.458  14.674  68.016  1.00  0.00     0.289 A  
HETATM   12 CL   UNL     1      -8.369  14.915  69.877  1.00  0.00     0.152 Cl 
HETATM   13  C   UNL     1     -11.777  13.519  68.357  1.00  0.00    -0.393 A  
ENDBRANCH   6   7
ENDBRANCH   3   6
BRANCH   3  14
HETATM   14  C   UNL     1     -10.350  18.287  66.484  1.00  0.00    -0.392 C  
BRANCH  14  15
HETATM   15  C   UNL     1     -10.095  17.403  65.214  1.00  0.00     0.539 C  
BRANCH  15  16
HETATM   16  N   UNL     1     -10.642  16.053  65.201  1.00  0.00    -0.408 N  
HETATM   17  H   UNL     1     -10.386  15.389  65.931  1.00  0.00     0.000 HD 
HETATM   18  C   UNL     1     -11.516  15.676  64.186  1.00  0.00    -0.073 C  
HETATM   19  O   UNL     1     -12.015  16.460  63.396  1.00  0.00     0.050 OA 
BRANCH  18  20
HETATM   20  C   UNL     1     -11.916  14.179  64.196  1.00  0.00    -0.393 C  
HETATM   21  N   UNL     1     -11.165  13.363  65.044  1.00  0.00    -0.308 N  
HETATM   22  O   UNL     1     -12.837  13.772  63.508  1.00  0.00    -0.576 OA 
HETATM   23  H   UNL     1     -10.240  13.651  65.364  1.00  0.00     0.000 HD 
BRANCH  21  24
HETATM   24  C   UNL     1     -11.735  12.087  65.461  1.00  0.00    -0.251 C  
BRANCH  24  25
HETATM   25  C   UNL     1     -11.133  10.835  64.768  1.00  0.00     0.345 C  
BRANCH  25  26
HETATM   26  N   UNL     1      -9.903  10.225  65.484  1.00  0.00    -0.262 N  
BRANCH  26  27
HETATM   27  C   UNL     1     -10.328   9.584  66.838  1.00  0.00    -0.237 C  
HETATM   28  C   UNL     1     -10.370   8.063  66.852  1.00  0.00    -0.408 C  
ENDBRANCH  26  27
BRANCH  26  29
HETATM   29  C   UNL     1      -9.274   9.172  64.531  1.00  0.00     0.105 C  
HETATM   30  C   UNL     1      -8.762   9.714  63.208  1.00  0.00    -0.239 C  
ENDBRANCH  26  29
BRANCH  26  31
HETATM   31  C   UNL     1      -8.849  11.348  65.807  1.00  0.00    -0.111 C  
BRANCH  31  32
HETATM   32  C   UNL     1      -7.500  10.952  66.383  1.00  0.00    -0.145 A  
HETATM   33  C   UNL     1      -7.128   9.593  66.465  1.00  0.00    -0.089 A  
HETATM   34  C   UNL     1      -5.952   9.195  67.110  1.00  0.00    -0.050 A  
HETATM   35  C   UNL     1      -5.129  10.143  67.703  1.00  0.00    -0.034 A  
HETATM   36  C   UNL     1      -5.461  11.491  67.620  1.00  0.00    -0.054 A  
HETATM   37  C   UNL     1      -6.627  11.895  66.961  1.00  0.00    -0.128 A  
HETATM   38 CL   UNL     1      -6.947  13.592  66.921  1.00  0.00     0.637 Cl 
ENDBRANCH  31  32
ENDBRANCH  26  31
ENDBRANCH  25  26
ENDBRANCH  24  25
ENDBRANCH  21  24
ENDBRANCH  18  20
ENDBRANCH  15  16
ENDBRANCH  14  15
ENDBRANCH   3  14
ENDBRANCH   2   3
TORSDOF 15
ENDMDL
MODEL      417
REMARK 921   NORMALIZED FREE ENERGY PREDICTED BY IDOCK:    0.14 KCAL/MOL
REMARK 922        TOTAL FREE ENERGY PREDICTED BY IDOCK:   -2.40 KCAL/MOL
REMARK 923 INTER-LIGAND FREE ENERGY PREDICTED BY IDOCK:   -2.54 KCAL/MOL
REMARK 924 INTRA-LIGAND FREE ENERGY PREDICTED BY IDOCK:    0.14 KCAL/MOL
REMARK 927      BINDING AFFINITY PREDICTED BY RF-SCORE:    0.00 PKD
ROOT
HETATM    1  C   UNL     1     -11.160   6.415  67.590  1.00  0.00    -0.388 C  
HETATM    2  C   UNL     1     -10.078   5.946  68.551  1.00  0.00    -0.167 C  
ENDROOT
BRANCH   2   3
HETATM    3  N   UNL     1      -9.016   4.973  67.950  1.00  0.00    -0.106 N  
BRANCH   3   4
HETATM    4  C   UNL     1      -9.657   3.577  67.697  1.00  0.00    -0.127 C  
HETATM    5  C   UNL     1      -9.594   3.074  66.277  1.00  0.00     0.081 C  
ENDBRANCH   3   4
BRANCH   3   6
HETATM    6  C   UNL     1      -7.888   4.708  68.975  1.00  0.00    -0.071 C  
BRANCH   6   7
HETATM    7  C   UNL     1      -8.143   4.626  70.477  1.00  0.00    -0.068 A  
HETATM    8  C   UNL     1      -7.561   5.432  72.724  1.00  0.00    -0.098 A  
HETATM    9  C   UNL     1      -8.999   3.708  71.108  1.00  0.00    -0.159 A  
HETATM   10  C   UNL     1      -7.466   5.523  71.330  1.00  0.00    -0.097 A  
HETATM   11  C   UNL     1      -9.146   3.653  72.495  1.00  0.00    -0.136 A  
HETATM   12 CL   UNL     1      -6.448   6.762  70.679  1.00  0.00    -0.050 Cl 
HETATM   13  C   UNL     1      -8.408   4.497  73.306  1.00  0.00    -0.099 A  
ENDBRANCH   6   7
ENDBRANCH   3   6
BRANCH   3  14
HETATM   14  C   UNL     1      -8.484   5.674  66.635  1.00  0.00    -0.113 C  
BRANCH  14  15
HETATM   15  C   UNL     1      -7.163   6.508  66.760  1.00  0.00    -0.077 C  
BRANCH  15  16
HETATM   16  N   UNL     1      -7.249   7.843  67.332  1.00  0.00    -0.086 N  
HETATM   17  H   UNL     1      -7.524   7.967  68.306  1.00  0.00     0.000 HD 
HETATM   18  C   UNL     1      -6.953   8.951  66.542  1.00  0.00    -0.080 C  
HETATM   19  O   UNL     1      -6.437   8.876  65.440  1.00  0.00    -0.065 OA 
BRANCH  18  20
HETATM   20  C   UNL     1      -7.220  10.320  67.217  1.00  0.00    -0.089 C  
HETATM   21  N   UNL     1      -8.480  10.871  66.979  1.00  0.00    -0.132 N  
HETATM   22  O   UNL     1      -6.370  10.850  67.913  1.00  0.00    -0.057 OA 
HETATM   23  H   UNL     1      -9.039  10.574  66.179  1.00  0.00     0.000 HD 
BRANCH  21  24
HETATM   24  C   UNL     1      -8.978  11.883  67.902  1.00  0.00    -0.179 C  
BRANCH  24  25
HETATM   25  C   UNL     1      -8.099  13.158  68.026  1.00  0.00    -0.157 C  
BRANCH  25  26
HETATM   26  N   UNL     1      -8.889  14.489  68.059  1.00  0.00    -0.168 N  
BRANCH  26  27
HETATM   27  C   UNL     1     -10.414  14.211  68.208  1.00  0.00    -0.249 C  
HETATM   28  C   UNL     1     -11.271  15.433  68.509  1.00  0.00    -0.321 C  
ENDBRANCH  26  27
BRANCH  26  29
HETATM   29  C   UNL     1      -8.347  15.331  69.247  1.00  0.00    -0.243 C  
HETATM   30  C   UNL     1      -7.767  14.532  70.401  1.00  0.00     1.042 C  
ENDBRANCH  26  29
BRANCH  26  31
HETATM   31  C   UNL     1      -8.686  15.277  66.712  1.00  0.00    -0.270 C  
BRANCH  31  32
HETATM   32  C   UNL     1      -9.877  15.487  65.792  1.00  0.00    -0.392 A  
HETATM   33  C   UNL     1     -10.599  16.700  65.822  1.00  0.00    -0.278 A  
HETATM   34  C   UNL     1     -11.775  16.868  65.083  1.00  0.00     1.282 A  
HETATM   35  C   UNL     1     -12.268  15.824  64.313  1.00  0.00     0.086 A  
HETATM   36  C   UNL     1     -11.567  14.624  64.250  1.00  0.00    -0.227 A  
HETATM   37  C   UNL     1     -10.380  14.457  64.972  1.00  0.00    -0.421 A  
HETATM   38 CL   UNL     1      -9.592  12.927  64.827  1.00  0.00     0.134 Cl 
ENDBRANCH  31  32
ENDBRANCH  26  31
ENDBRANCH  25  26
ENDBRANCH  24  25
ENDBRANCH  21  24
ENDBRANCH  18  20
ENDBRANCH  15  16
ENDBRANCH  14  15
ENDBRANCH   3  14
ENDBRANCH   2   3
TORSDOF 15
ENDMDL
MODEL      418
REMARK 921   NORMALIZED FREE ENERGY PREDICTED BY IDOCK:    0.54 KCAL/MOL
REMARK 922        TOTAL FREE ENERGY PREDICTED BY IDOCK:   -1.64 KCAL/MOL
REMARK 923 INTER-LIGAND FREE ENERGY PREDICTED BY IDOCK:   -5.14 KCAL/MOL
REMARK 924 INTRA-LIGAND FREE ENERGY PREDICTED BY IDOCK:    3.50 KCAL/MOL
REMARK 927      BINDING AFFINITY PREDICTED BY RF-SCORE:    0.00 PKD
ROOT
HETATM    1  C   UNL     1     -12.607  14.654  66.419  1.00  0.00     0.212 C  
HETATM    2  C   UNL     1     -11.820  13.354  66.356  1.00  0.00    -0.396 C  
ENDROOT
BRANCH   2   3
HETATM    3  N   UNL     1     -10.605  13.251  67.329  1.00  0.00    -0.247 N  
BRANCH   3   4
HETATM    4  C   UNL     1     -10.759  12.000  68.243  1.00  0.00    -0.224 C  
HETATM    5  C   UNL     1     -11.767  10.975  67.788  1.00  0.00    -0.172 C  
ENDBRANCH   3   4
BRANCH   3   6
HETATM    6  C   UNL     1     -10.594  14.451  68.305  1.00  0.00    -0.243 C  
BRANCH   6   7
HETATM    7  C   UNL     1      -9.316  15.196  68.679  1.00  0.00    -0.199 A  
HETATM    8  C   UNL     1      -8.046  17.299  68.603  1.00  0.00    -0.261 A  
HETATM    9  C   UNL     1      -8.186  14.621  69.284  1.00  0.00    -0.003 A  
HETATM   10  C   UNL     1      -9.227  16.575  68.393  1.00  0.00    -0.222 A  
HETATM   11  C   UNL     1      -7.027  15.352  69.552  1.00  0.00    -0.188 A  
HETATM   12 CL   UNL     1     -10.578  17.428  67.729  1.00  0.00    -0.376 Cl 
HETATM   13  C   UNL     1      -6.946  16.684  69.188  1.00  0.00    -0.227 A  
ENDBRANCH   6   7
ENDBRANCH   3   6
BRANCH   3  14
HETATM   14  C   UNL     1      -9.317  13.208  66.410  1.00  0.00    -0.179 C  
BRANCH  14  15
HETATM   15  C   UNL     1      -8.212  12.162  66.786  1.00  0.00    -0.085 C  
BRANCH  15  16
HETATM   16  N   UNL     1      -8.622  10.782  66.998  1.00  0.00    -0.129 N  
HETATM   17  H   UNL     1      -8.908  10.204  66.208  1.00  0.00     0.000 HD 
HETATM   18  C   UNL     1      -8.620  10.254  68.286  1.00  0.00    -0.122 C  
HETATM   19  O   UNL     1      -8.114  10.813  69.245  1.00  0.00    -0.150 OA 
BRANCH  18  20
HETATM   20  C   UNL     1      -9.211   8.827  68.405  1.00  0.00    -0.137 C  
HETATM   21  N   UNL     1      -8.297   7.825  68.737  1.00  0.00    -0.128 N  
HETATM   22  O   UNL     1     -10.400   8.625  68.226  1.00  0.00    -0.206 OA 
HETATM   23  H   UNL     1      -7.297   7.957  68.585  1.00  0.00     0.000 HD 
BRANCH  21  24
HETATM   24  C   UNL     1      -8.807   6.583  69.305  1.00  0.00    -0.132 C  
BRANCH  24  25
HETATM   25  C   UNL     1      -8.856   6.535  70.856  1.00  0.00    -0.147 C  
BRANCH  25  26
HETATM   26  N   UNL     1      -7.606   5.915  71.526  1.00  0.00    -0.097 N  
BRANCH  26  27
HETATM   27  C   UNL     1      -6.590   7.029  71.914  1.00  0.00    -0.052 C  
HETATM   28  C   UNL     1      -5.222   6.534  72.362  1.00  0.00    -0.032 C  
ENDBRANCH  26  27
BRANCH  26  29
HETATM   29  C   UNL     1      -8.083   5.121  72.774  1.00  0.00    -0.109 C  
HETATM   30  C   UNL     1      -8.018   5.876  74.090  1.00  0.00    -0.104 C  
ENDBRANCH  26  29
BRANCH  26  31
HETATM   31  C   UNL     1      -6.876   4.944  70.524  1.00  0.00    -0.037 C  
BRANCH  31  32
HETATM   32  C   UNL     1      -7.659   3.801  69.901  1.00  0.00    -0.048 A  
HETATM   33  C   UNL     1      -8.519   4.034  68.808  1.00  0.00    -0.100 A  
HETATM   34  C   UNL     1      -9.348   3.027  68.302  1.00  0.00    -0.253 A  
HETATM   35  C   UNL     1      -9.351   1.769  68.888  1.00  0.00    -0.209 A  
HETATM   36  C   UNL     1      -8.499   1.505  69.956  1.00  0.00    -0.077 A  
HETATM   37  C   UNL     1      -7.655   2.504  70.453  1.00  0.00    -0.043 A  
HETATM   38 CL   UNL     1      -6.641   2.071  71.783  1.00  0.00    -0.018 Cl 
ENDBRANCH  31  32
ENDBRANCH  26  31
ENDBRANCH  25  26
ENDBRANCH  24  25
ENDBRANCH  21  24
ENDBRANCH  18  20
ENDBRANCH  15  16
ENDBRANCH  14  15
ENDBRANCH   3  14
ENDBRANCH   2   3
TORSDOF 15
ENDMDL
MODEL      419
REMARK 921   NORMALIZED FREE ENERGY PREDICTED BY IDOCK:    0.76 KCAL/MOL
REMARK 922        TOTAL FREE ENERGY PREDICTED BY IDOCK:   -1.24 KCAL/MOL
REMARK 923 INTER-LIGAND FREE ENERGY PREDICTED BY IDOCK:   -1.45 KCAL/MOL
REMARK 924 INTRA-LIGAND FREE ENERGY PREDICTED BY IDOCK:    0.21 KCAL/MOL
REMARK 927      BINDING AFFINITY PREDICTED BY RF-SCORE:    0.00 PKD
ROOT
HETATM    1  C   UNL     1     -12.081   4.773  62.905  1.00  0.00     3.198 C  
HETATM    2  C   UNL     1     -10.564   4.836  62.806  1.00  0.00     0.647 C  
ENDROOT
BRANCH   2   3
HETATM    3  N   UNL     1      -9.782   4.066  63.915  1.00  0.00    -0.161 N  
BRANCH   3   4
HETATM    4  C   UNL     1      -8.473   4.829  64.271  1.00  0.00    -0.135 C  
HETATM    5  C   UNL     1      -7.938   5.748  63.203  1.00  0.00    -0.108 C  
ENDBRANCH   3   4
BRANCH   3   6
HETATM    6  C   UNL     1      -9.305   2.694  63.383  1.00  0.00    -0.096 C  
BRANCH   6   7
HETATM    7  C   UNL     1      -7.856   2.227  63.492  1.00  0.00    -0.068 A  
HETATM    8  C   UNL     1      -5.977   1.627  64.958  1.00  0.00    -0.017 A  
HETATM    9  C   UNL     1      -6.973   2.058  62.413  1.00  0.00    -0.026 A  
HETATM   10  C   UNL     1      -7.328   1.949  64.770  1.00  0.00    -0.057 A  
HETATM   11  C   UNL     1      -5.641   1.678  62.588  1.00  0.00    -0.007 A  
HETATM   12 CL   UNL     1      -8.331   2.031  66.177  1.00  0.00    -0.090 Cl 
HETATM   13  C   UNL     1      -5.135   1.487  63.861  1.00  0.00    -0.004 A  
ENDBRANCH   6   7
ENDBRANCH   3   6
BRANCH   3  14
HETATM   14  C   UNL     1     -10.784   3.926  65.132  1.00  0.00     0.139 C  
BRANCH  14  15
HETATM   15  C   UNL     1     -10.476   4.785  66.406  1.00  0.00    -0.239 C  
BRANCH  15  16
HETATM   16  N   UNL     1     -10.214   6.206  66.225  1.00  0.00    -0.417 N  
HETATM   17  H   UNL     1      -9.887   6.556  65.325  1.00  0.00     0.000 HD 
HETATM   18  C   UNL     1     -10.412   7.083  67.288  1.00  0.00    -0.293 C  
HETATM   19  O   UNL     1     -10.978   6.773  68.323  1.00  0.00    -0.237 OA 
BRANCH  18  20
HETATM   20  C   UNL     1      -9.964   8.541  67.019  1.00  0.00    -0.250 C  
HETATM   21  N   UNL     1      -8.874   8.982  67.771  1.00  0.00    -0.125 N  
HETATM   22  O   UNL     1     -10.536   9.230  66.191  1.00  0.00    -0.052 OA 
HETATM   23  H   UNL     1      -8.615   8.516  68.641  1.00  0.00     0.000 HD 
BRANCH  21  24
HETATM   24  C   UNL     1      -8.113  10.127  67.284  1.00  0.00    -0.114 C  
BRANCH  24  25
HETATM   25  C   UNL     1      -8.268  11.428  68.118  1.00  0.00    -0.143 C  
BRANCH  25  26
HETATM   26  N   UNL     1      -9.392  12.377  67.636  1.00  0.00    -0.181 N  
BRANCH  26  27
HETATM   27  C   UNL     1     -10.778  11.674  67.744  1.00  0.00    -0.204 C  
HETATM   28  C   UNL     1     -11.445  11.760  69.110  1.00  0.00    -0.358 C  
ENDBRANCH  26  27
BRANCH  26  29
HETATM   29  C   UNL     1      -9.337  13.659  68.512  1.00  0.00    -0.128 C  
HETATM   30  C   UNL     1      -8.064  13.842  69.320  1.00  0.00     0.357 C  
ENDBRANCH  26  29
BRANCH  26  31
HETATM   31  C   UNL     1      -9.176  12.755  66.124  1.00  0.00    -0.030 C  
BRANCH  31  32
HETATM   32  C   UNL     1     -10.349  12.660  65.163  1.00  0.00    -0.312 A  
HETATM   33  C   UNL     1     -11.489  13.472  65.343  1.00  0.00    -0.318 A  
HETATM   34  C   UNL     1     -12.632  13.312  64.553  1.00  0.00    -0.316 A  
HETATM   35  C   UNL     1     -12.672  12.323  63.579  1.00  0.00    -0.512 A  
HETATM   36  C   UNL     1     -11.555  11.521  63.368  1.00  0.00    -0.232 A  
HETATM   37  C   UNL     1     -10.402  11.691  64.142  1.00  0.00    -0.337 A  
HETATM   38 CL   UNL     1      -9.076  10.639  63.799  1.00  0.00    -0.223 Cl 
ENDBRANCH  31  32
ENDBRANCH  26  31
ENDBRANCH  25  26
ENDBRANCH  24  25
ENDBRANCH  21  24
ENDBRANCH  18  20
ENDBRANCH  15  16
ENDBRANCH  14  15
ENDBRANCH   3  14
ENDBRANCH   2   3
TORSDOF 15
ENDMDL
MODEL      420
REMARK 921   NORMALIZED FREE ENERGY PREDICTED BY IDOCK:    0.79 KCAL/MOL
REMARK 922        TOTAL FREE ENERGY PREDICTED BY IDOCK:   -1.19 KCAL/MOL
REMARK 923 INTER-LIGAND FREE ENERGY PREDICTED BY IDOCK:   -1.65 KCAL/MOL
REMARK 924 INTRA-LIGAND FREE ENERGY PREDICTED BY IDOCK:    0.46 KCAL/MOL
REMARK 927      BINDING AFFINITY PREDICTED BY RF-SCORE:    0.00 PKD
ROOT
HETATM    1  C   UNL     1      -6.663  19.793  71.108  1.00  0.00     0.416 C  
HETATM    2  C   UNL     1      -7.196  18.423  70.712  1.00  0.00     2.889 C  
ENDROOT
BRANCH   2   3
HETATM    3  N   UNL     1      -7.054  18.053  69.204  1.00  0.00    -0.229 N  
BRANCH   3   4
HETATM    4  C   UNL     1      -6.593  19.297  68.391  1.00  0.00    -0.254 C  
HETATM    5  C   UNL     1      -5.459  19.067  67.423  1.00  0.00    -0.162 C  
ENDBRANCH   3   4
BRANCH   3   6
HETATM    6  C   UNL     1      -8.432  17.683  68.608  1.00  0.00    -0.266 C  
BRANCH   6   7
HETATM    7  C   UNL     1      -9.306  18.690  67.866  1.00  0.00    -0.323 A  
HETATM    8  C   UNL     1     -10.150  19.505  65.707  1.00  0.00    -0.324 A  
HETATM    9  C   UNL     1      -9.976  19.775  68.454  1.00  0.00    -0.549 A  
HETATM   10  C   UNL     1      -9.459  18.555  66.470  1.00  0.00    -0.320 A  
HETATM   11  C   UNL     1     -10.718  20.692  67.707  1.00  0.00     0.479 A  
HETATM   12 CL   UNL     1      -8.760  17.213  65.630  1.00  0.00     0.239 Cl 
HETATM   13  C   UNL     1     -10.784  20.573  66.330  1.00  0.00     0.364 A  
ENDBRANCH   6   7
ENDBRANCH   3   6
BRANCH   3  14
HETATM   14  C   UNL     1      -6.030  16.847  69.150  1.00  0.00    -0.175 C  
BRANCH  14  15
HETATM   15  C   UNL     1      -6.505  15.486  69.766  1.00  0.00    -0.167 C  
BRANCH  15  16
HETATM   16  N   UNL     1      -7.525  14.732  69.052  1.00  0.00    -0.134 N  
HETATM   17  H   UNL     1      -8.429  14.551  69.489  1.00  0.00     0.000 HD 
HETATM   18  C   UNL     1      -7.261  14.260  67.769  1.00  0.00    -0.175 C  
HETATM   19  O   UNL     1      -6.290  14.596  67.113  1.00  0.00    -0.233 OA 
BRANCH  18  20
HETATM   20  C   UNL     1      -8.365  13.352  67.171  1.00  0.00    -0.139 C  
HETATM   21  N   UNL     1      -7.914  12.176  66.570  1.00  0.00    -0.393 N  
HETATM   22  O   UNL     1      -9.541  13.665  67.245  1.00  0.00    -0.224 OA 
HETATM   23  H   UNL     1      -6.947  12.085  66.258  1.00  0.00     0.000 HD 
BRANCH  21  24
HETATM   24  C   UNL     1      -8.859  11.079  66.398  1.00  0.00    -0.177 C  
BRANCH  24  25
HETATM   25  C   UNL     1      -8.805   9.980  67.494  1.00  0.00    -0.128 C  
BRANCH  25  26
HETATM   26  N   UNL     1      -7.595   9.019  67.390  1.00  0.00    -0.088 N  
BRANCH  26  27
HETATM   27  C   UNL     1      -7.946   7.803  66.484  1.00  0.00    -0.106 C  
HETATM   28  C   UNL     1      -8.397   8.152  65.072  1.00  0.00    -0.146 C  
ENDBRANCH  26  27
BRANCH  26  29
HETATM   29  C   UNL     1      -6.398   9.827  66.817  1.00  0.00    -0.065 C  
HETATM   30  C   UNL     1      -5.253  10.071  67.785  1.00  0.00    -0.035 C  
ENDBRANCH  26  29
BRANCH  26  31
HETATM   31  C   UNL     1      -7.225   8.454  68.811  1.00  0.00    -0.079 C  
BRANCH  31  32
HETATM   32  C   UNL     1      -8.254   7.634  69.571  1.00  0.00    -0.129 A  
HETATM   33  C   UNL     1      -9.141   6.781  68.881  1.00  0.00    -0.133 A  
HETATM   34  C   UNL     1     -10.180   6.118  69.542  1.00  0.00    -0.250 A  
HETATM   35  C   UNL     1     -10.370   6.307  70.904  1.00  0.00    -0.253 A  
HETATM   36  C   UNL     1      -9.499   7.127  71.613  1.00  0.00    -0.159 A  
HETATM   37  C   UNL     1      -8.446   7.777  70.960  1.00  0.00    -0.122 A  
HETATM   38 CL   UNL     1      -7.427   8.775  71.933  1.00  0.00    -0.095 Cl 
ENDBRANCH  31  32
ENDBRANCH  26  31
ENDBRANCH  25  26
ENDBRANCH  24  25
ENDBRANCH  21  24
ENDBRANCH  18  20
ENDBRANCH  15  16
ENDBRANCH  14  15
ENDBRANCH   3  14
ENDBRANCH   2   3
TORSDOF 15
ENDMDL
MODEL      421
REMARK 921   NORMALIZED FREE ENERGY PREDICTED BY IDOCK:    0.88 KCAL/MOL
REMARK 922        TOTAL FREE ENERGY PREDICTED BY IDOCK:   -1.01 KCAL/MOL
REMARK 923 INTER-LIGAND FREE ENERGY PREDICTED BY IDOCK:   -6.97 KCAL/MOL
REMARK 924 INTRA-LIGAND FREE ENERGY PREDICTED BY IDOCK:    5.96 KCAL/MOL
REMARK 927      BINDING AFFINITY PREDICTED BY RF-SCORE:    0.00 PKD
ROOT
HETATM    1  C   UNL     1      -9.457  10.006  68.055  1.00  0.00    -0.150 C  
HETATM    2  C   UNL     1      -9.917  10.501  66.691  1.00  0.00    -0.211 C  
ENDROOT
BRANCH   2   3
HETATM    3  N   UNL     1      -9.361   9.715  65.464  1.00  0.00    -0.229 N  
BRANCH   3   4
HETATM    4  C   UNL     1      -9.597   8.188  65.658  1.00  0.00     0.321 C  
HETATM    5  C   UNL     1      -9.485   7.682  67.074  1.00  0.00    -0.209 C  
ENDBRANCH   3   4
BRANCH   3   6
HETATM    6  C   UNL     1      -7.824   9.867  65.379  1.00  0.00    -0.132 C  
BRANCH   6   7
HETATM    7  C   UNL     1      -6.863   8.949  66.129  1.00  0.00    -0.074 A  
HETATM    8  C   UNL     1      -5.324   7.036  66.032  1.00  0.00    -0.023 A  
HETATM    9  C   UNL     1      -6.638   8.966  67.516  1.00  0.00    -0.062 A  
HETATM   10  C   UNL     1      -6.137   7.985  65.399  1.00  0.00    -0.045 A  
HETATM   11  C   UNL     1      -5.782   8.061  68.146  1.00  0.00    -0.034 A  
HETATM   12 CL   UNL     1      -6.252   7.913  63.674  1.00  0.00    -0.062 Cl 
HETATM   13  C   UNL     1      -5.145   7.079  67.409  1.00  0.00    -0.012 A  
ENDBRANCH   6   7
ENDBRANCH   3   6
BRANCH   3  14
HETATM   14  C   UNL     1     -10.098  10.313  64.198  1.00  0.00    -0.062 C  
BRANCH  14  15
HETATM   15  C   UNL     1     -10.727  11.741  64.353  1.00  0.00    -0.327 C  
BRANCH  15  16
HETATM   16  N   UNL     1     -10.401  12.505  65.548  1.00  0.00    -0.275 N  
HETATM   17  H   UNL     1      -9.427  12.674  65.799  1.00  0.00     0.000 HD 
HETATM   18  C   UNL     1     -11.426  13.005  66.346  1.00  0.00    -0.341 C  
HETATM   19  O   UNL     1     -12.599  13.011  66.013  1.00  0.00    -0.453 OA 
BRANCH  18  20
HETATM   20  C   UNL     1     -10.957  13.676  67.661  1.00  0.00    -0.267 C  
HETATM   21  N   UNL     1      -9.581  13.882  67.773  1.00  0.00    -0.216 N  
HETATM   22  O   UNL     1     -11.761  14.000  68.519  1.00  0.00    -0.310 OA 
HETATM   23  H   UNL     1      -8.924  13.347  67.204  1.00  0.00     0.000 HD 
BRANCH  21  24
HETATM   24  C   UNL     1      -9.105  14.882  68.721  1.00  0.00    -0.189 C  
BRANCH  24  25
HETATM   25  C   UNL     1      -9.612  16.328  68.470  1.00  0.00    -0.222 C  
BRANCH  25  26
HETATM   26  N   UNL     1      -9.405  16.846  67.026  1.00  0.00    -0.230 N  
BRANCH  26  27
HETATM   27  C   UNL     1      -9.732  15.724  65.996  1.00  0.00    -0.345 C  
HETATM   28  C   UNL     1     -10.924  16.001  65.090  1.00  0.00    -0.360 C  
ENDBRANCH  26  27
BRANCH  26  29
HETATM   29  C   UNL     1     -10.327  18.082  66.830  1.00  0.00    -0.367 C  
HETATM   30  C   UNL     1      -9.656  19.307  66.235  1.00  0.00    -0.411 C  
ENDBRANCH  26  29
BRANCH  26  31
HETATM   31  C   UNL     1      -7.903  17.261  66.806  1.00  0.00    -0.243 C  
BRANCH  31  32
HETATM   32  C   UNL     1      -6.888  16.969  67.898  1.00  0.00    -0.162 A  
HETATM   33  C   UNL     1      -6.262  15.707  67.974  1.00  0.00    -0.149 A  
HETATM   34  C   UNL     1      -5.426  15.369  69.044  1.00  0.00    -0.098 A  
HETATM   35  C   UNL     1      -5.212  16.277  70.072  1.00  0.00    -0.152 A  
HETATM   36  C   UNL     1      -5.802  17.535  70.014  1.00  0.00    -0.234 A  
HETATM   37  C   UNL     1      -6.623  17.884  68.936  1.00  0.00    -0.241 A  
HETATM   38 CL   UNL     1      -7.309  19.469  68.965  1.00  0.00    -0.400 Cl 
ENDBRANCH  31  32
ENDBRANCH  26  31
ENDBRANCH  25  26
ENDBRANCH  24  25
ENDBRANCH  21  24
ENDBRANCH  18  20
ENDBRANCH  15  16
ENDBRANCH  14  15
ENDBRANCH   3  14
ENDBRANCH   2   3
TORSDOF 15
ENDMDL
MODEL      422
REMARK 921   NORMALIZED FREE ENERGY PREDICTED BY IDOCK:    1.23 KCAL/MOL
REMARK 922        TOTAL FREE ENERGY PREDICTED BY IDOCK:   -0.35 KCAL/MOL
REMARK 923 INTER-LIGAND FREE ENERGY PREDICTED BY IDOCK:   -2.46 KCAL/MOL
REMARK 924 INTRA-LIGAND FREE ENERGY PREDICTED BY IDOCK:    2.11 KCAL/MOL
REMARK 927      BINDING AFFINITY PREDICTED BY RF-SCORE:    0.00 PKD
ROOT
HETATM    1  C   UNL     1     -12.235   5.358  72.008  1.00  0.00     0.732 C  
HETATM    2  C   UNL     1     -10.929   5.727  72.695  1.00  0.00    -0.268 C  
ENDROOT
BRANCH   2   3
HETATM    3  N   UNL     1      -9.662   4.970  72.189  1.00  0.00    -0.156 N  
BRANCH   3   4
HETATM    4  C   UNL     1      -8.677   4.732  73.370  1.00  0.00    -0.100 C  
HETATM    5  C   UNL     1      -9.055   3.632  74.330  1.00  0.00    -0.096 C  
ENDBRANCH   3   4
BRANCH   3   6
HETATM    6  C   UNL     1      -8.873   5.848  71.190  1.00  0.00    -0.136 C  
BRANCH   6   7
HETATM    7  C   UNL     1      -7.549   5.407  70.572  1.00  0.00    -0.080 A  
HETATM    8  C   UNL     1      -5.664   5.963  69.098  1.00  0.00    -0.012 A  
HETATM    9  C   UNL     1      -6.976   4.131  70.703  1.00  0.00    -0.033 A  
HETATM   10  C   UNL     1      -6.826   6.330  69.788  1.00  0.00    -0.065 A  
HETATM   11  C   UNL     1      -5.785   3.777  70.066  1.00  0.00    -0.017 A  
HETATM   12 CL   UNL     1      -7.374   7.963  69.617  1.00  0.00    -0.087 Cl 
HETATM   13  C   UNL     1      -5.141   4.683  69.242  1.00  0.00     0.000 A  
ENDBRANCH   6   7
ENDBRANCH   3   6
BRANCH   3  14
HETATM   14  C   UNL     1     -10.193   3.633  71.529  1.00  0.00     0.085 C  
BRANCH  14  15
HETATM   15  C   UNL     1     -10.558   3.691  70.006  1.00  0.00     2.036 C  
BRANCH  15  16
HETATM   16  N   UNL     1     -10.690   5.000  69.383  1.00  0.00     0.076 N  
HETATM   17  H   UNL     1     -11.104   5.775  69.902  1.00  0.00     0.000 HD 
HETATM   18  C   UNL     1     -10.246   5.189  68.078  1.00  0.00    -0.115 C  
HETATM   19  O   UNL     1      -9.573   4.375  67.468  1.00  0.00    -0.158 OA 
BRANCH  18  20
HETATM   20  C   UNL     1     -10.570   6.580  67.477  1.00  0.00    -0.280 C  
HETATM   21  N   UNL     1      -9.657   7.592  67.780  1.00  0.00    -0.140 N  
HETATM   22  O   UNL     1     -11.557   6.747  66.780  1.00  0.00     0.143 OA 
HETATM   23  H   UNL     1      -9.033   7.510  68.582  1.00  0.00     0.000 HD 
BRANCH  21  24
HETATM   24  C   UNL     1      -9.619   8.770  66.921  1.00  0.00    -0.190 C  
BRANCH  24  25
HETATM   25  C   UNL     1     -10.850   9.709  67.029  1.00  0.00    -0.078 C  
BRANCH  25  26
HETATM   26  N   UNL     1     -10.508  11.205  67.239  1.00  0.00    -0.214 N  
BRANCH  26  27
HETATM   27  C   UNL     1      -9.259  11.598  66.396  1.00  0.00    -0.212 C  
HETATM   28  C   UNL     1      -9.431  12.826  65.512  1.00  0.00     0.098 C  
ENDBRANCH  26  27
BRANCH  26  29
HETATM   29  C   UNL     1     -11.754  12.037  66.828  1.00  0.00    -0.264 C  
HETATM   30  C   UNL     1     -12.086  13.207  67.737  1.00  0.00    -0.262 C  
ENDBRANCH  26  29
BRANCH  26  31
HETATM   31  C   UNL     1     -10.159  11.478  68.749  1.00  0.00    -0.179 C  
BRANCH  31  32
HETATM   32  C   UNL     1     -10.948  10.759  69.831  1.00  0.00    -0.304 A  
HETATM   33  C   UNL     1     -10.868   9.357  69.963  1.00  0.00    -0.271 A  
HETATM   34  C   UNL     1     -11.682   8.660  70.862  1.00  0.00    -0.287 A  
HETATM   35  C   UNL     1     -12.608   9.346  71.636  1.00  0.00    -0.460 A  
HETATM   36  C   UNL     1     -12.695  10.731  71.541  1.00  0.00    -0.536 A  
HETATM   37  C   UNL     1     -11.869  11.434  70.657  1.00  0.00    -0.226 A  
HETATM   38 CL   UNL     1     -12.062  13.149  70.613  1.00  0.00    -0.404 Cl 
ENDBRANCH  31  32
ENDBRANCH  26  31
ENDBRANCH  25  26
ENDBRANCH  24  25
ENDBRANCH  21  24
ENDBRANCH  18  20
ENDBRANCH  15  16
ENDBRANCH  14  15
ENDBRANCH   3  14
ENDBRANCH   2   3
TORSDOF 15
ENDMDL
MODEL      423
REMARK 921   NORMALIZED FREE ENERGY PREDICTED BY IDOCK:    1.31 KCAL/MOL
REMARK 922        TOTAL FREE ENERGY PREDICTED BY IDOCK:   -0.20 KCAL/MOL
REMARK 923 INTER-LIGAND FREE ENERGY PREDICTED BY IDOCK:   -0.75 KCAL/MOL
REMARK 924 INTRA-LIGAND FREE ENERGY PREDICTED BY IDOCK:    0.55 KCAL/MOL
REMARK 927      BINDING AFFINITY PREDICTED BY RF-SCORE:    0.00 PKD
ROOT
HETATM    1  C   UNL     1     -12.124   4.800  62.928  1.00  0.00     3.198 C  
HETATM    2  C   UNL     1     -10.607   4.884  62.840  1.00  0.00     0.979 C  
ENDROOT
BRANCH   2   3
HETATM    3  N   UNL     1      -9.822   4.071  63.914  1.00  0.00    -0.162 N  
BRANCH   3   4
HETATM    4  C   UNL     1      -8.520   4.828  64.309  1.00  0.00    -0.135 C  
HETATM    5  C   UNL     1      -8.078   5.912  63.359  1.00  0.00    -0.095 C  
ENDBRANCH   3   4
BRANCH   3   6
HETATM    6  C   UNL     1      -9.332   2.729  63.322  1.00  0.00    -0.094 C  
BRANCH   6   7
HETATM    7  C   UNL     1      -7.878   2.273  63.407  1.00  0.00    -0.067 A  
HETATM    8  C   UNL     1      -6.013   1.553  64.836  1.00  0.00    -0.017 A  
HETATM    9  C   UNL     1      -6.975   2.226  62.332  1.00  0.00    -0.027 A  
HETATM   10  C   UNL     1      -7.365   1.874  64.659  1.00  0.00    -0.057 A  
HETATM   11  C   UNL     1      -5.641   1.848  62.490  1.00  0.00    -0.007 A  
HETATM   12 CL   UNL     1      -8.391   1.800  66.051  1.00  0.00    -0.086 Cl 
HETATM   13  C   UNL     1      -5.151   1.537  63.746  1.00  0.00    -0.004 A  
ENDBRANCH   6   7
ENDBRANCH   3   6
BRANCH   3  14
HETATM   14  C   UNL     1     -10.826   3.867  65.120  1.00  0.00     0.254 C  
BRANCH  14  15
HETATM   15  C   UNL     1     -10.503   4.634  66.449  1.00  0.00    -0.163 C  
BRANCH  15  16
HETATM   16  N   UNL     1     -10.365   6.082  66.386  1.00  0.00    -0.420 N  
HETATM   17  H   UNL     1      -9.901   6.519  65.590  1.00  0.00     0.000 HD 
HETATM   18  C   UNL     1     -10.870   6.866  67.419  1.00  0.00    -0.326 C  
HETATM   19  O   UNL     1     -11.598   6.439  68.299  1.00  0.00    -0.029 OA 
BRANCH  18  20
HETATM   20  C   UNL     1     -10.537   8.376  67.311  1.00  0.00    -0.257 C  
HETATM   21  N   UNL     1      -9.908   8.769  66.128  1.00  0.00    -0.396 N  
HETATM   22  O   UNL     1     -10.827   9.147  68.210  1.00  0.00    -0.163 OA 
HETATM   23  H   UNL     1      -9.417   8.090  65.546  1.00  0.00     0.000 HD 
BRANCH  21  24
HETATM   24  C   UNL     1      -9.970  10.174  65.744  1.00  0.00    -0.271 C  
BRANCH  24  25
HETATM   25  C   UNL     1      -8.818  11.061  66.288  1.00  0.00    -0.180 C  
BRANCH  25  26
HETATM   26  N   UNL     1      -9.161  11.855  67.572  1.00  0.00    -0.173 N  
BRANCH  26  27
HETATM   27  C   UNL     1      -9.025  10.943  68.826  1.00  0.00    -0.164 C  
HETATM   28  C   UNL     1      -7.597  10.631  69.251  1.00  0.00    -0.138 C  
ENDBRANCH  26  27
BRANCH  26  29
HETATM   29  C   UNL     1      -8.198  13.072  67.647  1.00  0.00    -0.171 C  
HETATM   30  C   UNL     1      -6.808  12.838  67.083  1.00  0.00     0.012 C  
ENDBRANCH  26  29
BRANCH  26  31
HETATM   31  C   UNL     1     -10.652  12.359  67.518  1.00  0.00    -0.219 C  
BRANCH  31  32
HETATM   32  C   UNL     1     -10.940  13.837  67.722  1.00  0.00    -0.272 A  
HETATM   33  C   UNL     1     -10.829  14.742  66.646  1.00  0.00    -0.319 A  
HETATM   34  C   UNL     1     -10.960  16.122  66.836  1.00  0.00    -0.094 A  
HETATM   35  C   UNL     1     -11.186  16.631  68.108  1.00  0.00    -0.202 A  
HETATM   36  C   UNL     1     -11.319  15.759  69.184  1.00  0.00    -0.349 A  
HETATM   37  C   UNL     1     -11.208  14.377  68.996  1.00  0.00    -0.264 A  
HETATM   38 CL   UNL     1     -11.384  13.386  70.399  1.00  0.00     0.132 Cl 
ENDBRANCH  31  32
ENDBRANCH  26  31
ENDBRANCH  25  26
ENDBRANCH  24  25
ENDBRANCH  21  24
ENDBRANCH  18  20
ENDBRANCH  15  16
ENDBRANCH  14  15
ENDBRANCH   3  14
ENDBRANCH   2   3
TORSDOF 15
ENDMDL
MODEL      424
REMARK 921   NORMALIZED FREE ENERGY PREDICTED BY IDOCK:    1.43 KCAL/MOL
REMARK 922        TOTAL FREE ENERGY PREDICTED BY IDOCK:    0.03 KCAL/MOL
REMARK 923 INTER-LIGAND FREE ENERGY PREDICTED BY IDOCK:   -2.51 KCAL/MOL
REMARK 924 INTRA-LIGAND FREE ENERGY PREDICTED BY IDOCK:    2.53 KCAL/MOL
REMARK 927      BINDING AFFINITY PREDICTED BY RF-SCORE:    0.00 PKD
ROOT
HETATM    1  C   UNL     1      -8.644   6.888  68.064  1.00  0.00    -0.123 C  
HETATM    2  C   UNL     1      -8.064   5.756  67.229  1.00  0.00    -0.102 C  
ENDROOT
BRANCH   2   3
HETATM    3  N   UNL     1      -8.934   5.293  66.020  1.00  0.00    -0.139 N  
BRANCH   3   4
HETATM    4  C   UNL     1      -9.844   4.103  66.442  1.00  0.00    -0.195 C  
HETATM    5  C   UNL     1      -9.373   3.308  67.634  1.00  0.00    -0.245 C  
ENDBRANCH   3   4
BRANCH   3   6
HETATM    6  C   UNL     1      -8.036   4.722  64.898  1.00  0.00    -0.098 C  
BRANCH   6   7
HETATM    7  C   UNL     1      -6.981   3.650  65.153  1.00  0.00    -0.057 A  
HETATM    8  C   UNL     1      -5.801   1.662  64.317  1.00  0.00    -0.012 A  
HETATM    9  C   UNL     1      -6.280   3.468  66.357  1.00  0.00    -0.028 A  
HETATM   10  C   UNL     1      -6.673   2.741  64.119  1.00  0.00    -0.035 A  
HETATM   11  C   UNL     1      -5.363   2.431  66.541  1.00  0.00    -0.012 A  
HETATM   12 CL   UNL     1      -7.398   2.904  62.556  1.00  0.00    -0.040 Cl 
HETATM   13  C   UNL     1      -5.142   1.512  65.531  1.00  0.00    -0.005 A  
ENDBRANCH   6   7
ENDBRANCH   3   6
BRANCH   3  14
HETATM   14  C   UNL     1      -9.741   6.572  65.554  1.00  0.00     0.779 C  
BRANCH  14  15
HETATM   15  C   UNL     1      -9.136   7.400  64.368  1.00  0.00     1.295 C  
BRANCH  15  16
HETATM   16  N   UNL     1      -9.528   8.795  64.238  1.00  0.00     0.235 N  
HETATM   17  H   UNL     1      -9.616   9.220  63.315  1.00  0.00     0.000 HD 
HETATM   18  C   UNL     1      -9.784   9.547  65.381  1.00  0.00    -0.244 C  
HETATM   19  O   UNL     1      -9.888   9.066  66.497  1.00  0.00    -0.223 OA 
BRANCH  18  20
HETATM   20  C   UNL     1     -10.052  11.051  65.123  1.00  0.00    -0.289 C  
HETATM   21  N   UNL     1      -9.328  11.936  65.924  1.00  0.00    -0.327 N  
HETATM   22  O   UNL     1     -10.839  11.409  64.263  1.00  0.00    -0.342 OA 
HETATM   23  H   UNL     1      -8.923  11.629  66.809  1.00  0.00     0.000 HD 
BRANCH  21  24
HETATM   24  C   UNL     1      -9.164  13.310  65.466  1.00  0.00     0.530 C  
BRANCH  24  25
HETATM   25  C   UNL     1      -9.529  14.404  66.506  1.00  0.00    -0.289 C  
BRANCH  25  26
HETATM   26  N   UNL     1      -9.587  13.910  67.972  1.00  0.00    -0.212 N  
BRANCH  26  27
HETATM   27  C   UNL     1      -8.149  13.743  68.545  1.00  0.00    -0.128 C  
HETATM   28  C   UNL     1      -7.663  14.887  69.425  1.00  0.00    -0.150 C  
ENDBRANCH  26  27
BRANCH  26  29
HETATM   29  C   UNL     1     -10.406  14.948  68.789  1.00  0.00    -0.245 C  
HETATM   30  C   UNL     1     -11.855  15.113  68.366  1.00  0.00    -0.293 C  
ENDBRANCH  26  29
BRANCH  26  31
HETATM   31  C   UNL     1     -10.287  12.502  68.046  1.00  0.00    -0.222 C  
BRANCH  31  32
HETATM   32  C   UNL     1      -9.767  11.470  69.033  1.00  0.00     0.016 A  
HETATM   33  C   UNL     1      -8.384  11.211  69.136  1.00  0.00     0.014 A  
HETATM   34  C   UNL     1      -7.892  10.177  69.939  1.00  0.00    -0.164 A  
HETATM   35  C   UNL     1      -8.772   9.364  70.642  1.00  0.00    -0.263 A  
HETATM   36  C   UNL     1     -10.139   9.608  70.573  1.00  0.00    -0.338 A  
HETATM   37  C   UNL     1     -10.635  10.654  69.787  1.00  0.00    -0.184 A  
HETATM   38 CL   UNL     1     -12.348  10.867  69.769  1.00  0.00    -0.372 Cl 
ENDBRANCH  31  32
ENDBRANCH  26  31
ENDBRANCH  25  26
ENDBRANCH  24  25
ENDBRANCH  21  24
ENDBRANCH  18  20
ENDBRANCH  15  16
ENDBRANCH  14  15
ENDBRANCH   3  14
ENDBRANCH   2   3
TORSDOF 15
ENDMDL
MODEL      425
REMARK 921   NORMALIZED FREE ENERGY PREDICTED BY IDOCK:    1.83 KCAL/MOL
REMARK 922        TOTAL FREE ENERGY PREDICTED BY IDOCK:    0.78 KCAL/MOL
REMARK 923 INTER-LIGAND FREE ENERGY PREDICTED BY IDOCK:    1.96 KCAL/MOL
REMARK 924 INTRA-LIGAND FREE ENERGY PREDICTED BY IDOCK:   -1.18 KCAL/MOL
REMARK 927      BINDING AFFINITY PREDICTED BY RF-SCORE:    0.00 PKD
ROOT
HETATM    1  C   UNL     1     -10.580  13.284  70.029  1.00  0.00     1.127 C  
HETATM    2  C   UNL     1     -10.417  11.775  69.916  1.00  0.00     0.892 C  
ENDROOT
BRANCH   2   3
HETATM    3  N   UNL     1     -11.700  10.934  70.197  1.00  0.00    -0.318 N  
BRANCH   3   4
HETATM    4  C   UNL     1     -12.259  11.270  71.610  1.00  0.00     0.175 C  
HETATM    5  C   UNL     1     -13.624  10.713  71.926  1.00  0.00    -0.200 C  
ENDBRANCH   3   4
BRANCH   3   6
HETATM    6  C   UNL     1     -11.353   9.428  70.260  1.00  0.00    -0.220 C  
BRANCH   6   7
HETATM    7  C   UNL     1     -10.594   8.806  71.429  1.00  0.00    -0.349 A  
HETATM    8  C   UNL     1      -8.426   8.124  72.363  1.00  0.00    -0.238 A  
HETATM    9  C   UNL     1     -11.183   8.231  72.568  1.00  0.00    -0.446 A  
HETATM   10  C   UNL     1      -9.185   8.778  71.384  1.00  0.00    -0.255 A  
HETATM   11  C   UNL     1     -10.429   7.630  73.578  1.00  0.00    -0.284 A  
HETATM   12 CL   UNL     1      -8.328   9.529  70.082  1.00  0.00    -0.190 Cl 
HETATM   13  C   UNL     1      -9.053   7.553  73.465  1.00  0.00    -0.286 A  
ENDBRANCH   6   7
ENDBRANCH   3   6
BRANCH   3  14
HETATM   14  C   UNL     1     -12.704  11.273  69.022  1.00  0.00     0.851 C  
BRANCH  14  15
HETATM   15  C   UNL     1     -12.492  10.514  67.667  1.00  0.00     3.632 C  
BRANCH  15  16
HETATM   16  N   UNL     1     -11.135  10.400  67.153  1.00  0.00    -0.199 N  
HETATM   17  H   UNL     1     -10.629   9.518  67.232  1.00  0.00     0.000 HD 
HETATM   18  C   UNL     1     -10.531  11.502  66.554  1.00  0.00    -0.244 C  
HETATM   19  O   UNL     1     -11.130  12.520  66.253  1.00  0.00    -0.273 OA 
BRANCH  18  20
HETATM   20  C   UNL     1      -9.041  11.302  66.178  1.00  0.00    -0.204 C  
HETATM   21  N   UNL     1      -8.401  10.233  66.809  1.00  0.00    -0.123 N  
HETATM   22  O   UNL     1      -8.494  12.037  65.374  1.00  0.00     0.522 OA 
HETATM   23  H   UNL     1      -8.772   9.837  67.673  1.00  0.00     0.000 HD 
BRANCH  21  24
HETATM   24  C   UNL     1      -7.188   9.696  66.203  1.00  0.00    -0.098 C  
BRANCH  24  25
HETATM   25  C   UNL     1      -6.902   8.201  66.507  1.00  0.00    -0.067 C  
BRANCH  25  26
HETATM   26  N   UNL     1      -7.633   7.199  65.580  1.00  0.00    -0.088 N  
BRANCH  26  27
HETATM   27  C   UNL     1      -8.172   7.927  64.314  1.00  0.00    -0.038 C  
HETATM   28  C   UNL     1      -7.232   7.930  63.116  1.00  0.00    -0.091 C  
ENDBRANCH  26  27
BRANCH  26  29
HETATM   29  C   UNL     1      -6.623   6.079  65.204  1.00  0.00    -0.043 C  
HETATM   30  C   UNL     1      -5.159   6.433  65.391  1.00  0.00    -0.014 C  
ENDBRANCH  26  29
BRANCH  26  31
HETATM   31  C   UNL     1      -8.871   6.573  66.324  1.00  0.00    -0.146 C  
BRANCH  31  32
HETATM   32  C   UNL     1      -8.778   5.147  66.842  1.00  0.00    -0.107 A  
HETATM   33  C   UNL     1      -9.201   4.065  66.042  1.00  0.00    -0.153 A  
HETATM   34  C   UNL     1      -9.249   2.760  66.543  1.00  0.00    -0.102 A  
HETATM   35  C   UNL     1      -8.894   2.508  67.862  1.00  0.00    -0.161 A  
HETATM   36  C   UNL     1      -8.455   3.553  68.668  1.00  0.00    -0.102 A  
HETATM   37  C   UNL     1      -8.387   4.857  68.165  1.00  0.00    -0.099 A  
HETATM   38 CL   UNL     1      -7.833   6.080  69.251  1.00  0.00    -0.101 Cl 
ENDBRANCH  31  32
ENDBRANCH  26  31
ENDBRANCH  25  26
ENDBRANCH  24  25
ENDBRANCH  21  24
ENDBRANCH  18  20
ENDBRANCH  15  16
ENDBRANCH  14  15
ENDBRANCH   3  14
ENDBRANCH   2   3
TORSDOF 15
ENDMDL
MODEL      426
REMARK 921   NORMALIZED FREE ENERGY PREDICTED BY IDOCK:    2.01 KCAL/MOL
REMARK 922        TOTAL FREE ENERGY PREDICTED BY IDOCK:    1.11 KCAL/MOL
REMARK 923 INTER-LIGAND FREE ENERGY PREDICTED BY IDOCK:    1.07 KCAL/MOL
REMARK 924 INTRA-LIGAND FREE ENERGY PREDICTED BY IDOCK:    0.04 KCAL/MOL
REMARK 927      BINDING AFFINITY PREDICTED BY RF-SCORE:    0.00 PKD
ROOT
HETATM    1  C   UNL     1     -10.588  13.347  70.239  1.00  0.00     1.604 C  
HETATM    2  C   UNL     1     -10.421  11.941  69.681  1.00  0.00     0.527 C  
ENDROOT
BRANCH   2   3
HETATM    3  N   UNL     1     -11.612  10.967  69.938  1.00  0.00    -0.301 N  
BRANCH   3   4
HETATM    4  C   UNL     1     -12.079  11.074  71.418  1.00  0.00    -0.072 C  
HETATM    5  C   UNL     1     -13.365  10.362  71.755  1.00  0.00    -0.456 C  
ENDBRANCH   3   4
BRANCH   3   6
HETATM    6  C   UNL     1     -11.151   9.499  69.777  1.00  0.00    -0.191 C  
BRANCH   6   7
HETATM    7  C   UNL     1     -10.006   8.902  70.590  1.00  0.00    -0.265 A  
HETATM    8  C   UNL     1      -7.823   7.773  70.576  1.00  0.00    -0.096 A  
HETATM    9  C   UNL     1      -9.990   8.757  71.988  1.00  0.00    -0.391 A  
HETATM   10  C   UNL     1      -8.862   8.435  69.910  1.00  0.00    -0.137 A  
HETATM   11  C   UNL     1      -8.930   8.152  72.665  1.00  0.00    -0.299 A  
HETATM   12 CL   UNL     1      -8.712   8.632  68.197  1.00  0.00    -0.141 Cl 
HETATM   13  C   UNL     1      -7.858   7.636  71.959  1.00  0.00    -0.106 A  
ENDBRANCH   6   7
ENDBRANCH   3   6
BRANCH   3  14
HETATM   14  C   UNL     1     -12.730  11.366  68.891  1.00  0.00     1.048 C  
BRANCH  14  15
HETATM   15  C   UNL     1     -12.407  11.112  67.378  1.00  0.00     1.860 C  
BRANCH  15  16
HETATM   16  N   UNL     1     -11.062  11.410  66.906  1.00  0.00    -0.296 N  
HETATM   17  H   UNL     1     -10.411  10.652  66.701  1.00  0.00     0.000 HD 
HETATM   18  C   UNL     1     -10.671  12.735  66.736  1.00  0.00    -0.260 C  
HETATM   19  O   UNL     1     -11.443  13.678  66.774  1.00  0.00    -0.320 OA 
BRANCH  18  20
HETATM   20  C   UNL     1      -9.178  12.929  66.370  1.00  0.00    -0.137 C  
HETATM   21  N   UNL     1      -8.318  11.917  66.801  1.00  0.00    -0.247 N  
HETATM   22  O   UNL     1      -8.810  13.905  65.738  1.00  0.00     0.502 OA 
HETATM   23  H   UNL     1      -8.585  11.292  67.561  1.00  0.00     0.000 HD 
BRANCH  21  24
HETATM   24  C   UNL     1      -7.028  11.775  66.136  1.00  0.00     0.539 C  
BRANCH  24  25
HETATM   25  C   UNL     1      -6.663  10.331  65.699  1.00  0.00    -0.122 C  
BRANCH  25  26
HETATM   26  N   UNL     1      -7.381   9.840  64.418  1.00  0.00    -0.127 N  
BRANCH  26  27
HETATM   27  C   UNL     1      -8.519  10.827  64.023  1.00  0.00     0.021 C  
HETATM   28  C   UNL     1      -9.934  10.308  64.239  1.00  0.00    -0.293 C  
ENDBRANCH  26  27
BRANCH  26  29
HETATM   29  C   UNL     1      -6.315   9.725  63.293  1.00  0.00    -0.116 C  
HETATM   30  C   UNL     1      -5.125  10.658  63.424  1.00  0.00    -0.176 C  
ENDBRANCH  26  29
BRANCH  26  31
HETATM   31  C   UNL     1      -8.045   8.436  64.669  1.00  0.00    -0.156 C  
BRANCH  31  32
HETATM   32  C   UNL     1      -7.341   7.185  64.169  1.00  0.00    -0.083 A  
HETATM   33  C   UNL     1      -7.645   6.652  62.899  1.00  0.00    -0.089 A  
HETATM   34  C   UNL     1      -7.110   5.432  62.472  1.00  0.00    -0.043 A  
HETATM   35  C   UNL     1      -6.274   4.708  63.310  1.00  0.00    -0.022 A  
HETATM   36  C   UNL     1      -5.942   5.219  64.561  1.00  0.00    -0.022 A  
HETATM   37  C   UNL     1      -6.460   6.448  64.985  1.00  0.00    -0.038 A  
HETATM   38 CL   UNL     1      -5.988   6.988  66.556  1.00  0.00    -0.033 Cl 
ENDBRANCH  31  32
ENDBRANCH  26  31
ENDBRANCH  25  26
ENDBRANCH  24  25
ENDBRANCH  21  24
ENDBRANCH  18  20
ENDBRANCH  15  16
ENDBRANCH  14  15
ENDBRANCH   3  14
ENDBRANCH   2   3
TORSDOF 15
ENDMDL
MODEL      427
REMARK 921   NORMALIZED FREE ENERGY PREDICTED BY IDOCK:    2.23 KCAL/MOL
REMARK 922        TOTAL FREE ENERGY PREDICTED BY IDOCK:    1.53 KCAL/MOL
REMARK 923 INTER-LIGAND FREE ENERGY PREDICTED BY IDOCK:    1.40 KCAL/MOL
REMARK 924 INTRA-LIGAND FREE ENERGY PREDICTED BY IDOCK:    0.13 KCAL/MOL
REMARK 927      BINDING AFFINITY PREDICTED BY RF-SCORE:    0.00 PKD
ROOT
HETATM    1  C   UNL     1     -12.122  11.009  70.359  1.00  0.00    -0.463 C  
HETATM    2  C   UNL     1     -11.980   9.532  70.023  1.00  0.00     0.182 C  
ENDROOT
BRANCH   2   3
HETATM    3  N   UNL     1     -11.227   8.667  71.081  1.00  0.00    -0.259 N  
BRANCH   3   4
HETATM    4  C   UNL     1     -11.508   9.213  72.512  1.00  0.00     0.379 C  
HETATM    5  C   UNL     1     -12.553   8.468  73.304  1.00  0.00     1.220 C  
ENDBRANCH   3   4
BRANCH   3   6
HETATM    6  C   UNL     1      -9.697   8.809  70.901  1.00  0.00    -0.222 C  
BRANCH   6   7
HETATM    7  C   UNL     1      -9.055   9.174  69.566  1.00  0.00    -0.155 A  
HETATM    8  C   UNL     1      -7.007   9.281  68.213  1.00  0.00    -0.072 A  
HETATM    9  C   UNL     1      -9.707   9.810  68.497  1.00  0.00    -0.164 A  
HETATM   10  C   UNL     1      -7.691   8.875  69.365  1.00  0.00    -0.093 A  
HETATM   11  C   UNL     1      -9.045  10.164  67.320  1.00  0.00    -0.151 A  
HETATM   12 CL   UNL     1      -6.790   8.014  70.566  1.00  0.00    -0.037 Cl 
HETATM   13  C   UNL     1      -7.689   9.924  67.187  1.00  0.00    -0.092 A  
ENDBRANCH   6   7
ENDBRANCH   3   6
BRANCH   3  14
HETATM   14  C   UNL     1     -11.726   7.182  70.860  1.00  0.00    -0.328 C  
BRANCH  14  15
HETATM   15  C   UNL     1     -12.104   6.772  69.395  1.00  0.00     0.723 C  
BRANCH  15  16
HETATM   16  N   UNL     1     -11.483   5.579  68.838  1.00  0.00     0.881 N  
HETATM   17  H   UNL     1     -11.556   4.687  69.326  1.00  0.00     0.000 HD 
HETATM   18  C   UNL     1     -10.788   5.663  67.634  1.00  0.00    -0.089 C  
HETATM   19  O   UNL     1     -10.820   6.639  66.903  1.00  0.00    -0.341 OA 
BRANCH  18  20
HETATM   20  C   UNL     1     -10.052   4.366  67.217  1.00  0.00    -0.049 C  
HETATM   21  N   UNL     1      -8.908   4.549  66.438  1.00  0.00    -0.112 N  
HETATM   22  O   UNL     1     -10.461   3.273  67.570  1.00  0.00     1.414 OA 
HETATM   23  H   UNL     1      -8.763   5.414  65.917  1.00  0.00     0.000 HD 
BRANCH  21  24
HETATM   24  C   UNL     1      -7.926   3.473  66.385  1.00  0.00    -0.088 C  
BRANCH  24  25
HETATM   25  C   UNL     1      -7.762   2.661  67.699  1.00  0.00    -0.060 C  
BRANCH  25  26
HETATM   26  N   UNL     1      -6.930   3.367  68.798  1.00  0.00    -0.048 N  
BRANCH  26  27
HETATM   27  C   UNL     1      -6.049   2.332  69.558  1.00  0.00    -0.024 C  
HETATM   28  C   UNL     1      -5.133   1.489  68.682  1.00  0.00    -0.008 C  
ENDBRANCH  26  27
BRANCH  26  29
HETATM   29  C   UNL     1      -6.060   4.454  68.108  1.00  0.00    -0.031 C  
HETATM   30  C   UNL     1      -6.608   5.868  68.178  1.00  0.00    -0.055 C  
ENDBRANCH  26  29
BRANCH  26  31
HETATM   31  C   UNL     1      -7.883   4.038  69.856  1.00  0.00    -0.052 C  
BRANCH  31  32
HETATM   32  C   UNL     1      -7.808   3.591  71.306  1.00  0.00    -0.059 A  
HETATM   33  C   UNL     1      -8.760   2.689  71.826  1.00  0.00    -0.109 A  
HETATM   34  C   UNL     1      -8.792   2.365  73.187  1.00  0.00    -0.073 A  
HETATM   35  C   UNL     1      -7.887   2.949  74.063  1.00  0.00    -0.064 A  
HETATM   36  C   UNL     1      -6.925   3.827  73.573  1.00  0.00    -0.046 A  
HETATM   37  C   UNL     1      -6.877   4.139  72.211  1.00  0.00    -0.042 A  
HETATM   38 CL   UNL     1      -5.647   5.244  71.711  1.00  0.00    -0.012 Cl 
ENDBRANCH  31  32
ENDBRANCH  26  31
ENDBRANCH  25  26
ENDBRANCH  24  25
ENDBRANCH  21  24
ENDBRANCH  18  20
ENDBRANCH  15  16
ENDBRANCH  14  15
ENDBRANCH   3  14
ENDBRANCH   2   3
TORSDOF 15
ENDMDL
MODEL      428
REMARK 921   NORMALIZED FREE ENERGY PREDICTED BY IDOCK:    2.67 KCAL/MOL
REMARK 922        TOTAL FREE ENERGY PREDICTED BY IDOCK:    2.36 KCAL/MOL
REMARK 923 INTER-LIGAND FREE ENERGY PREDICTED BY IDOCK:   -1.63 KCAL/MOL
REMARK 924 INTRA-LIGAND FREE ENERGY PREDICTED BY IDOCK:    3.99 KCAL/MOL
REMARK 927      BINDING AFFINITY PREDICTED BY RF-SCORE:    0.00 PKD
ROOT
HETATM    1  C   UNL     1     -13.394  11.298  70.875  1.00  0.00     0.306 C  
HETATM    2  C   UNL     1     -12.730  11.089  69.521  1.00  0.00     0.241 C  
ENDROOT
BRANCH   2   3
HETATM    3  N   UNL     1     -11.188  11.316  69.482  1.00  0.00    -0.268 N  
BRANCH   3   4
HETATM    4  C   UNL     1     -10.448  10.036  69.969  1.00  0.00    -0.287 C  
HETATM    5  C   UNL     1     -10.915   8.737  69.361  1.00  0.00    -0.046 C  
ENDBRANCH   3   4
BRANCH   3   6
HETATM    6  C   UNL     1     -10.780  12.413  70.493  1.00  0.00     2.610 C  
BRANCH   6   7
HETATM    7  C   UNL     1     -11.644  13.639  70.771  1.00  0.00     0.180 A  
HETATM    8  C   UNL     1     -11.754  16.080  71.041  1.00  0.00    -0.458 A  
HETATM    9  C   UNL     1     -13.004  13.613  71.124  1.00  0.00    -0.353 A  
HETATM   10  C   UNL     1     -11.054  14.918  70.689  1.00  0.00    -0.133 A  
HETATM   11  C   UNL     1     -13.724  14.773  71.417  1.00  0.00    -0.504 A  
HETATM   12 CL   UNL     1      -9.411  15.101  70.179  1.00  0.00     0.185 Cl 
HETATM   13  C   UNL     1     -13.094  16.005  71.402  1.00  0.00     0.090 A  
ENDBRANCH   6   7
ENDBRANCH   3   6
BRANCH   3  14
HETATM   14  C   UNL     1     -10.847  11.714  67.989  1.00  0.00    -0.215 C  
BRANCH  14  15
HETATM   15  C   UNL     1     -11.517  13.018  67.433  1.00  0.00    -0.332 C  
BRANCH  15  16
HETATM   16  N   UNL     1     -10.722  14.238  67.408  1.00  0.00    -0.279 N  
HETATM   17  H   UNL     1      -9.740  14.215  67.681  1.00  0.00     0.000 HD 
HETATM   18  C   UNL     1     -11.311  15.434  67.010  1.00  0.00    -0.175 C  
HETATM   19  O   UNL     1     -12.412  15.506  66.492  1.00  0.00     0.911 OA 
BRANCH  18  20
HETATM   20  C   UNL     1     -10.409  16.685  67.163  1.00  0.00    -0.300 C  
HETATM   21  N   UNL     1      -9.911  17.215  65.971  1.00  0.00    -0.254 N  
HETATM   22  O   UNL     1     -10.176  17.158  68.262  1.00  0.00    -0.294 OA 
HETATM   23  H   UNL     1      -9.866  16.647  65.124  1.00  0.00     0.000 HD 
BRANCH  21  24
HETATM   24  C   UNL     1      -9.456  18.600  65.965  1.00  0.00    -0.037 C  
BRANCH  24  25
HETATM   25  C   UNL     1      -8.978  19.145  67.339  1.00  0.00    -0.293 C  
BRANCH  25  26
HETATM   26  N   UNL     1      -7.448  19.342  67.462  1.00  0.00    -0.233 N  
BRANCH  26  27
HETATM   27  C   UNL     1      -6.698  18.058  66.997  1.00  0.00    -0.180 C  
HETATM   28  C   UNL     1      -6.454  17.955  65.498  1.00  0.00    -0.125 C  
ENDBRANCH  26  27
BRANCH  26  29
HETATM   29  C   UNL     1      -7.057  20.572  66.597  1.00  0.00    -0.259 C  
HETATM   30  C   UNL     1      -5.819  21.323  67.053  1.00  0.00    -0.392 C  
ENDBRANCH  26  29
BRANCH  26  31
HETATM   31  C   UNL     1      -7.050  19.598  68.963  1.00  0.00    -0.352 C  
BRANCH  31  32
HETATM   32  C   UNL     1      -6.340  18.501  69.738  1.00  0.00    -0.160 A  
HETATM   33  C   UNL     1      -6.286  17.186  69.229  1.00  0.00    -0.231 A  
HETATM   34  C   UNL     1      -5.755  16.132  69.981  1.00  0.00    -0.179 A  
HETATM   35  C   UNL     1      -5.285  16.364  71.266  1.00  0.00    -0.025 A  
HETATM   36  C   UNL     1      -5.308  17.654  71.786  1.00  0.00     0.421 A  
HETATM   37  C   UNL     1      -5.820  18.714  71.030  1.00  0.00     0.181 A  
HETATM   38 CL   UNL     1      -5.807  20.274  71.772  1.00  0.00    -0.392 Cl 
ENDBRANCH  31  32
ENDBRANCH  26  31
ENDBRANCH  25  26
ENDBRANCH  24  25
ENDBRANCH  21  24
ENDBRANCH  18  20
ENDBRANCH  15  16
ENDBRANCH  14  15
ENDBRANCH   3  14
ENDBRANCH   2   3
TORSDOF 15
ENDMDL
MODEL      429
REMARK 921   NORMALIZED FREE ENERGY PREDICTED BY IDOCK:    3.26 KCAL/MOL
REMARK 922        TOTAL FREE ENERGY PREDICTED BY IDOCK:    3.46 KCAL/MOL
REMARK 923 INTER-LIGAND FREE ENERGY PREDICTED BY IDOCK:   -2.76 KCAL/MOL
REMARK 924 INTRA-LIGAND FREE ENERGY PREDICTED BY IDOCK:    6.23 KCAL/MOL
REMARK 927      BINDING AFFINITY PREDICTED BY RF-SCORE:    0.00 PKD
ROOT
HETATM    1  C   UNL     1     -13.500  13.404  70.031  1.00  0.00     1.601 C  
HETATM    2  C   UNL     1     -11.998  13.212  70.185  1.00  0.00    -0.310 C  
ENDROOT
BRANCH   2   3
HETATM    3  N   UNL     1     -11.104  14.197  69.370  1.00  0.00    -0.244 N  
BRANCH   3   4
HETATM    4  C   UNL     1     -10.424  15.217  70.329  1.00  0.00    -0.191 C  
HETATM    5  C   UNL     1     -11.294  16.356  70.799  1.00  0.00    -0.211 C  
ENDBRANCH   3   4
BRANCH   3   6
HETATM    6  C   UNL     1     -11.975  15.062  68.429  1.00  0.00    -0.200 C  
BRANCH   6   7
HETATM    7  C   UNL     1     -11.642  15.265  66.954  1.00  0.00    -0.068 A  
HETATM    8  C   UNL     1     -11.453  14.266  64.716  1.00  0.00    -0.394 A  
HETATM    9  C   UNL     1     -11.129  16.445  66.390  1.00  0.00     0.181 A  
HETATM   10  C   UNL     1     -11.842  14.192  66.060  1.00  0.00    -0.398 A  
HETATM   11  C   UNL     1     -10.796  16.546  65.038  1.00  0.00    -0.245 A  
HETATM   12 CL   UNL     1     -12.550  12.710  66.604  1.00  0.00     0.461 Cl 
HETATM   13  C   UNL     1     -10.933  15.449  64.206  1.00  0.00     0.158 A  
ENDBRANCH   6   7
ENDBRANCH   3   6
BRANCH   3  14
HETATM   14  C   UNL     1     -10.076  13.292  68.578  1.00  0.00    -0.206 C  
BRANCH  14  15
HETATM   15  C   UNL     1     -10.384  11.756  68.516  1.00  0.00    -0.217 C  
BRANCH  15  16
HETATM   16  N   UNL     1      -9.906  10.918  69.607  1.00  0.00    -0.419 N  
HETATM   17  H   UNL     1      -8.906  10.778  69.746  1.00  0.00     0.000 HD 
HETATM   18  C   UNL     1     -10.823  10.311  70.461  1.00  0.00    -0.211 C  
HETATM   19  O   UNL     1     -12.012  10.582  70.478  1.00  0.00    -0.285 OA 
BRANCH  18  20
HETATM   20  C   UNL     1     -10.204   9.333  71.490  1.00  0.00    -0.268 C  
HETATM   21  N   UNL     1      -8.938   8.842  71.165  1.00  0.00    -0.202 N  
HETATM   22  O   UNL     1     -10.800   9.039  72.512  1.00  0.00    -0.060 OA 
HETATM   23  H   UNL     1      -8.602   8.857  70.202  1.00  0.00     0.000 HD 
BRANCH  21  24
HETATM   24  C   UNL     1      -8.106   8.307  72.237  1.00  0.00    -0.149 C  
BRANCH  24  25
HETATM   25  C   UNL     1      -7.226   7.089  71.846  1.00  0.00    -0.081 C  
BRANCH  25  26
HETATM   26  N   UNL     1      -6.972   6.932  70.327  1.00  0.00    -0.064 N  
BRANCH  26  27
HETATM   27  C   UNL     1      -8.323   6.882  69.554  1.00  0.00    -0.133 C  
HETATM   28  C   UNL     1      -8.848   5.485  69.254  1.00  0.00    -0.112 C  
ENDBRANCH  26  27
BRANCH  26  29
HETATM   29  C   UNL     1      -6.099   8.132  69.867  1.00  0.00    -0.028 C  
HETATM   30  C   UNL     1      -5.214   8.743  70.939  1.00  0.00    -0.028 C  
ENDBRANCH  26  29
BRANCH  26  31
HETATM   31  C   UNL     1      -6.216   5.582  70.038  1.00  0.00    -0.026 C  
BRANCH  31  32
HETATM   32  C   UNL     1      -6.927   4.266  70.305  1.00  0.00    -0.038 A  
HETATM   33  C   UNL     1      -7.294   3.421  69.236  1.00  0.00    -0.049 A  
HETATM   34  C   UNL     1      -8.063   2.271  69.445  1.00  0.00    -0.061 A  
HETATM   35  C   UNL     1      -8.499   1.949  70.723  1.00  0.00    -0.082 A  
HETATM   36  C   UNL     1      -8.136   2.753  71.797  1.00  0.00    -0.057 A  
HETATM   37  C   UNL     1      -7.351   3.894  71.596  1.00  0.00    -0.054 A  
HETATM   38 CL   UNL     1      -6.961   4.824  72.998  1.00  0.00    -0.071 Cl 
ENDBRANCH  31  32
ENDBRANCH  26  31
ENDBRANCH  25  26
ENDBRANCH  24  25
ENDBRANCH  21  24
ENDBRANCH  18  20
ENDBRANCH  15  16
ENDBRANCH  14  15
ENDBRANCH   3  14
ENDBRANCH   2   3
TORSDOF 15
ENDMDL
MODEL      430
REMARK 921   NORMALIZED FREE ENERGY PREDICTED BY IDOCK:    3.33 KCAL/MOL
REMARK 922        TOTAL FREE ENERGY PREDICTED BY IDOCK:    3.60 KCAL/MOL
REMARK 923 INTER-LIGAND FREE ENERGY PREDICTED BY IDOCK:    0.22 KCAL/MOL
REMARK 924 INTRA-LIGAND FREE ENERGY PREDICTED BY IDOCK:    3.38 KCAL/MOL
REMARK 927      BINDING AFFINITY PREDICTED BY RF-SCORE:    0.00 PKD
ROOT
HETATM    1  C   UNL     1     -11.755   5.937  65.710  1.00  0.00     2.615 C  
HETATM    2  C   UNL     1     -10.598   4.957  65.849  1.00  0.00    -0.230 C  
ENDROOT
BRANCH   2   3
HETATM    3  N   UNL     1      -9.247   5.413  65.217  1.00  0.00    -0.062 N  
BRANCH   3   4
HETATM    4  C   UNL     1      -9.036   4.709  63.845  1.00  0.00    -0.078 C  
HETATM    5  C   UNL     1     -10.242   4.003  63.277  1.00  0.00    -0.136 C  
ENDBRANCH   3   4
BRANCH   3   6
HETATM    6  C   UNL     1      -8.059   4.941  66.087  1.00  0.00    -0.107 C  
BRANCH   6   7
HETATM    7  C   UNL     1      -7.240   3.697  65.757  1.00  0.00    -0.071 A  
HETATM    8  C   UNL     1      -5.232   2.356  66.216  1.00  0.00    -0.005 A  
HETATM    9  C   UNL     1      -7.517   2.792  64.719  1.00  0.00    -0.071 A  
HETATM   10  C   UNL     1      -6.095   3.414  66.531  1.00  0.00    -0.024 A  
HETATM   11  C   UNL     1      -6.694   1.700  64.438  1.00  0.00    -0.023 A  
HETATM   12 CL   UNL     1      -5.686   4.397  67.895  1.00  0.00    -0.021 Cl 
HETATM   13  C   UNL     1      -5.537   1.496  65.168  1.00  0.00    -0.009 A  
ENDBRANCH   6   7
ENDBRANCH   3   6
BRANCH   3  14
HETATM   14  C   UNL     1      -9.329   6.990  65.113  1.00  0.00     0.945 C  
BRANCH  14  15
HETATM   15  C   UNL     1      -9.051   7.803  66.425  1.00  0.00    -0.175 C  
BRANCH  15  16
HETATM   16  N   UNL     1      -8.263   7.165  67.469  1.00  0.00    -0.116 N  
HETATM   17  H   UNL     1      -7.444   6.607  67.226  1.00  0.00     0.000 HD 
HETATM   18  C   UNL     1      -8.632   7.322  68.802  1.00  0.00    -0.129 C  
HETATM   19  O   UNL     1      -9.472   8.120  69.182  1.00  0.00    -0.154 OA 
BRANCH  18  20
HETATM   20  C   UNL     1      -7.806   6.482  69.808  1.00  0.00    -0.115 C  
HETATM   21  N   UNL     1      -8.401   5.292  70.229  1.00  0.00    -0.104 N  
HETATM   22  O   UNL     1      -6.706   6.856  70.181  1.00  0.00    -0.052 OA 
HETATM   23  H   UNL     1      -9.409   5.154  70.148  1.00  0.00     0.000 HD 
BRANCH  21  24
HETATM   24  C   UNL     1      -7.548   4.249  70.786  1.00  0.00    -0.052 C  
BRANCH  24  25
HETATM   25  C   UNL     1      -6.299   4.757  71.556  1.00  0.00    -0.022 C  
BRANCH  25  26
HETATM   26  N   UNL     1      -6.532   5.032  73.062  1.00  0.00    -0.057 N  
BRANCH  26  27
HETATM   27  C   UNL     1      -6.646   3.692  73.846  1.00  0.00    -0.042 C  
HETATM   28  C   UNL     1      -5.457   2.752  73.702  1.00  0.00     0.000 C  
ENDBRANCH  26  27
BRANCH  26  29
HETATM   29  C   UNL     1      -5.344   5.891  73.575  1.00  0.00    -0.024 C  
HETATM   30  C   UNL     1      -5.565   7.393  73.548  1.00  0.00    -0.045 C  
ENDBRANCH  26  29
BRANCH  26  31
HETATM   31  C   UNL     1      -7.883   5.813  73.270  1.00  0.00    -0.106 C  
BRANCH  31  32
HETATM   32  C   UNL     1      -9.165   5.026  73.487  1.00  0.00    -0.126 A  
HETATM   33  C   UNL     1      -9.117   3.648  73.784  1.00  0.00    -0.091 A  
HETATM   34  C   UNL     1     -10.281   2.876  73.858  1.00  0.00    -0.198 A  
HETATM   35  C   UNL     1     -11.518   3.458  73.618  1.00  0.00    -0.124 A  
HETATM   36  C   UNL     1     -11.596   4.819  73.341  1.00  0.00    -0.231 A  
HETATM   37  C   UNL     1     -10.436   5.599  73.285  1.00  0.00    -0.231 A  
HETATM   38 CL   UNL     1     -10.646   7.276  72.930  1.00  0.00    -0.306 Cl 
ENDBRANCH  31  32
ENDBRANCH  26  31
ENDBRANCH  25  26
ENDBRANCH  24  25
ENDBRANCH  21  24
ENDBRANCH  18  20
ENDBRANCH  15  16
ENDBRANCH  14  15
ENDBRANCH   3  14
ENDBRANCH   2   3
TORSDOF 15
ENDMDL
MODEL      431
REMARK 921   NORMALIZED FREE ENERGY PREDICTED BY IDOCK:    3.44 KCAL/MOL
REMARK 922        TOTAL FREE ENERGY PREDICTED BY IDOCK:    3.80 KCAL/MOL
REMARK 923 INTER-LIGAND FREE ENERGY PREDICTED BY IDOCK:    1.20 KCAL/MOL
REMARK 924 INTRA-LIGAND FREE ENERGY PREDICTED BY IDOCK:    2.60 KCAL/MOL
REMARK 927      BINDING AFFINITY PREDICTED BY RF-SCORE:    0.00 PKD
ROOT
HETATM    1  C   UNL     1     -10.291  12.072  64.501  1.00  0.00    -0.334 C  
HETATM    2  C   UNL     1     -10.140  12.092  66.015  1.00  0.00    -0.230 C  
ENDROOT
BRANCH   2   3
HETATM    3  N   UNL     1     -11.193  12.944  66.788  1.00  0.00    -0.286 N  
BRANCH   3   4
HETATM    4  C   UNL     1     -11.724  14.089  65.877  1.00  0.00    -0.366 C  
HETATM    5  C   UNL     1     -11.937  13.730  64.428  1.00  0.00    -0.480 C  
ENDBRANCH   3   4
BRANCH   3   6
HETATM    6  C   UNL     1     -10.528  13.669  67.981  1.00  0.00    -0.248 C  
BRANCH   6   7
HETATM    7  C   UNL     1     -11.332  14.312  69.107  1.00  0.00    -0.312 A  
HETATM    8  C   UNL     1     -11.305  15.625  71.184  1.00  0.00    -0.446 A  
HETATM    9  C   UNL     1     -12.718  14.181  69.294  1.00  0.00     0.385 A  
HETATM   10  C   UNL     1     -10.653  15.098  70.062  1.00  0.00    -0.216 A  
HETATM   11  C   UNL     1     -13.385  14.755  70.378  1.00  0.00     0.026 A  
HETATM   12 CL   UNL     1      -8.960  15.415  69.902  1.00  0.00    -0.052 Cl 
HETATM   13  C   UNL     1     -12.676  15.456  71.338  1.00  0.00    -0.488 A  
ENDBRANCH   6   7
ENDBRANCH   3   6
BRANCH   3  14
HETATM   14  C   UNL     1     -12.317  11.930  67.248  1.00  0.00     0.988 C  
BRANCH  14  15
HETATM   15  C   UNL     1     -12.057  11.138  68.577  1.00  0.00    -0.058 C  
BRANCH  15  16
HETATM   16  N   UNL     1     -11.874   9.697  68.489  1.00  0.00     0.188 N  
HETATM   17  H   UNL     1     -11.786   9.245  67.579  1.00  0.00     0.000 HD 
HETATM   18  C   UNL     1     -11.820   8.938  69.655  1.00  0.00     0.732 C  
HETATM   19  O   UNL     1     -11.725   9.420  70.771  1.00  0.00    -0.276 OA 
BRANCH  18  20
HETATM   20  C   UNL     1     -11.769   7.406  69.431  1.00  0.00     0.564 C  
HETATM   21  N   UNL     1     -11.717   6.995  68.098  1.00  0.00     0.150 N  
HETATM   22  O   UNL     1     -11.763   6.635  70.376  1.00  0.00    -0.379 OA 
HETATM   23  H   UNL     1     -12.021   7.616  67.347  1.00  0.00     0.000 HD 
BRANCH  21  24
HETATM   24  C   UNL     1     -11.218   5.658  67.804  1.00  0.00     0.624 C  
BRANCH  24  25
HETATM   25  C   UNL     1      -9.671   5.516  67.791  1.00  0.00    -0.130 C  
BRANCH  25  26
HETATM   26  N   UNL     1      -8.925   6.622  67.007  1.00  0.00    -0.116 N  
BRANCH  26  27
HETATM   27  C   UNL     1      -8.183   6.011  65.782  1.00  0.00    -0.136 C  
HETATM   28  C   UNL     1      -8.457   4.535  65.527  1.00  0.00    -0.121 C  
ENDBRANCH  26  27
BRANCH  26  29
HETATM   29  C   UNL     1      -9.974   7.679  66.566  1.00  0.00    -0.155 C  
HETATM   30  C   UNL     1     -10.072   7.915  65.069  1.00  0.00     3.035 C  
ENDBRANCH  26  29
BRANCH  26  31
HETATM   31  C   UNL     1      -7.838   7.300  67.922  1.00  0.00    -0.118 C  
BRANCH  31  32
HETATM   32  C   UNL     1      -7.181   8.589  67.459  1.00  0.00    -0.084 A  
HETATM   33  C   UNL     1      -7.774   9.837  67.745  1.00  0.00    -0.091 A  
HETATM   34  C   UNL     1      -7.262  11.028  67.218  1.00  0.00    -0.102 A  
HETATM   35  C   UNL     1      -6.157  10.997  66.378  1.00  0.00    -0.141 A  
HETATM   36  C   UNL     1      -5.541   9.783  66.094  1.00  0.00    -0.052 A  
HETATM   37  C   UNL     1      -6.039   8.592  66.634  1.00  0.00    -0.057 A  
HETATM   38 CL   UNL     1      -5.202   7.141  66.214  1.00  0.00    -0.022 Cl 
ENDBRANCH  31  32
ENDBRANCH  26  31
ENDBRANCH  25  26
ENDBRANCH  24  25
ENDBRANCH  21  24
ENDBRANCH  18  20
ENDBRANCH  15  16
ENDBRANCH  14  15
ENDBRANCH   3  14
ENDBRANCH   2   3
TORSDOF 15
ENDMDL
MODEL      432
REMARK 921   NORMALIZED FREE ENERGY PREDICTED BY IDOCK:    3.67 KCAL/MOL
REMARK 922        TOTAL FREE ENERGY PREDICTED BY IDOCK:    4.22 KCAL/MOL
REMARK 923 INTER-LIGAND FREE ENERGY PREDICTED BY IDOCK:    0.39 KCAL/MOL
REMARK 924 INTRA-LIGAND FREE ENERGY PREDICTED BY IDOCK:    3.84 KCAL/MOL
REMARK 927      BINDING AFFINITY PREDICTED BY RF-SCORE:    0.00 PKD
ROOT
HETATM    1  C   UNL     1     -11.635  11.661  70.862  1.00  0.00     0.524 C  
HETATM    2  C   UNL     1     -11.204  10.295  70.348  1.00  0.00    -0.332 C  
ENDROOT
BRANCH   2   3
HETATM    3  N   UNL     1     -11.551   9.086  71.270  1.00  0.00    -0.294 N  
BRANCH   3   4
HETATM    4  C   UNL     1     -12.955   9.290  71.911  1.00  0.00    -0.411 C  
HETATM    5  C   UNL     1     -13.831   8.065  71.975  1.00  0.00    -0.350 C  
ENDBRANCH   3   4
BRANCH   3   6
HETATM    6  C   UNL     1     -10.577   9.027  72.470  1.00  0.00     0.400 C  
BRANCH   6   7
HETATM    7  C   UNL     1      -9.396   8.062  72.527  1.00  0.00    -0.289 A  
HETATM    8  C   UNL     1      -8.467   5.977  73.437  1.00  0.00    -0.116 A  
HETATM    9  C   UNL     1      -8.144   8.272  71.926  1.00  0.00    -0.184 A  
HETATM   10  C   UNL     1      -9.540   6.857  73.246  1.00  0.00    -0.166 A  
HETATM   11  C   UNL     1      -7.088   7.369  72.062  1.00  0.00    -0.063 A  
HETATM   12 CL   UNL     1     -11.057   6.431  73.961  1.00  0.00     0.342 Cl 
HETATM   13  C   UNL     1      -7.239   6.234  72.838  1.00  0.00    -0.080 A  
ENDBRANCH   6   7
ENDBRANCH   3   6
BRANCH   3  14
HETATM   14  C   UNL     1     -11.455   7.801  70.352  1.00  0.00    -0.158 C  
BRANCH  14  15
HETATM   15  C   UNL     1     -12.148   7.880  68.948  1.00  0.00     2.579 C  
BRANCH  15  16
HETATM   16  N   UNL     1     -11.698   6.962  67.911  1.00  0.00    -0.057 N  
HETATM   17  H   UNL     1     -11.959   5.977  67.950  1.00  0.00     0.000 HD 
HETATM   18  C   UNL     1     -10.911   7.438  66.866  1.00  0.00    -0.153 C  
HETATM   19  O   UNL     1     -10.721   8.622  66.648  1.00  0.00    -0.180 OA 
BRANCH  18  20
HETATM   20  C   UNL     1     -10.376   6.345  65.907  1.00  0.00     0.757 C  
HETATM   21  N   UNL     1      -9.094   6.567  65.400  1.00  0.00    -0.364 N  
HETATM   22  O   UNL     1     -11.047   5.363  65.640  1.00  0.00     0.206 OA 
HETATM   23  H   UNL     1      -8.689   7.503  65.392  1.00  0.00     0.000 HD 
BRANCH  21  24
HETATM   24  C   UNL     1      -8.347   5.426  64.883  1.00  0.00    -0.142 C  
BRANCH  24  25
HETATM   25  C   UNL     1      -8.404   4.145  65.759  1.00  0.00    -0.109 C  
BRANCH  25  26
HETATM   26  N   UNL     1      -7.729   4.277  67.146  1.00  0.00    -0.091 N  
BRANCH  26  27
HETATM   27  C   UNL     1      -6.628   3.188  67.318  1.00  0.00    -0.037 C  
HETATM   28  C   UNL     1      -5.432   3.320  66.385  1.00  0.00    -0.017 C  
ENDBRANCH  26  27
BRANCH  26  29
HETATM   29  C   UNL     1      -7.132   5.707  67.248  1.00  0.00    -0.074 C  
HETATM   30  C   UNL     1      -7.585   6.519  68.449  1.00  0.00    -0.104 C  
ENDBRANCH  26  29
BRANCH  26  31
HETATM   31  C   UNL     1      -8.787   4.058  68.290  1.00  0.00    -0.108 C  
BRANCH  31  32
HETATM   32  C   UNL     1      -8.313   3.589  69.655  1.00  0.00    -0.079 A  
HETATM   33  C   UNL     1      -9.212   2.977  70.554  1.00  0.00    -0.210 A  
HETATM   34  C   UNL     1      -8.834   2.657  71.862  1.00  0.00    -0.116 A  
HETATM   35  C   UNL     1      -7.554   2.959  72.309  1.00  0.00    -0.053 A  
HETATM   36  C   UNL     1      -6.641   3.545  71.439  1.00  0.00    -0.026 A  
HETATM   37  C   UNL     1      -7.009   3.849  70.124  1.00  0.00    -0.041 A  
HETATM   38 CL   UNL     1      -5.801   4.579  69.129  1.00  0.00    -0.017 Cl 
ENDBRANCH  31  32
ENDBRANCH  26  31
ENDBRANCH  25  26
ENDBRANCH  24  25
ENDBRANCH  21  24
ENDBRANCH  18  20
ENDBRANCH  15  16
ENDBRANCH  14  15
ENDBRANCH   3  14
ENDBRANCH   2   3
TORSDOF 15
ENDMDL
MODEL      433
REMARK 921   NORMALIZED FREE ENERGY PREDICTED BY IDOCK:    4.70 KCAL/MOL
REMARK 922        TOTAL FREE ENERGY PREDICTED BY IDOCK:    6.17 KCAL/MOL
REMARK 923 INTER-LIGAND FREE ENERGY PREDICTED BY IDOCK:    2.07 KCAL/MOL
REMARK 924 INTRA-LIGAND FREE ENERGY PREDICTED BY IDOCK:    4.10 KCAL/MOL
REMARK 927      BINDING AFFINITY PREDICTED BY RF-SCORE:    0.00 PKD
ROOT
HETATM    1  C   UNL     1     -12.240   5.355  72.007  1.00  0.00     0.732 C  
HETATM    2  C   UNL     1     -10.921   5.693  72.688  1.00  0.00    -0.270 C  
ENDROOT
BRANCH   2   3
HETATM    3  N   UNL     1      -9.672   4.921  72.162  1.00  0.00    -0.158 N  
BRANCH   3   4
HETATM    4  C   UNL     1      -8.683   4.647  73.332  1.00  0.00    -0.100 C  
HETATM    5  C   UNL     1      -8.765   3.275  73.953  1.00  0.00    -0.076 C  
ENDBRANCH   3   4
BRANCH   3   6
HETATM    6  C   UNL     1      -8.873   5.801  71.172  1.00  0.00    -0.136 C  
BRANCH   6   7
HETATM    7  C   UNL     1      -7.562   5.346  70.538  1.00  0.00    -0.080 A  
HETATM    8  C   UNL     1      -5.414   5.990  69.532  1.00  0.00    -0.012 A  
HETATM    9  C   UNL     1      -7.228   4.019  70.223  1.00  0.00    -0.042 A  
HETATM   10  C   UNL     1      -6.591   6.318  70.218  1.00  0.00    -0.045 A  
HETATM   11  C   UNL     1      -6.029   3.677  69.594  1.00  0.00    -0.023 A  
HETATM   12 CL   UNL     1      -6.835   7.981  70.632  1.00  0.00    -0.037 Cl 
HETATM   13  C   UNL     1      -5.133   4.664  69.224  1.00  0.00     0.000 A  
ENDBRANCH   6   7
ENDBRANCH   3   6
BRANCH   3  14
HETATM   14  C   UNL     1     -10.231   3.605  71.484  1.00  0.00     0.085 C  
BRANCH  14  15
HETATM   15  C   UNL     1     -10.616   3.698  69.967  1.00  0.00     2.036 C  
BRANCH  15  16
HETATM   16  N   UNL     1     -10.725   5.021  69.369  1.00  0.00     0.076 N  
HETATM   17  H   UNL     1     -11.104   5.798  69.909  1.00  0.00     0.000 HD 
HETATM   18  C   UNL     1     -10.308   5.218  68.056  1.00  0.00    -0.118 C  
HETATM   19  O   UNL     1      -9.674   4.396  67.417  1.00  0.00    -0.179 OA 
BRANCH  18  20
HETATM   20  C   UNL     1     -10.605   6.627  67.485  1.00  0.00    -0.281 C  
HETATM   21  N   UNL     1      -9.650   7.604  67.769  1.00  0.00    -0.142 N  
HETATM   22  O   UNL     1     -11.609   6.837  66.825  1.00  0.00     0.143 OA 
HETATM   23  H   UNL     1      -9.001   7.490  68.548  1.00  0.00     0.000 HD 
BRANCH  21  24
HETATM   24  C   UNL     1      -9.601   8.792  66.925  1.00  0.00    -0.190 C  
BRANCH  24  25
HETATM   25  C   UNL     1     -10.786   9.780  67.102  1.00  0.00    -0.202 C  
BRANCH  25  26
HETATM   26  N   UNL     1     -10.374  11.257  67.311  1.00  0.00    -0.194 N  
BRANCH  26  27
HETATM   27  C   UNL     1      -9.162  11.615  66.401  1.00  0.00    -0.212 C  
HETATM   28  C   UNL     1      -9.318  12.889  65.582  1.00  0.00     0.174 C  
ENDBRANCH  26  27
BRANCH  26  29
HETATM   29  C   UNL     1     -11.608  12.143  66.987  1.00  0.00    -0.337 C  
HETATM   30  C   UNL     1     -12.069  13.056  68.110  1.00  0.00    -0.201 C  
ENDBRANCH  26  29
BRANCH  26  31
HETATM   31  C   UNL     1      -9.925  11.493  68.801  1.00  0.00    -0.157 C  
BRANCH  31  32
HETATM   32  C   UNL     1      -8.465  11.793  69.095  1.00  0.00     0.343 A  
HETATM   33  C   UNL     1      -8.098  12.984  69.756  1.00  0.00     1.832 A  
HETATM   34  C   UNL     1      -6.757  13.346  69.921  1.00  0.00     0.174 A  
HETATM   35  C   UNL     1      -5.751  12.535  69.411  1.00  0.00    -0.086 A  
HETATM   36  C   UNL     1      -6.084  11.345  68.772  1.00  0.00    -0.048 A  
HETATM   37  C   UNL     1      -7.423  10.971  68.622  1.00  0.00    -0.112 A  
HETATM   38 CL   UNL     1      -7.725   9.477  67.809  1.00  0.00    -0.088 Cl 
ENDBRANCH  31  32
ENDBRANCH  26  31
ENDBRANCH  25  26
ENDBRANCH  24  25
ENDBRANCH  21  24
ENDBRANCH  18  20
ENDBRANCH  15  16
ENDBRANCH  14  15
ENDBRANCH   3  14
ENDBRANCH   2   3
TORSDOF 15
ENDMDL
MODEL      434
REMARK 921   NORMALIZED FREE ENERGY PREDICTED BY IDOCK:    7.51 KCAL/MOL
REMARK 922        TOTAL FREE ENERGY PREDICTED BY IDOCK:   11.43 KCAL/MOL
REMARK 923 INTER-LIGAND FREE ENERGY PREDICTED BY IDOCK:    5.62 KCAL/MOL
REMARK 924 INTRA-LIGAND FREE ENERGY PREDICTED BY IDOCK:    5.82 KCAL/MOL
REMARK 927      BINDING AFFINITY PREDICTED BY RF-SCORE:    0.00 PKD
ROOT
HETATM    1  C   UNL     1     -10.072  16.368  67.966  1.00  0.00    -0.248 C  
HETATM    2  C   UNL     1      -9.256  17.357  68.785  1.00  0.00    -0.238 C  
ENDROOT
BRANCH   2   3
HETATM    3  N   UNL     1     -10.079  18.381  69.625  1.00  0.00     0.223 N  
BRANCH   3   4
HETATM    4  C   UNL     1      -9.163  19.554  70.082  1.00  0.00     1.068 C  
HETATM    5  C   UNL     1      -9.634  20.321  71.291  1.00  0.00     2.122 C  
ENDBRANCH   3   4
BRANCH   3   6
HETATM    6  C   UNL     1     -10.569  17.729  70.940  1.00  0.00     2.168 C  
BRANCH   6   7
HETATM    7  C   UNL     1     -11.315  16.399  70.972  1.00  0.00    -0.207 A  
HETATM    8  C   UNL     1     -11.221  13.963  70.666  1.00  0.00     0.457 A  
HETATM    9  C   UNL     1     -12.696  16.246  71.179  1.00  0.00     0.646 A  
HETATM   10  C   UNL     1     -10.588  15.208  70.764  1.00  0.00     0.034 A  
HETATM   11  C   UNL     1     -13.325  15.000  71.143  1.00  0.00    -0.510 A  
HETATM   12 CL   UNL     1      -8.867  15.245  70.583  1.00  0.00     1.256 Cl 
HETATM   13  C   UNL     1     -12.593  13.860  70.861  1.00  0.00    -0.431 A  
ENDBRANCH   6   7
ENDBRANCH   3   6
BRANCH   3  14
HETATM   14  C   UNL     1     -11.276  18.838  68.697  1.00  0.00     1.452 C  
BRANCH  14  15
HETATM   15  C   UNL     1     -11.127  18.563  67.160  1.00  0.00     0.118 C  
BRANCH  15  16
HETATM   16  N   UNL     1     -11.257  17.189  66.696  1.00  0.00     0.406 N  
HETATM   17  H   UNL     1     -11.331  16.425  67.368  1.00  0.00     0.000 HD 
HETATM   18  C   UNL     1     -11.281  16.924  65.330  1.00  0.00     0.255 C  
HETATM   19  O   UNL     1     -11.391  17.787  64.476  1.00  0.00    -0.531 OA 
BRANCH  18  20
HETATM   20  C   UNL     1     -11.278  15.419  64.960  1.00  0.00    -0.387 C  
HETATM   21  N   UNL     1     -11.783  14.560  65.937  1.00  0.00    -0.361 N  
HETATM   22  O   UNL     1     -10.866  15.042  63.876  1.00  0.00     0.628 OA 
HETATM   23  H   UNL     1     -11.834  14.850  66.914  1.00  0.00     0.000 HD 
BRANCH  21  24
HETATM   24  C   UNL     1     -12.237  13.236  65.528  1.00  0.00    -0.457 C  
BRANCH  24  25
HETATM   25  C   UNL     1     -11.108  12.217  65.212  1.00  0.00    -0.316 C  
BRANCH  25  26
HETATM   26  N   UNL     1     -10.346  11.689  66.452  1.00  0.00    -0.223 N  
BRANCH  26  27
HETATM   27  C   UNL     1     -11.132  12.024  67.754  1.00  0.00    -0.249 C  
HETATM   28  C   UNL     1     -11.646  10.820  68.532  1.00  0.00    -0.325 C  
ENDBRANCH  26  27
BRANCH  26  29
HETATM   29  C   UNL     1     -10.165  10.156  66.278  1.00  0.00    -0.219 C  
HETATM   30  C   UNL     1     -10.130   9.662  64.843  1.00  0.00     0.286 C  
ENDBRANCH  26  29
BRANCH  26  31
HETATM   31  C   UNL     1      -8.938  12.383  66.563  1.00  0.00    -0.145 C  
BRANCH  31  32
HETATM   32  C   UNL     1      -7.888  11.781  67.481  1.00  0.00    -0.148 A  
HETATM   33  C   UNL     1      -7.874  10.394  67.740  1.00  0.00    -0.101 A  
HETATM   34  C   UNL     1      -7.003   9.835  68.681  1.00  0.00    -0.063 A  
HETATM   35  C   UNL     1      -6.139  10.651  69.399  1.00  0.00    -0.047 A  
HETATM   36  C   UNL     1      -6.117  12.019  69.150  1.00  0.00    -0.080 A  
HETATM   37  C   UNL     1      -6.973  12.580  68.196  1.00  0.00    -0.089 A  
HETATM   38 CL   UNL     1      -6.868  14.289  67.969  1.00  0.00    -0.129 Cl 
ENDBRANCH  31  32
ENDBRANCH  26  31
ENDBRANCH  25  26
ENDBRANCH  24  25
ENDBRANCH  21  24
ENDBRANCH  18  20
ENDBRANCH  15  16
ENDBRANCH  14  15
ENDBRANCH   3  14
ENDBRANCH   2   3
TORSDOF 15
ENDMDL
MODEL      435
REMARK 921   NORMALIZED FREE ENERGY PREDICTED BY IDOCK:    8.67 KCAL/MOL
REMARK 922        TOTAL FREE ENERGY PREDICTED BY IDOCK:   13.61 KCAL/MOL
REMARK 923 INTER-LIGAND FREE ENERGY PREDICTED BY IDOCK:    3.54 KCAL/MOL
REMARK 924 INTRA-LIGAND FREE ENERGY PREDICTED BY IDOCK:   10.07 KCAL/MOL
REMARK 927      BINDING AFFINITY PREDICTED BY RF-SCORE:    0.00 PKD
ROOT
HETATM    1  C   UNL     1      -9.058   9.194  67.034  1.00  0.00    -0.147 C  
HETATM    2  C   UNL     1      -9.408   9.825  65.694  1.00  0.00    -0.227 C  
ENDROOT
BRANCH   2   3
HETATM    3  N   UNL     1      -9.044   8.981  64.434  1.00  0.00     0.005 N  
BRANCH   3   4
HETATM    4  C   UNL     1      -9.704   7.574  64.526  1.00  0.00     3.133 C  
HETATM    5  C   UNL     1     -10.571   7.334  65.736  1.00  0.00     2.248 C  
ENDBRANCH   3   4
BRANCH   3   6
HETATM    6  C   UNL     1      -7.523   8.699  64.396  1.00  0.00    -0.108 C  
BRANCH   6   7
HETATM    7  C   UNL     1      -6.856   7.658  65.290  1.00  0.00    -0.048 A  
HETATM    8  C   UNL     1      -5.214   5.840  65.483  1.00  0.00    -0.009 A  
HETATM    9  C   UNL     1      -7.216   7.375  66.618  1.00  0.00    -0.080 A  
HETATM   10  C   UNL     1      -5.797   6.890  64.762  1.00  0.00    -0.036 A  
HETATM   11  C   UNL     1      -6.597   6.370  67.364  1.00  0.00    -0.058 A  
HETATM   12 CL   UNL     1      -5.195   7.194  63.169  1.00  0.00    -0.032 Cl 
HETATM   13  C   UNL     1      -5.614   5.584  66.789  1.00  0.00    -0.017 A  
ENDBRANCH   6   7
ENDBRANCH   3   6
BRANCH   3  14
HETATM   14  C   UNL     1      -9.531   9.829  63.190  1.00  0.00     0.065 C  
BRANCH  14  15
HETATM   15  C   UNL     1      -9.826  11.348  63.440  1.00  0.00    -0.396 C  
BRANCH  15  16
HETATM   16  N   UNL     1      -9.898  11.813  64.818  1.00  0.00    -0.324 N  
HETATM   17  H   UNL     1      -9.107  11.678  65.447  1.00  0.00     0.000 HD 
HETATM   18  C   UNL     1     -11.053  12.444  65.272  1.00  0.00    -0.303 C  
HETATM   19  O   UNL     1     -11.955  12.811  64.538  1.00  0.00    -0.351 OA 
BRANCH  18  20
HETATM   20  C   UNL     1     -11.066  12.763  66.787  1.00  0.00    -0.277 C  
HETATM   21  N   UNL     1      -9.871  12.511  67.465  1.00  0.00    -0.196 N  
HETATM   22  O   UNL     1     -12.064  13.214  67.324  1.00  0.00    -0.354 OA 
HETATM   23  H   UNL     1      -9.176  11.872  67.078  1.00  0.00     0.000 HD 
BRANCH  21  24
HETATM   24  C   UNL     1      -9.641  13.183  68.737  1.00  0.00     0.082 C  
BRANCH  24  25
HETATM   25  C   UNL     1     -10.079  14.672  68.789  1.00  0.00    -0.235 C  
BRANCH  25  26
HETATM   26  N   UNL     1      -9.761  15.486  67.511  1.00  0.00    -0.214 N  
BRANCH  26  27
HETATM   27  C   UNL     1      -9.931  14.596  66.245  1.00  0.00    -0.290 C  
HETATM   28  C   UNL     1      -9.296  15.144  64.975  1.00  0.00     0.971 C  
ENDBRANCH  26  27
BRANCH  26  29
HETATM   29  C   UNL     1     -10.719  16.709  67.478  1.00  0.00    -0.278 C  
HETATM   30  C   UNL     1     -11.370  17.062  68.803  1.00  0.00     0.201 C  
ENDBRANCH  26  29
BRANCH  26  31
HETATM   31  C   UNL     1      -8.267  15.981  67.539  1.00  0.00    -0.152 C  
BRANCH  31  32
HETATM   32  C   UNL     1      -7.331  15.447  68.610  1.00  0.00    -0.127 A  
HETATM   33  C   UNL     1      -7.213  16.107  69.851  1.00  0.00     0.274 A  
HETATM   34  C   UNL     1      -6.265  15.713  70.801  1.00  0.00     0.360 A  
HETATM   35  C   UNL     1      -5.399  14.663  70.526  1.00  0.00    -0.127 A  
HETATM   36  C   UNL     1      -5.506  13.982  69.318  1.00  0.00    -0.082 A  
HETATM   37  C   UNL     1      -6.466  14.360  68.372  1.00  0.00    -0.102 A  
HETATM   38 CL   UNL     1      -6.509  13.451  66.905  1.00  0.00     0.777 Cl 
ENDBRANCH  31  32
ENDBRANCH  26  31
ENDBRANCH  25  26
ENDBRANCH  24  25
ENDBRANCH  21  24
ENDBRANCH  18  20
ENDBRANCH  15  16
ENDBRANCH  14  15
ENDBRANCH   3  14
ENDBRANCH   2   3
TORSDOF 15
ENDMDL
MODEL      436
REMARK 921   NORMALIZED FREE ENERGY PREDICTED BY IDOCK:   10.12 KCAL/MOL
REMARK 922        TOTAL FREE ENERGY PREDICTED BY IDOCK:   16.34 KCAL/MOL
REMARK 923 INTER-LIGAND FREE ENERGY PREDICTED BY IDOCK:   11.62 KCAL/MOL
REMARK 924 INTRA-LIGAND FREE ENERGY PREDICTED BY IDOCK:    4.72 KCAL/MOL
REMARK 927      BINDING AFFINITY PREDICTED BY RF-SCORE:    0.00 PKD
ROOT
HETATM    1  C   UNL     1     -11.873   4.419  70.574  1.00  0.00     6.563 C  
HETATM    2  C   UNL     1     -10.492   4.706  71.145  1.00  0.00     0.005 C  
ENDROOT
BRANCH   2   3
HETATM    3  N   UNL     1      -9.302   3.999  70.425  1.00  0.00    -0.143 N  
BRANCH   3   4
HETATM    4  C   UNL     1      -8.258   3.514  71.472  1.00  0.00    -0.065 C  
HETATM    5  C   UNL     1      -8.433   4.050  72.870  1.00  0.00    -0.096 C  
ENDBRANCH   3   4
BRANCH   3   6
HETATM    6  C   UNL     1      -8.532   5.009  69.541  1.00  0.00    -0.088 C  
BRANCH   6   7
HETATM    7  C   UNL     1      -7.341   4.605  68.677  1.00  0.00    -0.061 A  
HETATM    8  C   UNL     1      -5.265   5.296  67.558  1.00  0.00    -0.004 A  
HETATM    9  C   UNL     1      -7.161   3.349  68.074  1.00  0.00    -0.051 A  
HETATM   10  C   UNL     1      -6.328   5.556  68.432  1.00  0.00    -0.038 A  
HETATM   11  C   UNL     1      -6.072   3.063  67.250  1.00  0.00    -0.028 A  
HETATM   12 CL   UNL     1      -6.379   7.114  69.184  1.00  0.00    -0.034 Cl 
HETATM   13  C   UNL     1      -5.136   4.044  66.970  1.00  0.00    -0.008 A  
ENDBRANCH   6   7
ENDBRANCH   3   6
BRANCH   3  14
HETATM   14  C   UNL     1      -9.945   2.825  69.581  1.00  0.00     0.618 C  
BRANCH  14  15
HETATM   15  C   UNL     1     -10.229   3.114  68.066  1.00  0.00     1.434 C  
BRANCH  15  16
HETATM   16  N   UNL     1      -9.950   4.451  67.561  1.00  0.00    -0.120 N  
HETATM   17  H   UNL     1     -10.108   5.266  68.152  1.00  0.00     0.000 HD 
HETATM   18  C   UNL     1      -9.463   4.609  66.266  1.00  0.00    -0.167 C  
HETATM   19  O   UNL     1      -9.070   3.685  65.575  1.00  0.00    -0.135 OA 
BRANCH  18  20
HETATM   20  C   UNL     1      -9.342   6.079  65.794  1.00  0.00     0.041 C  
HETATM   21  N   UNL     1      -8.134   6.710  66.098  1.00  0.00    -0.113 N  
HETATM   22  O   UNL     1     -10.252   6.620  65.188  1.00  0.00     1.967 OA 
HETATM   23  H   UNL     1      -7.533   6.357  66.843  1.00  0.00     0.000 HD 
BRANCH  21  24
HETATM   24  C   UNL     1      -7.753   7.887  65.326  1.00  0.00    -0.097 C  
BRANCH  24  25
HETATM   25  C   UNL     1      -8.579   9.168  65.620  1.00  0.00    -0.158 C  
BRANCH  25  26
HETATM   26  N   UNL     1      -8.532   9.648  67.091  1.00  0.00    -0.131 N  
BRANCH  26  27
HETATM   27  C   UNL     1      -7.060   9.901  67.531  1.00  0.00    -0.088 C  
HETATM   28  C   UNL     1      -6.192  10.623  66.509  1.00  0.00    -0.097 C  
ENDBRANCH  26  27
BRANCH  26  29
HETATM   29  C   UNL     1      -9.386  10.941  67.195  1.00  0.00    -0.159 C  
HETATM   30  C   UNL     1     -10.788  10.844  66.621  1.00  0.00    -0.258 C  
ENDBRANCH  26  29
BRANCH  26  31
HETATM   31  C   UNL     1      -9.121   8.542  68.044  1.00  0.00    -0.140 C  
BRANCH  31  32
HETATM   32  C   UNL     1      -9.671   8.952  69.400  1.00  0.00    -0.169 A  
HETATM   33  C   UNL     1     -10.945   8.512  69.819  1.00  0.00    -0.131 A  
HETATM   34  C   UNL     1     -11.527   8.980  71.001  1.00  0.00    -0.358 A  
HETATM   35  C   UNL     1     -10.860   9.913  71.783  1.00  0.00     0.618 A  
HETATM   36  C   UNL     1      -9.595  10.350  71.404  1.00  0.00     3.488 A  
HETATM   37  C   UNL     1      -9.000   9.870  70.232  1.00  0.00    -0.042 A  
HETATM   38 CL   UNL     1      -7.430  10.481  69.852  1.00  0.00    -0.138 Cl 
ENDBRANCH  31  32
ENDBRANCH  26  31
ENDBRANCH  25  26
ENDBRANCH  24  25
ENDBRANCH  21  24
ENDBRANCH  18  20
ENDBRANCH  15  16
ENDBRANCH  14  15
ENDBRANCH   3  14
ENDBRANCH   2   3
TORSDOF 15
ENDMDL
MODEL      437
REMARK 921   NORMALIZED FREE ENERGY PREDICTED BY IDOCK:   10.97 KCAL/MOL
REMARK 922        TOTAL FREE ENERGY PREDICTED BY IDOCK:   17.94 KCAL/MOL
REMARK 923 INTER-LIGAND FREE ENERGY PREDICTED BY IDOCK:    8.40 KCAL/MOL
REMARK 924 INTRA-LIGAND FREE ENERGY PREDICTED BY IDOCK:    9.54 KCAL/MOL
REMARK 927      BINDING AFFINITY PREDICTED BY RF-SCORE:    0.00 PKD
ROOT
HETATM    1  C   UNL     1     -12.512   5.176  63.006  1.00  0.00     5.554 C  
HETATM    2  C   UNL     1     -11.009   5.368  63.146  1.00  0.00     3.237 C  
ENDROOT
BRANCH   2   3
HETATM    3  N   UNL     1     -10.389   4.886  64.494  1.00  0.00     0.470 N  
BRANCH   3   4
HETATM    4  C   UNL     1      -9.000   5.554  64.710  1.00  0.00     0.098 C  
HETATM    5  C   UNL     1      -8.376   6.182  63.490  1.00  0.00     0.083 C  
ENDBRANCH   3   4
BRANCH   3   6
HETATM    6  C   UNL     1     -10.090   3.370  64.437  1.00  0.00    -0.151 C  
BRANCH   6   7
HETATM    7  C   UNL     1      -8.766   2.773  64.904  1.00  0.00    -0.113 A  
HETATM    8  C   UNL     1      -7.104   2.572  66.702  1.00  0.00    -0.049 A  
HETATM    9  C   UNL     1      -7.887   2.020  64.107  1.00  0.00    -0.065 A  
HETATM   10  C   UNL     1      -8.356   2.990  66.236  1.00  0.00    -0.098 A  
HETATM   11  C   UNL     1      -6.663   1.547  64.584  1.00  0.00    -0.026 A  
HETATM   12 CL   UNL     1      -9.384   3.825  67.350  1.00  0.00    -0.213 Cl 
HETATM   13  C   UNL     1      -6.258   1.844  65.873  1.00  0.00    -0.023 A  
ENDBRANCH   6   7
ENDBRANCH   3   6
BRANCH   3  14
HETATM   14  C   UNL     1     -11.448   5.251  65.612  1.00  0.00     1.091 C  
BRANCH  14  15
HETATM   15  C   UNL     1     -10.984   6.248  66.730  1.00  0.00    -0.255 C  
BRANCH  15  16
HETATM   16  N   UNL     1     -10.163   7.384  66.335  1.00  0.00    -0.480 N  
HETATM   17  H   UNL     1      -9.303   7.236  65.807  1.00  0.00     0.000 HD 
HETATM   18  C   UNL     1     -10.560   8.672  66.681  1.00  0.00    -0.060 C  
HETATM   19  O   UNL     1     -11.658   8.942  67.137  1.00  0.00     1.345 OA 
BRANCH  18  20
HETATM   20  C   UNL     1      -9.537   9.782  66.333  1.00  0.00    -0.200 C  
HETATM   21  N   UNL     1      -8.330   9.338  65.790  1.00  0.00    -0.119 N  
HETATM   22  O   UNL     1      -9.801  10.958  66.521  1.00  0.00    -0.193 OA 
HETATM   23  H   UNL     1      -8.020   8.375  65.922  1.00  0.00     0.000 HD 
BRANCH  21  24
HETATM   24  C   UNL     1      -7.522  10.284  65.030  1.00  0.00    -0.120 C  
BRANCH  24  25
HETATM   25  C   UNL     1      -6.500  11.103  65.865  1.00  0.00     0.077 C  
BRANCH  25  26
HETATM   26  N   UNL     1      -6.748  11.084  67.393  1.00  0.00    -0.075 N  
BRANCH  26  27
HETATM   27  C   UNL     1      -6.529   9.650  67.959  1.00  0.00    -0.057 C  
HETATM   28  C   UNL     1      -5.167   9.036  67.665  1.00  0.00    -0.034 C  
ENDBRANCH  26  27
BRANCH  26  29
HETATM   29  C   UNL     1      -5.773  12.105  68.042  1.00  0.00    -0.059 C  
HETATM   30  C   UNL     1      -5.615  11.988  69.548  1.00  0.00    -0.078 C  
ENDBRANCH  26  29
BRANCH  26  31
HETATM   31  C   UNL     1      -8.235  11.491  67.709  1.00  0.00    -0.135 C  
BRANCH  31  32
HETATM   32  C   UNL     1      -8.646  12.948  67.577  1.00  0.00    -0.188 A  
HETATM   33  C   UNL     1      -8.551  13.821  68.681  1.00  0.00    -0.057 A  
HETATM   34  C   UNL     1      -9.045  15.129  68.623  1.00  0.00    -0.195 A  
HETATM   35  C   UNL     1      -9.664  15.588  67.468  1.00  0.00    -0.215 A  
HETATM   36  C   UNL     1      -9.755  14.754  66.358  1.00  0.00    -0.311 A  
HETATM   37  C   UNL     1      -9.245  13.452  66.405  1.00  0.00    -0.116 A  
HETATM   38 CL   UNL     1      -9.414  12.501  64.974  1.00  0.00     0.126 Cl 
ENDBRANCH  31  32
ENDBRANCH  26  31
ENDBRANCH  25  26
ENDBRANCH  24  25
ENDBRANCH  21  24
ENDBRANCH  18  20
ENDBRANCH  15  16
ENDBRANCH  14  15
ENDBRANCH   3  14
ENDBRANCH   2   3
TORSDOF 15
ENDMDL
MODEL      438
REMARK 921   NORMALIZED FREE ENERGY PREDICTED BY IDOCK:   14.20 KCAL/MOL
REMARK 922        TOTAL FREE ENERGY PREDICTED BY IDOCK:   23.98 KCAL/MOL
REMARK 923 INTER-LIGAND FREE ENERGY PREDICTED BY IDOCK:   14.08 KCAL/MOL
REMARK 924 INTRA-LIGAND FREE ENERGY PREDICTED BY IDOCK:    9.90 KCAL/MOL
REMARK 927      BINDING AFFINITY PREDICTED BY RF-SCORE:    0.00 PKD
ROOT
HETATM    1  C   UNL     1     -10.210  16.827  68.730  1.00  0.00    -0.299 C  
HETATM    2  C   UNL     1      -9.553  17.433  69.961  1.00  0.00     1.342 C  
ENDROOT
BRANCH   2   3
HETATM    3  N   UNL     1     -10.470  18.339  70.839  1.00  0.00     2.036 N  
BRANCH   3   4
HETATM    4  C   UNL     1      -9.599  19.260  71.744  1.00  0.00     4.337 C  
HETATM    5  C   UNL     1     -10.200  19.628  73.077  1.00  0.00     3.524 C  
ENDBRANCH   3   4
BRANCH   3   6
HETATM    6  C   UNL     1     -11.290  17.478  71.829  1.00  0.00     2.004 C  
BRANCH   6   7
HETATM    7  C   UNL     1     -11.677  16.032  71.536  1.00  0.00    -0.554 A  
HETATM    8  C   UNL     1     -13.310  14.221  71.842  1.00  0.00    -0.470 A  
HETATM    9  C   UNL     1     -10.874  15.094  70.866  1.00  0.00    -0.159 A  
HETATM   10  C   UNL     1     -12.934  15.564  71.974  1.00  0.00    -0.434 A  
HETATM   11  C   UNL     1     -11.269  13.768  70.678  1.00  0.00     0.588 A  
HETATM   12 CL   UNL     1     -14.059  16.637  72.734  1.00  0.00     0.997 Cl 
HETATM   13  C   UNL     1     -12.476  13.324  71.188  1.00  0.00    -0.397 A  
ENDBRANCH   6   7
ENDBRANCH   3   6
BRANCH   3  14
HETATM   14  C   UNL     1     -11.389  19.134  69.826  1.00  0.00     4.156 C  
BRANCH  14  15
HETATM   15  C   UNL     1     -10.828  19.348  68.378  1.00  0.00     0.296 C  
BRANCH  15  16
HETATM   16  N   UNL     1     -10.719  18.186  67.509  1.00  0.00    -0.397 N  
HETATM   17  H   UNL     1     -10.959  17.259  67.859  1.00  0.00     0.000 HD 
HETATM   18  C   UNL     1     -10.284  18.346  66.196  1.00  0.00    -0.389 C  
HETATM   19  O   UNL     1     -10.165  19.431  65.652  1.00  0.00    -0.456 OA 
BRANCH  18  20
HETATM   20  C   UNL     1     -10.071  17.025  65.416  1.00  0.00     0.122 C  
HETATM   21  N   UNL     1     -10.964  15.996  65.722  1.00  0.00    -0.204 N  
HETATM   22  O   UNL     1      -9.182  16.924  64.587  1.00  0.00     2.451 OA 
HETATM   23  H   UNL     1     -11.482  15.998  66.601  1.00  0.00     0.000 HD 
BRANCH  21  24
HETATM   24  C   UNL     1     -11.137  14.918  64.756  1.00  0.00    -0.383 C  
BRANCH  24  25
HETATM   25  C   UNL     1     -10.325  13.628  65.051  1.00  0.00    -0.374 C  
BRANCH  25  26
HETATM   26  N   UNL     1     -10.688  12.923  66.381  1.00  0.00    -0.268 N  
BRANCH  26  27
HETATM   27  C   UNL     1      -9.543  13.104  67.420  1.00  0.00    -0.219 C  
HETATM   28  C   UNL     1      -8.976  14.514  67.522  1.00  0.00    -0.191 C  
ENDBRANCH  26  27
BRANCH  26  29
HETATM   29  C   UNL     1     -12.021  13.535  66.892  1.00  0.00    -0.399 C  
HETATM   30  C   UNL     1     -12.919  14.129  65.821  1.00  0.00    -0.235 C  
ENDBRANCH  26  29
BRANCH  26  31
HETATM   31  C   UNL     1     -10.867  11.377  66.147  1.00  0.00    -0.255 C  
BRANCH  31  32
HETATM   32  C   UNL     1     -10.991  10.457  67.350  1.00  0.00    -0.335 A  
HETATM   33  C   UNL     1     -11.479  10.948  68.579  1.00  0.00    -0.380 A  
HETATM   34  C   UNL     1     -11.478  10.157  69.733  1.00  0.00    -0.288 A  
HETATM   35  C   UNL     1     -10.972   8.865  69.691  1.00  0.00    -0.132 A  
HETATM   36  C   UNL     1     -10.502   8.349  68.488  1.00  0.00    -0.201 A  
HETATM   37  C   UNL     1     -10.519   9.129  67.327  1.00  0.00    -0.265 A  
HETATM   38 CL   UNL     1      -9.908   8.393  65.889  1.00  0.00    -0.088 Cl 
ENDBRANCH  31  32
ENDBRANCH  26  31
ENDBRANCH  25  26
ENDBRANCH  24  25
ENDBRANCH  21  24
ENDBRANCH  18  20
ENDBRANCH  15  16
ENDBRANCH  14  15
ENDBRANCH   3  14
ENDBRANCH   2   3
TORSDOF 15
ENDMDL
MODEL      439
REMARK 921   NORMALIZED FREE ENERGY PREDICTED BY IDOCK:   14.65 KCAL/MOL
REMARK 922        TOTAL FREE ENERGY PREDICTED BY IDOCK:   24.84 KCAL/MOL
REMARK 923 INTER-LIGAND FREE ENERGY PREDICTED BY IDOCK:    9.54 KCAL/MOL
REMARK 924 INTRA-LIGAND FREE ENERGY PREDICTED BY IDOCK:   15.30 KCAL/MOL
REMARK 927      BINDING AFFINITY PREDICTED BY RF-SCORE:    0.00 PKD
ROOT
HETATM    1  C   UNL     1      -6.952   9.093  66.987  1.00  0.00    -0.081 C  
HETATM    2  C   UNL     1      -8.073   8.390  66.236  1.00  0.00    -0.105 C  
ENDROOT
BRANCH   2   3
HETATM    3  N   UNL     1      -9.302   9.278  65.870  1.00  0.00    -0.217 N  
BRANCH   3   4
HETATM    4  C   UNL     1      -9.593   9.182  64.344  1.00  0.00     0.706 C  
HETATM    5  C   UNL     1      -9.916  10.482  63.654  1.00  0.00    -0.299 C  
ENDBRANCH   3   4
BRANCH   3   6
HETATM    6  C   UNL     1      -8.979  10.771  66.114  1.00  0.00    -0.177 C  
BRANCH   6   7
HETATM    7  C   UNL     1      -7.685  11.236  66.776  1.00  0.00    -0.155 A  
HETATM    8  C   UNL     1      -5.228  11.238  66.748  1.00  0.00    -0.103 A  
HETATM    9  C   UNL     1      -7.599  11.932  67.994  1.00  0.00    -0.122 A  
HETATM   10  C   UNL     1      -6.458  10.944  66.145  1.00  0.00    -0.114 A  
HETATM   11  C   UNL     1      -6.376  12.282  68.570  1.00  0.00    -0.057 A  
HETATM   12 CL   UNL     1      -6.423  10.169  64.598  1.00  0.00    -0.129 Cl 
HETATM   13  C   UNL     1      -5.190  11.912  67.962  1.00  0.00    -0.050 A  
ENDBRANCH   6   7
ENDBRANCH   3   6
BRANCH   3  14
HETATM   14  C   UNL     1     -10.493   8.762  66.775  1.00  0.00    -0.213 C  
BRANCH  14  15
HETATM   15  C   UNL     1     -11.777   9.660  66.837  1.00  0.00     2.785 C  
BRANCH  15  16
HETATM   16  N   UNL     1     -11.686  10.937  67.530  1.00  0.00    -0.087 N  
HETATM   17  H   UNL     1     -11.993  11.017  68.499  1.00  0.00     0.000 HD 
HETATM   18  C   UNL     1     -11.176  12.046  66.862  1.00  0.00    -0.320 C  
HETATM   19  O   UNL     1     -10.616  11.986  65.780  1.00  0.00    -0.247 OA 
BRANCH  18  20
HETATM   20  C   UNL     1     -11.262  13.376  67.652  1.00  0.00    -0.276 C  
HETATM   21  N   UNL     1     -10.043  13.889  68.099  1.00  0.00    -0.243 N  
HETATM   22  O   UNL     1     -12.336  13.921  67.846  1.00  0.00    -0.245 OA 
HETATM   23  H   UNL     1      -9.224  13.287  68.190  1.00  0.00     0.000 HD 
BRANCH  21  24
HETATM   24  C   UNL     1      -9.968  15.307  68.432  1.00  0.00    -0.220 C  
BRANCH  24  25
HETATM   25  C   UNL     1     -11.106  15.833  69.347  1.00  0.00    -0.314 C  
BRANCH  25  26
HETATM   26  N   UNL     1     -10.857  17.237  69.951  1.00  0.00     0.236 N  
BRANCH  26  27
HETATM   27  C   UNL     1     -11.512  18.333  69.060  1.00  0.00     2.620 C  
HETATM   28  C   UNL     1     -10.721  19.628  68.935  1.00  0.00     0.381 C  
ENDBRANCH  26  27
BRANCH  26  29
HETATM   29  C   UNL     1     -11.446  17.246  71.388  1.00  0.00     1.542 C  
HETATM   30  C   UNL     1     -10.742  18.160  72.375  1.00  0.00     3.461 C  
ENDBRANCH  26  29
BRANCH  26  31
HETATM   31  C   UNL     1      -9.313  17.540  70.005  1.00  0.00     1.689 C  
BRANCH  31  32
HETATM   32  C   UNL     1      -8.420  17.028  68.888  1.00  0.00    -0.193 A  
HETATM   33  C   UNL     1      -8.736  17.297  67.539  1.00  0.00    -0.212 A  
HETATM   34  C   UNL     1      -8.005  16.728  66.490  1.00  0.00    -0.334 A  
HETATM   35  C   UNL     1      -6.955  15.863  66.763  1.00  0.00     0.058 A  
HETATM   36  C   UNL     1      -6.609  15.596  68.084  1.00  0.00    -0.135 A  
HETATM   37  C   UNL     1      -7.324  16.177  69.136  1.00  0.00    -0.215 A  
HETATM   38 CL   UNL     1      -6.815  15.774  70.737  1.00  0.00     0.923 Cl 
ENDBRANCH  31  32
ENDBRANCH  26  31
ENDBRANCH  25  26
ENDBRANCH  24  25
ENDBRANCH  21  24
ENDBRANCH  18  20
ENDBRANCH  15  16
ENDBRANCH  14  15
ENDBRANCH   3  14
ENDBRANCH   2   3
TORSDOF 15
ENDMDL
MODEL      440
REMARK 921   NORMALIZED FREE ENERGY PREDICTED BY IDOCK:   26.48 KCAL/MOL
REMARK 922        TOTAL FREE ENERGY PREDICTED BY IDOCK:   47.03 KCAL/MOL
REMARK 923 INTER-LIGAND FREE ENERGY PREDICTED BY IDOCK:   31.19 KCAL/MOL
REMARK 924 INTRA-LIGAND FREE ENERGY PREDICTED BY IDOCK:   15.85 KCAL/MOL
REMARK 927      BINDING AFFINITY PREDICTED BY RF-SCORE:    0.00 PKD
ROOT
HETATM    1  C   UNL     1     -10.548  17.483  69.328  1.00  0.00    -0.001 C  
HETATM    2  C   UNL     1      -9.689  17.710  70.564  1.00  0.00     2.785 C  
ENDROOT
BRANCH   2   3
HETATM    3  N   UNL     1     -10.445  18.230  71.826  1.00  0.00     3.097 N  
BRANCH   3   4
HETATM    4  C   UNL     1      -9.468  19.023  72.742  1.00  0.00     6.441 C  
HETATM    5  C   UNL     1      -9.855  19.107  74.197  1.00  0.00     4.927 C  
ENDBRANCH   3   4
BRANCH   3   6
HETATM    6  C   UNL     1     -10.923  17.043  72.694  1.00  0.00     2.336 C  
BRANCH   6   7
HETATM    7  C   UNL     1     -11.456  15.746  72.094  1.00  0.00    -0.444 A  
HETATM    8  C   UNL     1     -13.147  13.964  72.181  1.00  0.00    -0.497 A  
HETATM    9  C   UNL     1     -10.842  15.012  71.066  1.00  0.00    -0.040 A  
HETATM   10  C   UNL     1     -12.657  15.207  72.602  1.00  0.00    -0.375 A  
HETATM   11  C   UNL     1     -11.358  13.802  70.598  1.00  0.00     0.359 A  
HETATM   12 CL   UNL     1     -13.563  16.054  73.809  1.00  0.00    -0.095 Cl 
HETATM   13  C   UNL     1     -12.496  13.263  71.173  1.00  0.00    -0.397 A  
ENDBRANCH   6   7
ENDBRANCH   3   6
BRANCH   3  14
HETATM   14  C   UNL     1     -11.647  19.102  71.280  1.00  0.00     8.089 C  
BRANCH  14  15
HETATM   15  C   UNL     1     -11.531  19.628  69.808  1.00  0.00     4.516 C  
BRANCH  15  16
HETATM   16  N   UNL     1     -11.158  18.679  68.770  1.00  0.00     0.410 N  
HETATM   17  H   UNL     1     -10.957  17.708  69.011  1.00  0.00     0.000 HD 
HETATM   18  C   UNL     1     -11.079  19.102  67.446  1.00  0.00    -0.150 C  
HETATM   19  O   UNL     1     -11.487  20.183  67.057  1.00  0.00     0.434 OA 
BRANCH  18  20
HETATM   20  C   UNL     1     -10.535  18.042  66.456  1.00  0.00    -0.334 C  
HETATM   21  N   UNL     1     -10.266  16.788  67.007  1.00  0.00    -0.287 N  
HETATM   22  O   UNL     1     -10.374  18.310  65.277  1.00  0.00    -0.383 OA 
HETATM   23  H   UNL     1     -10.121  16.678  68.011  1.00  0.00     0.000 HD 
BRANCH  21  24
HETATM   24  C   UNL     1     -10.197  15.638  66.114  1.00  0.00    -0.311 C  
BRANCH  24  25
HETATM   25  C   UNL     1      -8.776  15.049  65.899  1.00  0.00     0.552 C  
BRANCH  25  26
HETATM   26  N   UNL     1      -8.028  14.672  67.201  1.00  0.00    -0.192 N  
BRANCH  26  27
HETATM   27  C   UNL     1      -6.796  15.602  67.407  1.00  0.00    -0.197 C  
HETATM   28  C   UNL     1      -7.095  17.094  67.371  1.00  0.00    -0.179 C  
ENDBRANCH  26  27
BRANCH  26  29
HETATM   29  C   UNL     1      -9.034  14.794  68.378  1.00  0.00    -0.187 C  
HETATM   30  C   UNL     1      -8.414  14.844  69.763  1.00  0.00     0.184 C  
ENDBRANCH  26  29
BRANCH  26  31
HETATM   31  C   UNL     1      -7.490  13.195  67.111  1.00  0.00     0.038 C  
BRANCH  31  32
HETATM   32  C   UNL     1      -6.866  12.560  68.342  1.00  0.00    -0.085 A  
HETATM   33  C   UNL     1      -7.084  13.113  69.621  1.00  0.00     0.361 A  
HETATM   34  C   UNL     1      -6.416  12.628  70.751  1.00  0.00     1.089 A  
HETATM   35  C   UNL     1      -5.501  11.591  70.626  1.00  0.00    -0.142 A  
HETATM   36  C   UNL     1      -5.282  11.014  69.379  1.00  0.00    -0.041 A  
HETATM   37  C   UNL     1      -5.961  11.483  68.250  1.00  0.00    -0.045 A  
HETATM   38 CL   UNL     1      -5.611  10.699  66.752  1.00  0.00    -0.054 Cl 
ENDBRANCH  31  32
ENDBRANCH  26  31
ENDBRANCH  25  26
ENDBRANCH  24  25
ENDBRANCH  21  24
ENDBRANCH  18  20
ENDBRANCH  15  16
ENDBRANCH  14  15
ENDBRANCH   3  14
ENDBRANCH   2   3
TORSDOF 15
ENDMDL
MODEL      441
REMARK 921   NORMALIZED FREE ENERGY PREDICTED BY IDOCK:   28.62 KCAL/MOL
REMARK 922        TOTAL FREE ENERGY PREDICTED BY IDOCK:   51.05 KCAL/MOL
REMARK 923 INTER-LIGAND FREE ENERGY PREDICTED BY IDOCK:   19.45 KCAL/MOL
REMARK 924 INTRA-LIGAND FREE ENERGY PREDICTED BY IDOCK:   31.60 KCAL/MOL
REMARK 927      BINDING AFFINITY PREDICTED BY RF-SCORE:    0.00 PKD
ROOT
HETATM    1  C   UNL     1     -13.865  12.143  69.685  1.00  0.00     5.262 C  
HETATM    2  C   UNL     1     -13.735  11.892  68.190  1.00  0.00     9.131 C  
ENDROOT
BRANCH   2   3
HETATM    3  N   UNL     1     -12.335  12.200  67.573  1.00  0.00     0.444 N  
BRANCH   3   4
HETATM    4  C   UNL     1     -11.617  10.872  67.195  1.00  0.00     0.243 C  
HETATM    5  C   UNL     1     -10.763  10.918  65.953  1.00  0.00    -0.193 C  
ENDBRANCH   3   4
BRANCH   3   6
HETATM    6  C   UNL     1     -11.415  12.857  68.628  1.00  0.00    -0.308 C  
BRANCH   6   7
HETATM    7  C   UNL     1     -11.815  14.107  69.406  1.00  0.00    -0.378 A  
HETATM    8  C   UNL     1     -11.182  15.808  71.063  1.00  0.00    -0.396 A  
HETATM    9  C   UNL     1     -13.086  14.706  69.386  1.00  0.00     0.991 A  
HETATM   10  C   UNL     1     -10.856  14.728  70.233  1.00  0.00    -0.038 A  
HETATM   11  C   UNL     1     -13.401  15.821  70.164  1.00  0.00     0.768 A  
HETATM   12 CL   UNL     1      -9.226  14.147  70.284  1.00  0.00     1.883 Cl 
HETATM   13  C   UNL     1     -12.458  16.357  71.023  1.00  0.00     0.781 A  
ENDBRANCH   6   7
ENDBRANCH   3   6
BRANCH   3  14
HETATM   14  C   UNL     1     -12.608  13.147  66.335  1.00  0.00     0.121 C  
BRANCH  14  15
HETATM   15  C   UNL     1     -12.439  14.688  66.571  1.00  0.00     0.123 C  
BRANCH  15  16
HETATM   16  N   UNL     1     -11.101  15.252  66.469  1.00  0.00    -0.308 N  
HETATM   17  H   UNL     1     -10.312  14.659  66.213  1.00  0.00     0.000 HD 
HETATM   18  C   UNL     1     -10.905  16.607  66.722  1.00  0.00    -0.037 C  
HETATM   19  O   UNL     1     -11.814  17.410  66.842  1.00  0.00     1.511 OA 
BRANCH  18  20
HETATM   20  C   UNL     1      -9.424  17.060  66.723  1.00  0.00    -0.258 C  
HETATM   21  N   UNL     1      -9.023  17.807  65.614  1.00  0.00     0.394 N  
HETATM   22  O   UNL     1      -8.683  16.777  67.650  1.00  0.00    -0.200 OA 
HETATM   23  H   UNL     1      -9.550  17.772  64.742  1.00  0.00     0.000 HD 
BRANCH  21  24
HETATM   24  C   UNL     1      -7.833  18.640  65.733  1.00  0.00     0.084 C  
BRANCH  24  25
HETATM   25  C   UNL     1      -7.307  18.842  67.181  1.00  0.00    -0.213 C  
BRANCH  25  26
HETATM   26  N   UNL     1      -6.736  17.566  67.847  1.00  0.00    -0.175 N  
BRANCH  26  27
HETATM   27  C   UNL     1      -7.816  16.445  67.883  1.00  0.00    -0.152 C  
HETATM   28  C   UNL     1      -7.528  15.237  67.002  1.00  0.00    -0.125 C  
ENDBRANCH  26  27
BRANCH  26  29
HETATM   29  C   UNL     1      -5.488  17.126  67.034  1.00  0.00    -0.166 C  
HETATM   30  C   UNL     1      -5.155  15.646  67.101  1.00  0.00     0.344 C  
ENDBRANCH  26  29
BRANCH  26  31
HETATM   31  C   UNL     1      -6.324  17.867  69.336  1.00  0.00    -0.239 C  
BRANCH  31  32
HETATM   32  C   UNL     1      -6.137  16.707  70.300  1.00  0.00     0.044 A  
HETATM   33  C   UNL     1      -5.489  16.903  71.538  1.00  0.00     0.422 A  
HETATM   34  C   UNL     1      -5.189  15.829  72.383  1.00  0.00     0.540 A  
HETATM   35  C   UNL     1      -5.510  14.533  72.002  1.00  0.00    -0.093 A  
HETATM   36  C   UNL     1      -6.166  14.313  70.795  1.00  0.00    -0.116 A  
HETATM   37  C   UNL     1      -6.486  15.386  69.956  1.00  0.00    -0.122 A  
HETATM   38 CL   UNL     1      -7.296  15.001  68.480  1.00  0.00    -0.112 Cl 
ENDBRANCH  31  32
ENDBRANCH  26  31
ENDBRANCH  25  26
ENDBRANCH  24  25
ENDBRANCH  21  24
ENDBRANCH  18  20
ENDBRANCH  15  16
ENDBRANCH  14  15
ENDBRANCH   3  14
ENDBRANCH   2   3
TORSDOF 15
ENDMDL
