MODEL        1
REMARK 921   NORMALIZED FREE ENERGY PREDICTED BY IDOCK:   -6.60 KCAL/MOL
REMARK 922        TOTAL FREE ENERGY PREDICTED BY IDOCK:   -8.42 KCAL/MOL
REMARK 923 INTER-LIGAND FREE ENERGY PREDICTED BY IDOCK:   -7.75 KCAL/MOL
REMARK 924 INTRA-LIGAND FREE ENERGY PREDICTED BY IDOCK:   -0.66 KCAL/MOL
REMARK 927      BINDING AFFINITY PREDICTED BY RF-SCORE:    0.00 PKD
ROOT
HETATM    1  N   UNL     1     -12.190  15.518  69.623  1.00  0.00    -0.527 NA 
HETATM    2  H2  UNL     1     -11.760  16.036  70.389  1.00  0.00     0.000 HD 
HETATM    3  C   UNL     1     -12.375  14.180  70.036  1.00  0.00    -0.344 A  
HETATM    4  H1  UNL     1     -11.673  15.719  68.766  1.00  0.00     0.000 HD 
HETATM    5  C   UNL     1     -13.090  13.901  71.223  1.00  0.00    -0.315 A  
HETATM    6  C   UNL     1     -13.212  12.602  71.721  1.00  0.00    -0.457 A  
HETATM    7 BR   UNL     1     -13.953  15.295  72.196  1.00  0.00    -0.693 Br 
HETATM    8  C   UNL     1     -12.579  11.563  71.053  1.00  0.00    -0.357 A  
HETATM    9  C   UNL     1     -11.812  11.814  69.921  1.00  0.00    -0.423 A  
HETATM   10 BR   UNL     1     -12.726   9.797  71.712  1.00  0.00    -0.534 Br 
HETATM   11  C   UNL     1     -11.678  13.123  69.408  1.00  0.00    -0.386 A  
ENDROOT
BRANCH  11  12
HETATM   12  C   UNL     1     -10.734  13.326  68.237  1.00  0.00    -0.252 C  
BRANCH  12  13
HETATM   13  N   UNL     1     -11.446  13.668  66.995  1.00  0.00    -0.327 NA 
HETATM   14  H   UNL     1     -10.852  14.204  66.363  1.00  0.00     0.000 HD 
BRANCH  13  15
HETATM   15  C   UNL     1     -11.996  12.468  66.329  1.00  0.00    -0.343 C  
HETATM   16  C   UNL     1     -12.742  12.870  65.042  1.00  0.00    -0.474 C  
HETATM   17  C   UNL     1     -11.813  13.381  63.935  1.00  0.00    -0.492 C  
HETATM   18  C   UNL     1     -10.646  12.430  63.660  1.00  0.00    -0.445 C  
HETATM   19  C   UNL     1      -9.923  12.010  64.939  1.00  0.00    -0.253 C  
HETATM   20  O   UNL     1     -11.135  11.252  63.017  1.00  0.00    -0.826 OA 
HETATM   21  C   UNL     1     -10.903  11.447  65.970  1.00  0.00    -0.306 C  
HETATM   22  H   UNL     1     -10.410  10.662  62.846  1.00  0.00     0.000 HD 
ENDBRANCH  13  15
ENDBRANCH  12  13
ENDBRANCH  11  12
TORSDOF 3
ENDMDL
MODEL        2
REMARK 921   NORMALIZED FREE ENERGY PREDICTED BY IDOCK:   -6.47 KCAL/MOL
REMARK 922        TOTAL FREE ENERGY PREDICTED BY IDOCK:   -8.26 KCAL/MOL
REMARK 923 INTER-LIGAND FREE ENERGY PREDICTED BY IDOCK:   -7.74 KCAL/MOL
REMARK 924 INTRA-LIGAND FREE ENERGY PREDICTED BY IDOCK:   -0.53 KCAL/MOL
REMARK 927      BINDING AFFINITY PREDICTED BY RF-SCORE:    0.00 PKD
ROOT
HETATM    1  N   UNL     1     -11.350  10.200  69.376  1.00  0.00    -0.362 NA 
HETATM    2  H2  UNL     1     -12.165   9.687  69.038  1.00  0.00     0.000 HD 
HETATM    3  C   UNL     1     -11.800  11.319  70.111  1.00  0.00    -0.364 A  
HETATM    4  H1  UNL     1     -10.703  10.329  68.598  1.00  0.00     0.000 HD 
HETATM    5  C   UNL     1     -12.696  11.140  71.190  1.00  0.00    -0.408 A  
HETATM    6  C   UNL     1     -13.243  12.225  71.879  1.00  0.00    -0.481 A  
HETATM    7 BR   UNL     1     -13.187   9.395  71.776  1.00  0.00    -0.527 Br 
HETATM    8  C   UNL     1     -12.927  13.512  71.468  1.00  0.00    -0.355 A  
HETATM    9  C   UNL     1     -12.101  13.721  70.369  1.00  0.00    -0.421 A  
HETATM   10 BR   UNL     1     -13.659  14.996  72.384  1.00  0.00    -0.621 Br 
HETATM   11  C   UNL     1     -11.544  12.633  69.661  1.00  0.00    -0.321 A  
ENDROOT
BRANCH  11  12
HETATM   12  C   UNL     1     -10.747  12.946  68.408  1.00  0.00    -0.255 C  
BRANCH  12  13
HETATM   13  N   UNL     1     -11.536  12.763  67.180  1.00  0.00    -0.344 NA 
HETATM   14  H   UNL     1     -12.167  11.966  67.259  1.00  0.00     0.000 HD 
BRANCH  13  15
HETATM   15  C   UNL     1     -12.269  13.993  66.810  1.00  0.00    -0.404 C  
HETATM   16  C   UNL     1     -11.346  15.221  66.944  1.00  0.00    -0.209 C  
HETATM   17  C   UNL     1     -10.228  15.258  65.896  1.00  0.00    -0.353 C  
HETATM   18  C   UNL     1     -10.750  15.073  64.470  1.00  0.00    -0.049 C  
HETATM   19  C   UNL     1     -11.686  13.872  64.344  1.00  0.00    -0.427 C  
HETATM   20  O   UNL     1     -11.469  16.241  64.072  1.00  0.00    -1.371 OA 
HETATM   21  C   UNL     1     -12.815  13.937  65.374  1.00  0.00    -0.466 C  
HETATM   22  H   UNL     1     -11.793  16.126  63.186  1.00  0.00     0.000 HD 
ENDBRANCH  13  15
ENDBRANCH  12  13
ENDBRANCH  11  12
TORSDOF 3
ENDMDL
MODEL        3
REMARK 921   NORMALIZED FREE ENERGY PREDICTED BY IDOCK:   -6.33 KCAL/MOL
REMARK 922        TOTAL FREE ENERGY PREDICTED BY IDOCK:   -8.11 KCAL/MOL
REMARK 923 INTER-LIGAND FREE ENERGY PREDICTED BY IDOCK:   -7.65 KCAL/MOL
REMARK 924 INTRA-LIGAND FREE ENERGY PREDICTED BY IDOCK:   -0.45 KCAL/MOL
REMARK 927      BINDING AFFINITY PREDICTED BY RF-SCORE:    0.00 PKD
ROOT
HETATM    1  N   UNL     1     -12.213  15.428  69.497  1.00  0.00    -0.543 NA 
HETATM    2  H2  UNL     1     -11.858  16.008  70.257  1.00  0.00     0.000 HD 
HETATM    3  C   UNL     1     -12.405  14.118  69.988  1.00  0.00    -0.344 A  
HETATM    4  H1  UNL     1     -11.632  15.582  68.673  1.00  0.00     0.000 HD 
HETATM    5  C   UNL     1     -13.210  13.903  71.130  1.00  0.00    -0.238 A  
HETATM    6  C   UNL     1     -13.346  12.639  71.708  1.00  0.00    -0.405 A  
HETATM    7 BR   UNL     1     -14.177  15.338  71.930  1.00  0.00    -0.701 Br 
HETATM    8  C   UNL     1     -12.640  11.573  71.168  1.00  0.00    -0.359 A  
HETATM    9  C   UNL     1     -11.788  11.765  70.086  1.00  0.00    -0.408 A  
HETATM   10 BR   UNL     1     -12.805   9.853  71.937  1.00  0.00    -0.520 Br 
HETATM   11  C   UNL     1     -11.638  13.038  69.495  1.00  0.00    -0.342 A  
ENDROOT
BRANCH  11  12
HETATM   12  C   UNL     1     -10.606  13.183  68.392  1.00  0.00    -0.251 C  
BRANCH  12  13
HETATM   13  N   UNL     1     -11.115  12.741  67.084  1.00  0.00    -0.267 NA 
HETATM   14  H   UNL     1     -11.953  12.168  67.187  1.00  0.00     0.000 HD 
BRANCH  13  15
HETATM   15  C   UNL     1     -11.351  13.880  66.172  1.00  0.00    -0.320 C  
HETATM   16  C   UNL     1     -10.339  13.848  65.010  1.00  0.00    -0.418 C  
HETATM   17  C   UNL     1     -10.567  12.685  64.038  1.00  0.00    -0.457 C  
HETATM   18  C   UNL     1     -12.016  12.596  63.554  1.00  0.00    -0.548 C  
HETATM   19  C   UNL     1     -13.019  12.655  64.704  1.00  0.00    -0.225 C  
HETATM   20  O   UNL     1     -12.288  13.683  62.669  1.00  0.00    -0.775 OA 
HETATM   21  C   UNL     1     -12.775  13.878  65.592  1.00  0.00    -0.534 C  
HETATM   22  H   UNL     1     -13.187  13.628  62.368  1.00  0.00     0.000 HD 
ENDBRANCH  13  15
ENDBRANCH  12  13
ENDBRANCH  11  12
TORSDOF 3
ENDMDL
MODEL        4
REMARK 921   NORMALIZED FREE ENERGY PREDICTED BY IDOCK:   -6.31 KCAL/MOL
REMARK 922        TOTAL FREE ENERGY PREDICTED BY IDOCK:   -8.08 KCAL/MOL
REMARK 923 INTER-LIGAND FREE ENERGY PREDICTED BY IDOCK:   -7.68 KCAL/MOL
REMARK 924 INTRA-LIGAND FREE ENERGY PREDICTED BY IDOCK:   -0.40 KCAL/MOL
REMARK 927      BINDING AFFINITY PREDICTED BY RF-SCORE:    0.00 PKD
ROOT
HETATM    1  N   UNL     1     -11.871  15.630  70.155  1.00  0.00    -0.344 NA 
HETATM    2  H2  UNL     1     -11.418  16.040  70.971  1.00  0.00     0.000 HD 
HETATM    3  C   UNL     1     -12.226  14.298  70.462  1.00  0.00    -0.356 A  
HETATM    4  H1  UNL     1     -11.298  15.826  69.334  1.00  0.00     0.000 HD 
HETATM    5  C   UNL     1     -13.020  14.024  71.599  1.00  0.00    -0.352 A  
HETATM    6  C   UNL     1     -13.312  12.717  71.996  1.00  0.00    -0.565 A  
HETATM    7 BR   UNL     1     -13.759  15.439  72.640  1.00  0.00    -0.643 Br 
HETATM    8  C   UNL     1     -12.774  11.659  71.276  1.00  0.00    -0.340 A  
HETATM    9  C   UNL     1     -11.934  11.896  70.194  1.00  0.00    -0.413 A  
HETATM   10 BR   UNL     1     -13.151   9.882  71.799  1.00  0.00    -0.576 Br 
HETATM   11  C   UNL     1     -11.629  13.212  69.783  1.00  0.00    -0.291 A  
ENDROOT
BRANCH  11  12
HETATM   12  C   UNL     1     -10.618  13.382  68.665  1.00  0.00    -0.241 C  
BRANCH  12  13
HETATM   13  N   UNL     1     -11.202  13.132  67.337  1.00  0.00    -0.275 NA 
HETATM   14  H   UNL     1     -11.705  12.245  67.314  1.00  0.00     0.000 HD 
BRANCH  13  15
HETATM   15  C   UNL     1     -12.062  14.250  66.896  1.00  0.00    -0.409 C  
HETATM   16  C   UNL     1     -11.245  15.555  66.832  1.00  0.00    -0.159 C  
HETATM   17  C   UNL     1     -10.205  15.566  65.706  1.00  0.00    -0.390 C  
HETATM   18  C   UNL     1     -10.801  15.183  64.349  1.00  0.00     0.076 C  
HETATM   19  C   UNL     1     -11.633  13.904  64.420  1.00  0.00    -0.401 C  
HETATM   20  O   UNL     1     -11.644  16.238  63.886  1.00  0.00    -1.489 OA 
HETATM   21  C   UNL     1     -12.694  13.992  65.518  1.00  0.00    -0.517 C  
HETATM   22  H   UNL     1     -12.013  16.001  63.044  1.00  0.00     0.000 HD 
ENDBRANCH  13  15
ENDBRANCH  12  13
ENDBRANCH  11  12
TORSDOF 3
ENDMDL
MODEL        5
REMARK 921   NORMALIZED FREE ENERGY PREDICTED BY IDOCK:   -6.25 KCAL/MOL
REMARK 922        TOTAL FREE ENERGY PREDICTED BY IDOCK:   -8.01 KCAL/MOL
REMARK 923 INTER-LIGAND FREE ENERGY PREDICTED BY IDOCK:   -7.39 KCAL/MOL
REMARK 924 INTRA-LIGAND FREE ENERGY PREDICTED BY IDOCK:   -0.63 KCAL/MOL
REMARK 927      BINDING AFFINITY PREDICTED BY RF-SCORE:    0.00 PKD
ROOT
HETATM    1  N   UNL     1      -9.534  11.111  68.885  1.00  0.00    -0.338 NA 
HETATM    2  H2  UNL     1      -9.489  10.512  68.061  1.00  0.00     0.000 HD 
HETATM    3  C   UNL     1     -10.531  10.608  69.749  1.00  0.00    -0.143 A  
HETATM    4  H1  UNL     1      -9.571  12.083  68.577  1.00  0.00     0.000 HD 
HETATM    5  C   UNL     1     -10.481   9.261  70.176  1.00  0.00    -0.230 A  
HETATM    6  C   UNL     1     -11.498   8.695  70.948  1.00  0.00    -0.315 A  
HETATM    7 BR   UNL     1      -8.998   8.149  69.735  1.00  0.00    -0.144 Br 
HETATM    8  C   UNL     1     -12.606   9.467  71.272  1.00  0.00    -0.325 A  
HETATM    9  C   UNL     1     -12.716  10.774  70.810  1.00  0.00    -0.451 A  
HETATM   10 BR   UNL     1     -13.997   8.721  72.313  1.00  0.00    -0.499 Br 
HETATM   11  C   UNL     1     -11.697  11.357  70.026  1.00  0.00    -0.416 A  
ENDROOT
BRANCH  11  12
HETATM   12  C   UNL     1     -11.947  12.747  69.471  1.00  0.00    -0.276 C  
BRANCH  12  13
HETATM   13  N   UNL     1     -11.446  13.806  70.362  1.00  0.00    -0.508 NA 
HETATM   14  H   UNL     1     -10.530  14.140  70.063  1.00  0.00     0.000 HD 
BRANCH  13  15
HETATM   15  C   UNL     1     -12.410  14.919  70.488  1.00  0.00    -0.342 C  
HETATM   16  C   UNL     1     -13.735  14.409  71.087  1.00  0.00    -0.297 C  
HETATM   17  C   UNL     1     -13.618  13.998  72.559  1.00  0.00    -0.670 C  
HETATM   18  C   UNL     1     -12.964  15.079  73.423  1.00  0.00    -0.498 C  
HETATM   19  C   UNL     1     -11.665  15.603  72.815  1.00  0.00    -0.537 C  
HETATM   20  O   UNL     1     -13.864  16.179  73.569  1.00  0.00    -0.868 OA 
HETATM   21  C   UNL     1     -11.873  16.059  71.369  1.00  0.00    -0.531 C  
HETATM   22  H   UNL     1     -13.458  16.850  74.105  1.00  0.00     0.000 HD 
ENDBRANCH  13  15
ENDBRANCH  12  13
ENDBRANCH  11  12
TORSDOF 3
ENDMDL
MODEL        6
REMARK 921   NORMALIZED FREE ENERGY PREDICTED BY IDOCK:   -6.19 KCAL/MOL
REMARK 922        TOTAL FREE ENERGY PREDICTED BY IDOCK:   -7.93 KCAL/MOL
REMARK 923 INTER-LIGAND FREE ENERGY PREDICTED BY IDOCK:   -7.50 KCAL/MOL
REMARK 924 INTRA-LIGAND FREE ENERGY PREDICTED BY IDOCK:   -0.43 KCAL/MOL
REMARK 927      BINDING AFFINITY PREDICTED BY RF-SCORE:    0.00 PKD
ROOT
HETATM    1  N   UNL     1     -12.357  14.234  67.048  1.00  0.00    -0.580 NA 
HETATM    2  H2  UNL     1     -13.145  14.159  66.405  1.00  0.00     0.000 HD 
HETATM    3  C   UNL     1     -11.738  12.968  67.145  1.00  0.00    -0.382 A  
HETATM    4  H1  UNL     1     -12.671  14.712  67.892  1.00  0.00     0.000 HD 
HETATM    5  C   UNL     1     -11.302  12.305  65.975  1.00  0.00    -0.350 A  
HETATM    6  C   UNL     1     -10.777  11.011  66.014  1.00  0.00    -0.242 A  
HETATM    7 BR   UNL     1     -11.388  13.161  64.274  1.00  0.00    -0.450 Br 
HETATM    8  C   UNL     1     -10.718  10.345  67.231  1.00  0.00    -0.273 A  
HETATM    9  C   UNL     1     -11.202  10.945  68.389  1.00  0.00    -0.347 A  
HETATM   10 BR   UNL     1     -10.016   8.592  67.307  1.00  0.00    -0.318 Br 
HETATM   11  C   UNL     1     -11.738  12.251  68.362  1.00  0.00    -0.390 A  
ENDROOT
BRANCH  11  12
HETATM   12  C   UNL     1     -12.344  12.787  69.645  1.00  0.00     0.001 C  
BRANCH  12  13
HETATM   13  N   UNL     1     -11.563  13.896  70.215  1.00  0.00    -0.488 NA 
HETATM   14  H   UNL     1     -10.755  14.118  69.634  1.00  0.00     0.000 HD 
BRANCH  13  15
HETATM   15  C   UNL     1     -12.399  15.092  70.453  1.00  0.00    -0.363 C  
HETATM   16  C   UNL     1     -13.771  14.676  71.019  1.00  0.00    -0.281 C  
HETATM   17  C   UNL     1     -13.697  14.122  72.446  1.00  0.00    -0.645 C  
HETATM   18  C   UNL     1     -12.927  15.041  73.397  1.00  0.00    -0.498 C  
HETATM   19  C   UNL     1     -11.580  15.475  72.823  1.00  0.00    -0.472 C  
HETATM   20  O   UNL     1     -13.701  16.214  73.652  1.00  0.00    -0.884 OA 
HETATM   21  C   UNL     1     -11.739  16.081  71.428  1.00  0.00    -0.536 C  
HETATM   22  H   UNL     1     -13.224  16.785  74.243  1.00  0.00     0.000 HD 
ENDBRANCH  13  15
ENDBRANCH  12  13
ENDBRANCH  11  12
TORSDOF 3
ENDMDL
MODEL        7
REMARK 921   NORMALIZED FREE ENERGY PREDICTED BY IDOCK:   -6.14 KCAL/MOL
REMARK 922        TOTAL FREE ENERGY PREDICTED BY IDOCK:   -7.88 KCAL/MOL
REMARK 923 INTER-LIGAND FREE ENERGY PREDICTED BY IDOCK:   -7.61 KCAL/MOL
REMARK 924 INTRA-LIGAND FREE ENERGY PREDICTED BY IDOCK:   -0.27 KCAL/MOL
REMARK 927      BINDING AFFINITY PREDICTED BY RF-SCORE:    0.00 PKD
ROOT
HETATM    1  N   UNL     1     -12.048  15.799  63.763  1.00  0.00    -1.173 NA 
HETATM    2  H2  UNL     1     -12.983  15.419  63.913  1.00  0.00     0.000 HD 
HETATM    3  C   UNL     1     -11.165  15.187  64.680  1.00  0.00    -0.343 A  
HETATM    4  H1  UNL     1     -12.115  16.816  63.723  1.00  0.00     0.000 HD 
HETATM    5  C   UNL     1     -11.073  13.777  64.736  1.00  0.00    -0.377 A  
HETATM    6  C   UNL     1     -10.289  13.129  65.693  1.00  0.00    -0.291 A  
HETATM    7 BR   UNL     1     -12.002  12.684  63.482  1.00  0.00    -0.639 Br 
HETATM    8  C   UNL     1      -9.614  13.889  66.638  1.00  0.00    -0.289 A  
HETATM    9  C   UNL     1      -9.738  15.274  66.651  1.00  0.00    -0.268 A  
HETATM   10 BR   UNL     1      -8.550  13.033  67.946  1.00  0.00    -0.200 Br 
HETATM   11  C   UNL     1     -10.530  15.942  65.691  1.00  0.00    -0.411 A  
ENDROOT
BRANCH  11  12
HETATM   12  C   UNL     1     -10.701  17.442  65.844  1.00  0.00    -0.123 C  
BRANCH  12  13
HETATM   13  N   UNL     1     -10.514  17.890  67.233  1.00  0.00    -0.373 NA 
HETATM   14  H   UNL     1      -9.698  17.450  67.658  1.00  0.00     0.000 HD 
BRANCH  13  15
HETATM   15  C   UNL     1     -10.442  19.364  67.330  1.00  0.00    -0.467 C  
HETATM   16  C   UNL     1      -9.730  19.776  68.633  1.00  0.00    -0.450 C  
HETATM   17  C   UNL     1      -8.235  19.440  68.641  1.00  0.00    -0.399 C  
HETATM   18  C   UNL     1      -7.509  19.949  67.394  1.00  0.00    -0.272 C  
HETATM   19  C   UNL     1      -8.229  19.564  66.104  1.00  0.00    -0.336 C  
HETATM   20  O   UNL     1      -7.419  21.374  67.446  1.00  0.00    -0.681 OA 
HETATM   21  C   UNL     1      -9.698  19.991  66.139  1.00  0.00    -0.517 C  
HETATM   22  H   UNL     1      -6.968  21.690  66.672  1.00  0.00     0.000 HD 
ENDBRANCH  13  15
ENDBRANCH  12  13
ENDBRANCH  11  12
TORSDOF 3
ENDMDL
MODEL        8
REMARK 921   NORMALIZED FREE ENERGY PREDICTED BY IDOCK:   -6.13 KCAL/MOL
REMARK 922        TOTAL FREE ENERGY PREDICTED BY IDOCK:   -7.87 KCAL/MOL
REMARK 923 INTER-LIGAND FREE ENERGY PREDICTED BY IDOCK:   -7.35 KCAL/MOL
REMARK 924 INTRA-LIGAND FREE ENERGY PREDICTED BY IDOCK:   -0.52 KCAL/MOL
REMARK 927      BINDING AFFINITY PREDICTED BY RF-SCORE:    0.00 PKD
ROOT
HETATM    1  N   UNL     1     -11.952  10.621  69.455  1.00  0.00    -0.490 NA 
HETATM    2  H2  UNL     1     -12.837  10.202  69.171  1.00  0.00     0.000 HD 
HETATM    3  C   UNL     1     -12.228  11.725  70.292  1.00  0.00    -0.299 A  
HETATM    4  H1  UNL     1     -11.371  10.745  68.625  1.00  0.00     0.000 HD 
HETATM    5  C   UNL     1     -13.032  11.554  71.442  1.00  0.00    -0.348 A  
HETATM    6  C   UNL     1     -13.413  12.634  72.241  1.00  0.00    -0.541 A  
HETATM    7 BR   UNL     1     -13.621   9.822  71.975  1.00  0.00    -0.381 Br 
HETATM    8  C   UNL     1     -13.022  13.914  71.873  1.00  0.00    -0.354 A  
HETATM    9  C   UNL     1     -12.287  14.122  70.711  1.00  0.00    -0.439 A  
HETATM   10 BR   UNL     1     -13.529  15.392  72.938  1.00  0.00    -0.638 Br 
HETATM   11  C   UNL     1     -11.899  13.040  69.892  1.00  0.00    -0.377 A  
ENDROOT
BRANCH  11  12
HETATM   12  C   UNL     1     -11.197  13.363  68.586  1.00  0.00    -0.269 C  
BRANCH  12  13
HETATM   13  N   UNL     1     -12.086  13.223  67.422  1.00  0.00    -0.325 NA 
HETATM   14  H   UNL     1     -13.029  13.548  67.633  1.00  0.00     0.000 HD 
BRANCH  13  15
HETATM   15  C   UNL     1     -11.538  13.901  66.228  1.00  0.00    -0.365 C  
HETATM   16  C   UNL     1     -10.173  13.292  65.850  1.00  0.00    -0.295 C  
HETATM   17  C   UNL     1     -10.275  11.860  65.314  1.00  0.00    -0.309 C  
HETATM   18  C   UNL     1     -11.306  11.723  64.191  1.00  0.00    -0.352 C  
HETATM   19  C   UNL     1     -12.649  12.351  64.555  1.00  0.00    -0.477 C  
HETATM   20  O   UNL     1     -10.816  12.369  63.015  1.00  0.00    -0.640 OA 
HETATM   21  C   UNL     1     -12.478  13.800  65.016  1.00  0.00    -0.449 C  
HETATM   22  H   UNL     1     -11.455  12.284  62.318  1.00  0.00     0.000 HD 
ENDBRANCH  13  15
ENDBRANCH  12  13
ENDBRANCH  11  12
TORSDOF 3
ENDMDL
MODEL        9
REMARK 921   NORMALIZED FREE ENERGY PREDICTED BY IDOCK:   -6.12 KCAL/MOL
REMARK 922        TOTAL FREE ENERGY PREDICTED BY IDOCK:   -7.86 KCAL/MOL
REMARK 923 INTER-LIGAND FREE ENERGY PREDICTED BY IDOCK:   -7.38 KCAL/MOL
REMARK 924 INTRA-LIGAND FREE ENERGY PREDICTED BY IDOCK:   -0.48 KCAL/MOL
REMARK 927      BINDING AFFINITY PREDICTED BY RF-SCORE:    0.00 PKD
ROOT
HETATM    1  N   UNL     1     -11.523   9.552  69.493  1.00  0.00    -0.442 NA 
HETATM    2  H2  UNL     1     -12.421   9.115  69.286  1.00  0.00     0.000 HD 
HETATM    3  C   UNL     1     -11.762  10.855  69.981  1.00  0.00    -0.345 A  
HETATM    4  H1  UNL     1     -10.904   9.413  68.694  1.00  0.00     0.000 HD 
HETATM    5  C   UNL     1     -12.620  11.048  71.088  1.00  0.00    -0.418 A  
HETATM    6  C   UNL     1     -12.962  12.324  71.541  1.00  0.00    -0.390 A  
HETATM    7 BR   UNL     1     -13.337   9.562  72.041  1.00  0.00    -0.555 Br 
HETATM    8  C   UNL     1     -12.477  13.432  70.859  1.00  0.00    -0.359 A  
HETATM    9  C   UNL     1     -11.686  13.276  69.726  1.00  0.00    -0.354 A  
HETATM   10 BR   UNL     1     -12.931  15.170  71.451  1.00  0.00    -0.530 Br 
HETATM   11  C   UNL     1     -11.335  11.991  69.257  1.00  0.00    -0.330 A  
ENDROOT
BRANCH  11  12
HETATM   12  C   UNL     1     -10.564  11.907  67.953  1.00  0.00    -0.201 C  
BRANCH  12  13
HETATM   13  N   UNL     1     -10.437  13.215  67.290  1.00  0.00    -0.242 NA 
HETATM   14  H   UNL     1      -9.738  13.798  67.750  1.00  0.00     0.000 HD 
BRANCH  13  15
HETATM   15  C   UNL     1     -10.154  13.074  65.846  1.00  0.00    -0.288 C  
HETATM   16  C   UNL     1     -11.203  12.158  65.186  1.00  0.00    -0.378 C  
HETATM   17  C   UNL     1     -12.600  12.784  65.118  1.00  0.00    -0.513 C  
HETATM   18  C   UNL     1     -12.588  14.188  64.511  1.00  0.00    -0.211 C  
HETATM   19  C   UNL     1     -11.530  15.088  65.147  1.00  0.00    -0.339 C  
HETATM   20  O   UNL     1     -12.315  14.099  63.112  1.00  0.00    -1.125 OA 
HETATM   21  C   UNL     1     -10.150  14.428  65.117  1.00  0.00    -0.359 C  
HETATM   22  H   UNL     1     -12.307  14.970  62.735  1.00  0.00     0.000 HD 
ENDBRANCH  13  15
ENDBRANCH  12  13
ENDBRANCH  11  12
TORSDOF 3
ENDMDL
MODEL       10
REMARK 921   NORMALIZED FREE ENERGY PREDICTED BY IDOCK:   -6.11 KCAL/MOL
REMARK 922        TOTAL FREE ENERGY PREDICTED BY IDOCK:   -7.84 KCAL/MOL
REMARK 923 INTER-LIGAND FREE ENERGY PREDICTED BY IDOCK:   -7.35 KCAL/MOL
REMARK 924 INTRA-LIGAND FREE ENERGY PREDICTED BY IDOCK:   -0.50 KCAL/MOL
REMARK 927      BINDING AFFINITY PREDICTED BY RF-SCORE:    0.00 PKD
ROOT
HETATM    1  N   UNL     1     -10.299  11.940  69.256  1.00  0.00    -0.421 NA 
HETATM    2  H2  UNL     1      -9.306  11.732  69.146  1.00  0.00     0.000 HD 
HETATM    3  C   UNL     1     -10.844  12.206  67.981  1.00  0.00    -0.222 A  
HETATM    4  H1  UNL     1     -10.404  12.623  70.007  1.00  0.00     0.000 HD 
HETATM    5  C   UNL     1     -10.698  11.261  66.940  1.00  0.00    -0.273 A  
HETATM    6  C   UNL     1     -11.133  11.524  65.640  1.00  0.00    -0.261 A  
HETATM    7 BR   UNL     1      -9.915   9.555  67.270  1.00  0.00    -0.261 Br 
HETATM    8  C   UNL     1     -11.689  12.764  65.354  1.00  0.00    -0.387 A  
HETATM    9  C   UNL     1     -11.785  13.740  66.340  1.00  0.00    -0.404 A  
HETATM   10 BR   UNL     1     -12.280  13.145  63.599  1.00  0.00    -0.501 Br 
HETATM   11  C   UNL     1     -11.346  13.487  67.658  1.00  0.00    -0.326 A  
ENDROOT
BRANCH  11  12
HETATM   12  C   UNL     1     -11.383  14.640  68.644  1.00  0.00    -0.283 C  
BRANCH  12  13
HETATM   13  N   UNL     1     -12.102  14.299  69.881  1.00  0.00    -0.329 NA 
HETATM   14  H   UNL     1     -11.497  13.809  70.540  1.00  0.00     0.000 HD 
BRANCH  13  15
HETATM   15  C   UNL     1     -12.722  15.488  70.503  1.00  0.00    -0.388 C  
HETATM   16  C   UNL     1     -14.038  15.096  71.204  1.00  0.00    -0.463 C  
HETATM   17  C   UNL     1     -13.827  14.230  72.451  1.00  0.00    -0.619 C  
HETATM   18  C   UNL     1     -12.805  14.829  73.420  1.00  0.00    -0.475 C  
HETATM   19  C   UNL     1     -11.512  15.242  72.720  1.00  0.00    -0.325 C  
HETATM   20  O   UNL     1     -13.364  15.986  74.043  1.00  0.00    -0.880 OA 
HETATM   21  C   UNL     1     -11.794  16.160  71.529  1.00  0.00    -0.528 C  
HETATM   22  H   UNL     1     -12.730  16.359  74.644  1.00  0.00     0.000 HD 
ENDBRANCH  13  15
ENDBRANCH  12  13
ENDBRANCH  11  12
TORSDOF 3
ENDMDL
MODEL       11
REMARK 921   NORMALIZED FREE ENERGY PREDICTED BY IDOCK:   -6.06 KCAL/MOL
REMARK 922        TOTAL FREE ENERGY PREDICTED BY IDOCK:   -7.78 KCAL/MOL
REMARK 923 INTER-LIGAND FREE ENERGY PREDICTED BY IDOCK:   -7.08 KCAL/MOL
REMARK 924 INTRA-LIGAND FREE ENERGY PREDICTED BY IDOCK:   -0.71 KCAL/MOL
REMARK 927      BINDING AFFINITY PREDICTED BY RF-SCORE:    0.00 PKD
ROOT
HETATM    1  N   UNL     1      -8.846  14.227  69.189  1.00  0.00    -0.382 NA 
HETATM    2  H2  UNL     1      -8.763  15.189  69.515  1.00  0.00     0.000 HD 
HETATM    3  C   UNL     1      -9.631  14.219  68.015  1.00  0.00    -0.223 A  
HETATM    4  H1  UNL     1      -9.109  13.638  69.980  1.00  0.00     0.000 HD 
HETATM    5  C   UNL     1      -9.268  15.034  66.918  1.00  0.00    -0.246 A  
HETATM    6  C   UNL     1     -10.069  15.133  65.778  1.00  0.00    -0.373 A  
HETATM    7 BR   UNL     1      -7.642  16.027  66.933  1.00  0.00    -0.247 Br 
HETATM    8  C   UNL     1     -11.272  14.442  65.739  1.00  0.00    -0.326 A  
HETATM    9  C   UNL     1     -11.689  13.685  66.828  1.00  0.00    -0.426 A  
HETATM   10 BR   UNL     1     -12.374  14.564  64.207  1.00  0.00    -0.238 Br 
HETATM   11  C   UNL     1     -10.891  13.579  67.988  1.00  0.00    -0.266 A  
ENDROOT
BRANCH  11  12
HETATM   12  C   UNL     1     -11.470  12.827  69.172  1.00  0.00    -0.306 C  
BRANCH  12  13
HETATM   13  N   UNL     1     -11.397  13.603  70.421  1.00  0.00    -0.471 NA 
HETATM   14  H   UNL     1     -10.452  13.948  70.589  1.00  0.00     0.000 HD 
BRANCH  13  15
HETATM   15  C   UNL     1     -12.383  14.705  70.441  1.00  0.00    -0.339 C  
HETATM   16  C   UNL     1     -13.708  14.220  71.062  1.00  0.00    -0.155 C  
HETATM   17  C   UNL     1     -13.606  13.932  72.563  1.00  0.00    -0.680 C  
HETATM   18  C   UNL     1     -12.986  15.092  73.345  1.00  0.00    -0.518 C  
HETATM   19  C   UNL     1     -11.687  15.590  72.715  1.00  0.00    -0.545 C  
HETATM   20  O   UNL     1     -13.907  16.183  73.388  1.00  0.00    -0.832 OA 
HETATM   21  C   UNL     1     -11.881  15.923  71.234  1.00  0.00    -0.502 C  
HETATM   22  H   UNL     1     -13.523  16.903  73.873  1.00  0.00     0.000 HD 
ENDBRANCH  13  15
ENDBRANCH  12  13
ENDBRANCH  11  12
TORSDOF 3
ENDMDL
MODEL       12
REMARK 921   NORMALIZED FREE ENERGY PREDICTED BY IDOCK:   -6.02 KCAL/MOL
REMARK 922        TOTAL FREE ENERGY PREDICTED BY IDOCK:   -7.74 KCAL/MOL
REMARK 923 INTER-LIGAND FREE ENERGY PREDICTED BY IDOCK:   -7.43 KCAL/MOL
REMARK 924 INTRA-LIGAND FREE ENERGY PREDICTED BY IDOCK:   -0.30 KCAL/MOL
REMARK 927      BINDING AFFINITY PREDICTED BY RF-SCORE:    0.00 PKD
ROOT
HETATM    1  N   UNL     1     -11.104  13.428  69.631  1.00  0.00    -0.464 NA 
HETATM    2  H2  UNL     1     -11.914  13.924  70.003  1.00  0.00     0.000 HD 
HETATM    3  C   UNL     1     -11.255  13.314  68.231  1.00  0.00    -0.277 A  
HETATM    4  H1  UNL     1     -10.949  12.593  70.195  1.00  0.00     0.000 HD 
HETATM    5  C   UNL     1     -11.471  14.472  67.449  1.00  0.00    -0.368 A  
HETATM    6  C   UNL     1     -11.725  14.397  66.077  1.00  0.00    -0.378 A  
HETATM    7 BR   UNL     1     -11.401  16.209  68.230  1.00  0.00    -0.251 Br 
HETATM    8  C   UNL     1     -11.805  13.148  65.475  1.00  0.00    -0.380 A  
HETATM    9  C   UNL     1     -11.665  11.989  66.230  1.00  0.00    -0.319 A  
HETATM   10 BR   UNL     1     -12.152  13.022  63.621  1.00  0.00    -0.588 Br 
HETATM   11  C   UNL     1     -11.411  12.051  67.618  1.00  0.00    -0.392 A  
ENDROOT
BRANCH  11  12
HETATM   12  C   UNL     1     -11.382  10.743  68.386  1.00  0.00    -0.302 C  
BRANCH  12  13
HETATM   13  N   UNL     1     -12.445  10.663  69.401  1.00  0.00    -0.690 NA 
HETATM   14  H   UNL     1     -13.059   9.866  69.234  1.00  0.00     0.000 HD 
BRANCH  13  15
HETATM   15  C   UNL     1     -11.895  10.640  70.772  1.00  0.00    -0.357 C  
HETATM   16  C   UNL     1     -13.037  10.526  71.801  1.00  0.00    -0.570 C  
HETATM   17  C   UNL     1     -13.740   9.165  71.779  1.00  0.00    -0.465 C  
HETATM   18  C   UNL     1     -12.760   7.993  71.863  1.00  0.00    -0.327 C  
HETATM   19  C   UNL     1     -11.614   8.120  70.862  1.00  0.00    -0.283 C  
HETATM   20  O   UNL     1     -12.200   7.935  73.176  1.00  0.00    -0.601 OA 
HETATM   21  C   UNL     1     -10.914   9.476  70.988  1.00  0.00    -0.424 C  
HETATM   22  H   UNL     1     -11.592   7.207  73.228  1.00  0.00     0.000 HD 
ENDBRANCH  13  15
ENDBRANCH  12  13
ENDBRANCH  11  12
TORSDOF 3
ENDMDL
MODEL       13
REMARK 921   NORMALIZED FREE ENERGY PREDICTED BY IDOCK:   -6.00 KCAL/MOL
REMARK 922        TOTAL FREE ENERGY PREDICTED BY IDOCK:   -7.72 KCAL/MOL
REMARK 923 INTER-LIGAND FREE ENERGY PREDICTED BY IDOCK:   -7.11 KCAL/MOL
REMARK 924 INTRA-LIGAND FREE ENERGY PREDICTED BY IDOCK:   -0.61 KCAL/MOL
REMARK 927      BINDING AFFINITY PREDICTED BY RF-SCORE:    0.00 PKD
ROOT
HETATM    1  N   UNL     1     -12.343  11.365  70.850  1.00  0.00    -0.392 NA 
HETATM    2  H2  UNL     1     -11.650  11.216  71.583  1.00  0.00     0.000 HD 
HETATM    3  C   UNL     1     -11.739  11.098  69.602  1.00  0.00    -0.339 A  
HETATM    4  H1  UNL     1     -12.798  12.263  71.013  1.00  0.00     0.000 HD 
HETATM    5  C   UNL     1     -11.108   9.854  69.376  1.00  0.00    -0.199 A  
HETATM    6  C   UNL     1     -10.412   9.585  68.195  1.00  0.00    -0.268 A  
HETATM    7 BR   UNL     1     -11.198   8.460  70.673  1.00  0.00    -0.263 Br 
HETATM    8  C   UNL     1     -10.305  10.582  67.235  1.00  0.00    -0.228 A  
HETATM    9  C   UNL     1     -10.857  11.839  67.457  1.00  0.00    -0.286 A  
HETATM   10 BR   UNL     1      -9.364  10.242  65.631  1.00  0.00    -0.263 Br 
HETATM   11  C   UNL     1     -11.560  12.125  68.648  1.00  0.00    -0.372 A  
ENDROOT
BRANCH  11  12
HETATM   12  C   UNL     1     -12.033  13.551  68.859  1.00  0.00    -0.341 C  
BRANCH  12  13
HETATM   13  N   UNL     1     -11.620  14.093  70.163  1.00  0.00    -0.410 NA 
HETATM   14  H   UNL     1     -10.613  14.257  70.195  1.00  0.00     0.000 HD 
BRANCH  13  15
HETATM   15  C   UNL     1     -12.375  15.313  70.516  1.00  0.00    -0.387 C  
HETATM   16  C   UNL     1     -13.781  14.939  71.026  1.00  0.00    -0.367 C  
HETATM   17  C   UNL     1     -13.766  14.239  72.389  1.00  0.00    -0.616 C  
HETATM   18  C   UNL     1     -12.949  15.001  73.435  1.00  0.00    -0.498 C  
HETATM   19  C   UNL     1     -11.566  15.395  72.919  1.00  0.00    -0.419 C  
HETATM   20  O   UNL     1     -13.644  16.193  73.803  1.00  0.00    -0.902 OA 
HETATM   21  C   UNL     1     -11.663  16.150  71.591  1.00  0.00    -0.558 C  
HETATM   22  H   UNL     1     -13.138  16.666  74.452  1.00  0.00     0.000 HD 
ENDBRANCH  13  15
ENDBRANCH  12  13
ENDBRANCH  11  12
TORSDOF 3
ENDMDL
MODEL       14
REMARK 921   NORMALIZED FREE ENERGY PREDICTED BY IDOCK:   -6.00 KCAL/MOL
REMARK 922        TOTAL FREE ENERGY PREDICTED BY IDOCK:   -7.71 KCAL/MOL
REMARK 923 INTER-LIGAND FREE ENERGY PREDICTED BY IDOCK:   -7.11 KCAL/MOL
REMARK 924 INTRA-LIGAND FREE ENERGY PREDICTED BY IDOCK:   -0.60 KCAL/MOL
REMARK 927      BINDING AFFINITY PREDICTED BY RF-SCORE:    0.00 PKD
ROOT
HETATM    1  N   UNL     1     -11.272  17.030  64.327  1.00  0.00    -1.149 NA 
HETATM    2  H2  UNL     1     -10.759  17.695  63.749  1.00  0.00     0.000 HD 
HETATM    3  C   UNL     1     -10.482  16.716  65.455  1.00  0.00    -0.267 A  
HETATM    4  H1  UNL     1     -11.623  16.283  63.728  1.00  0.00     0.000 HD 
HETATM    5  C   UNL     1      -9.996  17.752  66.286  1.00  0.00    -0.318 A  
HETATM    6  C   UNL     1      -9.131  17.496  67.352  1.00  0.00    -0.237 A  
HETATM    7 BR   UNL     1     -10.522  19.562  66.004  1.00  0.00    -0.575 Br 
HETATM    8  C   UNL     1      -8.707  16.193  67.577  1.00  0.00    -0.185 A  
HETATM    9  C   UNL     1      -9.114  15.162  66.736  1.00  0.00    -0.282 A  
HETATM   10 BR   UNL     1      -7.532  15.823  69.011  1.00  0.00    -0.200 Br 
HETATM   11  C   UNL     1      -9.986  15.408  65.653  1.00  0.00    -0.396 A  
ENDROOT
BRANCH  11  12
HETATM   12  C   UNL     1     -10.291  14.251  64.721  1.00  0.00    -0.343 C  
BRANCH  12  13
HETATM   13  N   UNL     1      -9.733  12.978  65.204  1.00  0.00    -0.508 NA 
HETATM   14  H   UNL     1      -9.266  13.095  66.103  1.00  0.00     0.000 HD 
BRANCH  13  15
HETATM   15  C   UNL     1     -10.759  11.916  65.265  1.00  0.00    -0.283 C  
HETATM   16  C   UNL     1     -10.175  10.651  65.925  1.00  0.00    -0.314 C  
HETATM   17  C   UNL     1      -9.889  10.823  67.420  1.00  0.00    -0.204 C  
HETATM   18  C   UNL     1     -11.087  11.383  68.190  1.00  0.00    -0.248 C  
HETATM   19  C   UNL     1     -11.682  12.620  67.521  1.00  0.00    -0.429 C  
HETATM   20  O   UNL     1     -12.107  10.386  68.270  1.00  0.00    -0.747 OA 
HETATM   21  C   UNL     1     -12.007  12.354  66.049  1.00  0.00    -0.419 C  
HETATM   22  H   UNL     1     -12.852  10.733  68.748  1.00  0.00     0.000 HD 
ENDBRANCH  13  15
ENDBRANCH  12  13
ENDBRANCH  11  12
TORSDOF 3
ENDMDL
MODEL       15
REMARK 921   NORMALIZED FREE ENERGY PREDICTED BY IDOCK:   -5.94 KCAL/MOL
REMARK 922        TOTAL FREE ENERGY PREDICTED BY IDOCK:   -7.65 KCAL/MOL
REMARK 923 INTER-LIGAND FREE ENERGY PREDICTED BY IDOCK:   -7.06 KCAL/MOL
REMARK 924 INTRA-LIGAND FREE ENERGY PREDICTED BY IDOCK:   -0.58 KCAL/MOL
REMARK 927      BINDING AFFINITY PREDICTED BY RF-SCORE:    0.00 PKD
ROOT
HETATM    1  N   UNL     1      -9.098  13.533  68.765  1.00  0.00    -0.389 NA 
HETATM    2  H2  UNL     1      -8.598  13.610  69.651  1.00  0.00     0.000 HD 
HETATM    3  C   UNL     1      -9.462  14.830  68.344  1.00  0.00    -0.213 A  
HETATM    4  H1  UNL     1      -9.811  12.809  68.857  1.00  0.00     0.000 HD 
HETATM    5  C   UNL     1      -8.475  15.834  68.216  1.00  0.00    -0.164 A  
HETATM    6  C   UNL     1      -8.803  17.154  67.899  1.00  0.00    -0.226 A  
HETATM    7 BR   UNL     1      -6.628  15.425  68.448  1.00  0.00    -0.124 Br 
HETATM    8  C   UNL     1     -10.140  17.496  67.744  1.00  0.00    -0.330 A  
HETATM    9  C   UNL     1     -11.139  16.547  67.930  1.00  0.00    -0.229 A  
HETATM   10 BR   UNL     1     -10.608  19.278  67.320  1.00  0.00    -0.608 Br 
HETATM   11  C   UNL     1     -10.820  15.210  68.253  1.00  0.00    -0.262 A  
ENDROOT
BRANCH  11  12
HETATM   12  C   UNL     1     -11.971  14.266  68.548  1.00  0.00    -0.317 C  
BRANCH  12  13
HETATM   13  N   UNL     1     -12.757  14.687  69.719  1.00  0.00    -0.574 NA 
HETATM   14  H   UNL     1     -13.747  14.476  69.597  1.00  0.00     0.000 HD 
BRANCH  13  15
HETATM   15  C   UNL     1     -12.233  14.102  70.972  1.00  0.00    -0.358 C  
HETATM   16  C   UNL     1     -11.305  15.108  71.680  1.00  0.00    -0.394 C  
HETATM   17  C   UNL     1     -12.047  16.322  72.249  1.00  0.00    -0.567 C  
HETATM   18  C   UNL     1     -13.248  15.928  73.112  1.00  0.00    -0.592 C  
HETATM   19  C   UNL     1     -14.152  14.910  72.420  1.00  0.00    -0.554 C  
HETATM   20  O   UNL     1     -12.785  15.354  74.336  1.00  0.00    -0.652 OA 
HETATM   21  C   UNL     1     -13.355  13.695  71.940  1.00  0.00    -0.510 C  
HETATM   22  H   UNL     1     -13.530  15.109  74.872  1.00  0.00     0.000 HD 
ENDBRANCH  13  15
ENDBRANCH  12  13
ENDBRANCH  11  12
TORSDOF 3
ENDMDL
MODEL       16
REMARK 921   NORMALIZED FREE ENERGY PREDICTED BY IDOCK:   -5.92 KCAL/MOL
REMARK 922        TOTAL FREE ENERGY PREDICTED BY IDOCK:   -7.62 KCAL/MOL
REMARK 923 INTER-LIGAND FREE ENERGY PREDICTED BY IDOCK:   -7.01 KCAL/MOL
REMARK 924 INTRA-LIGAND FREE ENERGY PREDICTED BY IDOCK:   -0.61 KCAL/MOL
REMARK 927      BINDING AFFINITY PREDICTED BY RF-SCORE:    0.00 PKD
ROOT
HETATM    1  N   UNL     1     -12.388  14.001  68.498  1.00  0.00    -0.506 NA 
HETATM    2  H2  UNL     1     -13.186  14.176  67.888  1.00  0.00     0.000 HD 
HETATM    3  C   UNL     1     -11.727  12.838  68.047  1.00  0.00    -0.356 A  
HETATM    4  H1  UNL     1     -12.703  14.064  69.467  1.00  0.00     0.000 HD 
HETATM    5  C   UNL     1     -11.291  12.750  66.705  1.00  0.00    -0.316 A  
HETATM    6  C   UNL     1     -10.723  11.583  66.190  1.00  0.00    -0.324 A  
HETATM    7 BR   UNL     1     -11.438  14.242  65.529  1.00  0.00    -0.338 Br 
HETATM    8  C   UNL     1     -10.619  10.467  67.009  1.00  0.00    -0.245 A  
HETATM    9  C   UNL     1     -11.100  10.500  68.314  1.00  0.00    -0.340 A  
HETATM   10 BR   UNL     1      -9.857   8.874  66.333  1.00  0.00    -0.348 Br 
HETATM   11  C   UNL     1     -11.679  11.673  68.845  1.00  0.00    -0.397 A  
ENDROOT
BRANCH  11  12
HETATM   12  C   UNL     1     -12.278  11.591  70.237  1.00  0.00    -0.332 C  
BRANCH  12  13
HETATM   13  N   UNL     1     -13.018  10.338  70.457  1.00  0.00    -0.549 NA 
HETATM   14  H   UNL     1     -12.848   9.669  69.706  1.00  0.00     0.000 HD 
BRANCH  13  15
HETATM   15  C   UNL     1     -12.720   9.749  71.780  1.00  0.00    -0.426 C  
HETATM   16  C   UNL     1     -13.844   8.780  72.195  1.00  0.00    -0.513 C  
HETATM   17  C   UNL     1     -13.892   7.505  71.346  1.00  0.00    -0.439 C  
HETATM   18  C   UNL     1     -12.531   6.811  71.246  1.00  0.00    -0.313 C  
HETATM   19  C   UNL     1     -11.413   7.777  70.860  1.00  0.00    -0.294 C  
HETATM   20  O   UNL     1     -12.202   6.228  72.507  1.00  0.00    -0.529 OA 
HETATM   21  C   UNL     1     -11.382   8.991  71.792  1.00  0.00    -0.447 C  
HETATM   22  H   UNL     1     -11.357   5.798  72.445  1.00  0.00     0.000 HD 
ENDBRANCH  13  15
ENDBRANCH  12  13
ENDBRANCH  11  12
TORSDOF 3
ENDMDL
MODEL       17
REMARK 921   NORMALIZED FREE ENERGY PREDICTED BY IDOCK:   -5.91 KCAL/MOL
REMARK 922        TOTAL FREE ENERGY PREDICTED BY IDOCK:   -7.61 KCAL/MOL
REMARK 923 INTER-LIGAND FREE ENERGY PREDICTED BY IDOCK:   -6.98 KCAL/MOL
REMARK 924 INTRA-LIGAND FREE ENERGY PREDICTED BY IDOCK:   -0.63 KCAL/MOL
REMARK 927      BINDING AFFINITY PREDICTED BY RF-SCORE:    0.00 PKD
ROOT
HETATM    1  N   UNL     1     -13.707  12.959  72.815  1.00  0.00    -0.719 NA 
HETATM    2  H2  UNL     1     -14.538  13.488  72.547  1.00  0.00     0.000 HD 
HETATM    3  C   UNL     1     -12.929  12.734  71.658  1.00  0.00    -0.303 A  
HETATM    4  H1  UNL     1     -13.998  12.171  73.394  1.00  0.00     0.000 HD 
HETATM    5  C   UNL     1     -12.526  13.826  70.855  1.00  0.00    -0.377 A  
HETATM    6  C   UNL     1     -11.843  13.642  69.651  1.00  0.00    -0.396 A  
HETATM    7 BR   UNL     1     -12.878  15.620  71.395  1.00  0.00    -0.530 Br 
HETATM    8  C   UNL     1     -11.587  12.350  69.213  1.00  0.00    -0.319 A  
HETATM    9  C   UNL     1     -12.030  11.254  69.946  1.00  0.00    -0.440 A  
HETATM   10 BR   UNL     1     -10.667  12.076  67.584  1.00  0.00    -0.269 Br 
HETATM   11  C   UNL     1     -12.725  11.426  71.163  1.00  0.00    -0.479 A  
ENDROOT
BRANCH  11  12
HETATM   12  C   UNL     1     -13.269  10.183  71.843  1.00  0.00    -0.452 C  
BRANCH  12  13
HETATM   13  N   UNL     1     -12.879   8.947  71.147  1.00  0.00    -0.501 NA 
HETATM   14  H   UNL     1     -12.369   9.149  70.287  1.00  0.00     0.000 HD 
BRANCH  13  15
HETATM   15  C   UNL     1     -12.111   8.040  72.027  1.00  0.00    -0.331 C  
HETATM   16  C   UNL     1     -12.159   6.601  71.478  1.00  0.00    -0.406 C  
HETATM   17  C   UNL     1     -11.376   6.422  70.173  1.00  0.00    -0.485 C  
HETATM   18  C   UNL     1      -9.948   6.966  70.262  1.00  0.00    -0.179 C  
HETATM   19  C   UNL     1      -9.900   8.382  70.831  1.00  0.00    -0.223 C  
HETATM   20  O   UNL     1      -9.169   6.119  71.108  1.00  0.00    -0.152 OA 
HETATM   21  C   UNL     1     -10.641   8.470  72.167  1.00  0.00    -0.419 C  
HETATM   22  H   UNL     1      -8.283   6.456  71.163  1.00  0.00     0.000 HD 
ENDBRANCH  13  15
ENDBRANCH  12  13
ENDBRANCH  11  12
TORSDOF 3
ENDMDL
MODEL       18
REMARK 921   NORMALIZED FREE ENERGY PREDICTED BY IDOCK:   -5.91 KCAL/MOL
REMARK 922        TOTAL FREE ENERGY PREDICTED BY IDOCK:   -7.61 KCAL/MOL
REMARK 923 INTER-LIGAND FREE ENERGY PREDICTED BY IDOCK:   -7.01 KCAL/MOL
REMARK 924 INTRA-LIGAND FREE ENERGY PREDICTED BY IDOCK:   -0.59 KCAL/MOL
REMARK 927      BINDING AFFINITY PREDICTED BY RF-SCORE:    0.00 PKD
ROOT
HETATM    1  N   UNL     1     -10.023   8.955  66.077  1.00  0.00    -0.431 NA 
HETATM    2  H2  UNL     1      -9.145   9.200  65.619  1.00  0.00     0.000 HD 
HETATM    3  C   UNL     1     -10.527  10.107  66.720  1.00  0.00    -0.204 A  
HETATM    4  H1  UNL     1      -9.881   8.097  66.610  1.00  0.00     0.000 HD 
HETATM    5  C   UNL     1     -10.723  11.297  65.982  1.00  0.00    -0.242 A  
HETATM    6  C   UNL     1     -11.125  12.486  66.595  1.00  0.00    -0.327 A  
HETATM    7 BR   UNL     1     -10.471  11.331  64.093  1.00  0.00    -0.457 Br 
HETATM    8  C   UNL     1     -11.298  12.507  67.972  1.00  0.00    -0.289 A  
HETATM    9  C   UNL     1     -11.048  11.371  68.734  1.00  0.00    -0.290 A  
HETATM   10 BR   UNL     1     -11.837  14.107  68.825  1.00  0.00    -0.378 Br 
HETATM   11  C   UNL     1     -10.638  10.164  68.127  1.00  0.00    -0.262 A  
ENDROOT
BRANCH  11  12
HETATM   12  C   UNL     1     -10.279   9.006  69.039  1.00  0.00    -0.205 C  
BRANCH  12  13
HETATM   13  N   UNL     1     -11.467   8.328  69.581  1.00  0.00    -0.364 NA 
HETATM   14  H   UNL     1     -11.649   7.451  69.091  1.00  0.00     0.000 HD 
BRANCH  13  15
HETATM   15  C   UNL     1     -11.363   8.118  71.040  1.00  0.00    -0.269 C  
HETATM   16  C   UNL     1     -11.544   9.456  71.783  1.00  0.00    -0.433 C  
HETATM   17  C   UNL     1     -12.971  10.009  71.700  1.00  0.00    -0.554 C  
HETATM   18  C   UNL     1     -14.028   8.975  72.094  1.00  0.00    -0.435 C  
HETATM   19  C   UNL     1     -13.832   7.640  71.377  1.00  0.00    -0.413 C  
HETATM   20  O   UNL     1     -13.961   8.739  73.501  1.00  0.00    -1.055 OA 
HETATM   21  C   UNL     1     -12.406   7.116  71.561  1.00  0.00    -0.406 C  
HETATM   22  H   UNL     1     -14.617   8.097  73.746  1.00  0.00     0.000 HD 
ENDBRANCH  13  15
ENDBRANCH  12  13
ENDBRANCH  11  12
TORSDOF 3
ENDMDL
MODEL       19
REMARK 921   NORMALIZED FREE ENERGY PREDICTED BY IDOCK:   -5.90 KCAL/MOL
REMARK 922        TOTAL FREE ENERGY PREDICTED BY IDOCK:   -7.60 KCAL/MOL
REMARK 923 INTER-LIGAND FREE ENERGY PREDICTED BY IDOCK:   -7.24 KCAL/MOL
REMARK 924 INTRA-LIGAND FREE ENERGY PREDICTED BY IDOCK:   -0.36 KCAL/MOL
REMARK 927      BINDING AFFINITY PREDICTED BY RF-SCORE:    0.00 PKD
ROOT
HETATM    1  N   UNL     1     -11.619  13.912  70.685  1.00  0.00    -0.516 NA 
HETATM    2  H2  UNL     1     -10.852  13.329  71.019  1.00  0.00     0.000 HD 
HETATM    3  C   UNL     1     -11.678  13.809  69.278  1.00  0.00    -0.327 A  
HETATM    4  H1  UNL     1     -11.543  14.830  71.125  1.00  0.00     0.000 HD 
HETATM    5  C   UNL     1     -11.783  12.538  68.668  1.00  0.00    -0.325 A  
HETATM    6  C   UNL     1     -11.744  12.382  67.280  1.00  0.00    -0.419 A  
HETATM    7 BR   UNL     1     -12.009  10.964  69.718  1.00  0.00    -0.441 Br 
HETATM    8  C   UNL     1     -11.558  13.502  66.482  1.00  0.00    -0.359 A  
HETATM    9  C   UNL     1     -11.384  14.758  67.054  1.00  0.00    -0.358 A  
HETATM   10 BR   UNL     1     -11.498  13.315  64.601  1.00  0.00    -0.398 Br 
HETATM   11  C   UNL     1     -11.418  14.929  68.456  1.00  0.00    -0.336 A  
ENDROOT
BRANCH  11  12
HETATM   12  C   UNL     1     -11.109  16.310  69.002  1.00  0.00    -0.331 C  
BRANCH  12  13
HETATM   13  N   UNL     1     -10.622  17.229  67.961  1.00  0.00    -0.384 NA 
HETATM   14  H   UNL     1     -11.356  17.451  67.289  1.00  0.00     0.000 HD 
BRANCH  13  15
HETATM   15  C   UNL     1     -10.036  18.456  68.541  1.00  0.00    -0.387 C  
HETATM   16  C   UNL     1      -8.497  18.396  68.467  1.00  0.00    -0.346 C  
HETATM   17  C   UNL     1      -7.953  18.498  67.038  1.00  0.00    -0.243 C  
HETATM   18  C   UNL     1      -8.529  19.691  66.272  1.00  0.00    -0.360 C  
HETATM   19  C   UNL     1     -10.051  19.766  66.369  1.00  0.00    -0.600 C  
HETATM   20  O   UNL     1      -7.989  20.902  66.804  1.00  0.00    -0.554 OA 
HETATM   21  C   UNL     1     -10.517  19.729  67.826  1.00  0.00    -0.555 C  
HETATM   22  H   UNL     1      -8.345  21.643  66.329  1.00  0.00     0.000 HD 
ENDBRANCH  13  15
ENDBRANCH  12  13
ENDBRANCH  11  12
TORSDOF 3
ENDMDL
MODEL       20
REMARK 921   NORMALIZED FREE ENERGY PREDICTED BY IDOCK:   -5.88 KCAL/MOL
REMARK 922        TOTAL FREE ENERGY PREDICTED BY IDOCK:   -7.57 KCAL/MOL
REMARK 923 INTER-LIGAND FREE ENERGY PREDICTED BY IDOCK:   -7.30 KCAL/MOL
REMARK 924 INTRA-LIGAND FREE ENERGY PREDICTED BY IDOCK:   -0.27 KCAL/MOL
REMARK 927      BINDING AFFINITY PREDICTED BY RF-SCORE:    0.00 PKD
ROOT
HETATM    1  N   UNL     1     -11.585  11.846  66.322  1.00  0.00    -0.491 NA 
HETATM    2  H2  UNL     1     -10.702  12.010  65.840  1.00  0.00     0.000 HD 
HETATM    3  C   UNL     1     -11.683  12.756  67.397  1.00  0.00    -0.366 A  
HETATM    4  H1  UNL     1     -11.680  10.844  66.493  1.00  0.00     0.000 HD 
HETATM    5  C   UNL     1     -11.552  14.144  67.161  1.00  0.00    -0.377 A  
HETATM    6  C   UNL     1     -11.543  15.071  68.206  1.00  0.00    -0.355 A  
HETATM    7 BR   UNL     1     -11.406  14.825  65.387  1.00  0.00    -0.352 Br 
HETATM    8  C   UNL     1     -11.626  14.612  69.513  1.00  0.00    -0.310 A  
HETATM    9  C   UNL     1     -11.687  13.249  69.782  1.00  0.00    -0.354 A  
HETATM   10 BR   UNL     1     -11.610  15.848  70.944  1.00  0.00    -0.477 Br 
HETATM   11  C   UNL     1     -11.694  12.301  68.735  1.00  0.00    -0.390 A  
ENDROOT
BRANCH  11  12
HETATM   12  C   UNL     1     -11.651  10.833  69.117  1.00  0.00    -0.305 C  
BRANCH  12  13
HETATM   13  N   UNL     1     -12.769  10.447  69.993  1.00  0.00    -0.549 NA 
HETATM   14  H   UNL     1     -13.318   9.693  69.583  1.00  0.00     0.000 HD 
BRANCH  13  15
HETATM   15  C   UNL     1     -12.305  10.097  71.353  1.00  0.00    -0.416 C  
HETATM   16  C   UNL     1     -13.442   9.419  72.142  1.00  0.00    -0.543 C  
HETATM   17  C   UNL     1     -13.796   8.022  71.620  1.00  0.00    -0.444 C  
HETATM   18  C   UNL     1     -12.569   7.120  71.471  1.00  0.00    -0.390 C  
HETATM   19  C   UNL     1     -11.433   7.803  70.712  1.00  0.00    -0.285 C  
HETATM   20  O   UNL     1     -12.086   6.759  72.766  1.00  0.00    -0.482 OA 
HETATM   21  C   UNL     1     -11.088   9.159  71.331  1.00  0.00    -0.415 C  
HETATM   22  H   UNL     1     -11.324   6.199  72.674  1.00  0.00     0.000 HD 
ENDBRANCH  13  15
ENDBRANCH  12  13
ENDBRANCH  11  12
TORSDOF 3
ENDMDL
MODEL       21
REMARK 921   NORMALIZED FREE ENERGY PREDICTED BY IDOCK:   -5.87 KCAL/MOL
REMARK 922        TOTAL FREE ENERGY PREDICTED BY IDOCK:   -7.56 KCAL/MOL
REMARK 923 INTER-LIGAND FREE ENERGY PREDICTED BY IDOCK:   -6.88 KCAL/MOL
REMARK 924 INTRA-LIGAND FREE ENERGY PREDICTED BY IDOCK:   -0.68 KCAL/MOL
REMARK 927      BINDING AFFINITY PREDICTED BY RF-SCORE:    0.00 PKD
ROOT
HETATM    1  N   UNL     1     -12.733  14.321  66.489  1.00  0.00    -0.433 NA 
HETATM    2  H2  UNL     1     -13.236  13.438  66.574  1.00  0.00     0.000 HD 
HETATM    3  C   UNL     1     -11.374  14.093  66.797  1.00  0.00    -0.343 A  
HETATM    4  H1  UNL     1     -13.255  15.040  66.991  1.00  0.00     0.000 HD 
HETATM    5  C   UNL     1     -10.651  13.097  66.102  1.00  0.00    -0.279 A  
HETATM    6  C   UNL     1      -9.336  12.770  66.441  1.00  0.00    -0.196 A  
HETATM    7 BR   UNL     1     -11.434  12.161  64.638  1.00  0.00    -0.384 Br 
HETATM    8  C   UNL     1      -8.738  13.415  67.515  1.00  0.00    -0.205 A  
HETATM    9  C   UNL     1      -9.446  14.351  68.261  1.00  0.00    -0.207 A  
HETATM   10 BR   UNL     1      -6.961  12.985  67.996  1.00  0.00    -0.132 Br 
HETATM   11  C   UNL     1     -10.776  14.688  67.931  1.00  0.00    -0.250 A  
ENDROOT
BRANCH  11  12
HETATM   12  C   UNL     1     -11.513  15.634  68.861  1.00  0.00    -0.361 C  
BRANCH  12  13
HETATM   13  N   UNL     1     -12.630  14.978  69.560  1.00  0.00    -0.595 NA 
HETATM   14  H   UNL     1     -13.153  14.367  68.932  1.00  0.00     0.000 HD 
BRANCH  13  15
HETATM   15  C   UNL     1     -12.175  14.250  70.763  1.00  0.00    -0.353 C  
HETATM   16  C   UNL     1     -11.294  15.166  71.635  1.00  0.00    -0.394 C  
HETATM   17  C   UNL     1     -12.072  16.306  72.299  1.00  0.00    -0.567 C  
HETATM   18  C   UNL     1     -13.318  15.816  73.041  1.00  0.00    -0.583 C  
HETATM   19  C   UNL     1     -14.177  14.888  72.185  1.00  0.00    -0.616 C  
HETATM   20  O   UNL     1     -12.923  15.103  74.213  1.00  0.00    -0.554 OA 
HETATM   21  C   UNL     1     -13.349  13.736  71.612  1.00  0.00    -0.430 C  
HETATM   22  H   UNL     1     -13.696  14.799  74.674  1.00  0.00     0.000 HD 
ENDBRANCH  13  15
ENDBRANCH  12  13
ENDBRANCH  11  12
TORSDOF 3
ENDMDL
MODEL       22
REMARK 921   NORMALIZED FREE ENERGY PREDICTED BY IDOCK:   -5.87 KCAL/MOL
REMARK 922        TOTAL FREE ENERGY PREDICTED BY IDOCK:   -7.56 KCAL/MOL
REMARK 923 INTER-LIGAND FREE ENERGY PREDICTED BY IDOCK:   -7.06 KCAL/MOL
REMARK 924 INTRA-LIGAND FREE ENERGY PREDICTED BY IDOCK:   -0.51 KCAL/MOL
REMARK 927      BINDING AFFINITY PREDICTED BY RF-SCORE:    0.00 PKD
ROOT
HETATM    1  N   UNL     1     -13.004  15.838  70.192  1.00  0.00    -0.661 NA 
HETATM    2  H2  UNL     1     -12.577  16.102  71.080  1.00  0.00     0.000 HD 
HETATM    3  C   UNL     1     -12.524  14.562  69.826  1.00  0.00    -0.215 A  
HETATM    4  H1  UNL     1     -12.911  16.621  69.544  1.00  0.00     0.000 HD 
HETATM    5  C   UNL     1     -12.652  13.477  70.724  1.00  0.00    -0.309 A  
HETATM    6  C   UNL     1     -12.104  12.222  70.445  1.00  0.00    -0.385 A  
HETATM    7 BR   UNL     1     -13.609  13.668  72.361  1.00  0.00    -0.706 Br 
HETATM    8  C   UNL     1     -11.381  12.049  69.273  1.00  0.00    -0.268 A  
HETATM    9  C   UNL     1     -11.181  13.115  68.402  1.00  0.00    -0.305 A  
HETATM   10 BR   UNL     1     -10.627  10.361  68.877  1.00  0.00    -0.267 Br 
HETATM   11  C   UNL     1     -11.726  14.388  68.673  1.00  0.00    -0.367 A  
ENDROOT
BRANCH  11  12
HETATM   12  C   UNL     1     -11.367  15.521  67.730  1.00  0.00    -0.286 C  
BRANCH  12  13
HETATM   13  N   UNL     1     -10.868  16.708  68.443  1.00  0.00    -0.351 NA 
HETATM   14  H   UNL     1     -10.799  16.537  69.446  1.00  0.00     0.000 HD 
BRANCH  13  15
HETATM   15  C   UNL     1      -9.582  17.182  67.888  1.00  0.00    -0.266 C  
HETATM   16  C   UNL     1      -9.713  17.418  66.371  1.00  0.00    -0.303 C  
HETATM   17  C   UNL     1     -10.606  18.612  66.017  1.00  0.00    -0.410 C  
HETATM   18  C   UNL     1     -10.218  19.884  66.774  1.00  0.00    -0.477 C  
HETATM   19  C   UNL     1     -10.062  19.644  68.274  1.00  0.00    -0.560 C  
HETATM   20  O   UNL     1      -8.975  20.376  66.270  1.00  0.00    -0.568 OA 
HETATM   21  C   UNL     1      -9.104  18.483  68.553  1.00  0.00    -0.353 C  
HETATM   22  H   UNL     1      -8.734  21.166  66.739  1.00  0.00     0.000 HD 
ENDBRANCH  13  15
ENDBRANCH  12  13
ENDBRANCH  11  12
TORSDOF 3
ENDMDL
MODEL       23
REMARK 921   NORMALIZED FREE ENERGY PREDICTED BY IDOCK:   -5.84 KCAL/MOL
REMARK 922        TOTAL FREE ENERGY PREDICTED BY IDOCK:   -7.52 KCAL/MOL
REMARK 923 INTER-LIGAND FREE ENERGY PREDICTED BY IDOCK:   -6.95 KCAL/MOL
REMARK 924 INTRA-LIGAND FREE ENERGY PREDICTED BY IDOCK:   -0.58 KCAL/MOL
REMARK 927      BINDING AFFINITY PREDICTED BY RF-SCORE:    0.00 PKD
ROOT
HETATM    1  N   UNL     1     -11.014  12.956  69.519  1.00  0.00    -0.453 NA 
HETATM    2  H2  UNL     1     -11.992  12.743  69.326  1.00  0.00     0.000 HD 
HETATM    3  C   UNL     1     -10.705  14.205  68.937  1.00  0.00    -0.256 A  
HETATM    4  H1  UNL     1     -10.452  12.136  69.290  1.00  0.00     0.000 HD 
HETATM    5  C   UNL     1     -11.483  15.342  69.254  1.00  0.00    -0.333 A  
HETATM    6  C   UNL     1     -11.277  16.573  68.627  1.00  0.00    -0.297 A  
HETATM    7 BR   UNL     1     -12.847  15.256  70.583  1.00  0.00    -0.441 Br 
HETATM    8  C   UNL     1     -10.308  16.671  67.637  1.00  0.00    -0.305 A  
HETATM    9  C   UNL     1      -9.573  15.554  67.255  1.00  0.00    -0.216 A  
HETATM   10 BR   UNL     1     -10.015  18.326  66.772  1.00  0.00    -0.387 Br 
HETATM   11  C   UNL     1      -9.773  14.303  67.879  1.00  0.00    -0.222 A  
ENDROOT
BRANCH  11  12
HETATM   12  C   UNL     1      -9.010  13.114  67.327  1.00  0.00    -0.216 C  
BRANCH  12  13
HETATM   13  N   UNL     1      -9.335  12.844  65.917  1.00  0.00    -0.462 NA 
HETATM   14  H   UNL     1      -8.500  12.594  65.386  1.00  0.00     0.000 HD 
BRANCH  13  15
HETATM   15  C   UNL     1     -10.386  11.813  65.783  1.00  0.00    -0.253 C  
HETATM   16  C   UNL     1     -11.778  12.474  65.770  1.00  0.00    -0.478 C  
HETATM   17  C   UNL     1     -12.051  13.292  64.503  1.00  0.00    -0.461 C  
HETATM   18  C   UNL     1     -11.766  12.507  63.221  1.00  0.00    -0.398 C  
HETATM   19  C   UNL     1     -10.397  11.830  63.246  1.00  0.00    -0.446 C  
HETATM   20  O   UNL     1     -12.760  11.495  63.053  1.00  0.00    -0.915 OA 
HETATM   21  C   UNL     1     -10.222  10.976  64.503  1.00  0.00    -0.406 C  
HETATM   22  H   UNL     1     -12.584  11.008  62.257  1.00  0.00     0.000 HD 
ENDBRANCH  13  15
ENDBRANCH  12  13
ENDBRANCH  11  12
TORSDOF 3
ENDMDL
MODEL       24
REMARK 921   NORMALIZED FREE ENERGY PREDICTED BY IDOCK:   -5.79 KCAL/MOL
REMARK 922        TOTAL FREE ENERGY PREDICTED BY IDOCK:   -7.47 KCAL/MOL
REMARK 923 INTER-LIGAND FREE ENERGY PREDICTED BY IDOCK:   -6.91 KCAL/MOL
REMARK 924 INTRA-LIGAND FREE ENERGY PREDICTED BY IDOCK:   -0.56 KCAL/MOL
REMARK 927      BINDING AFFINITY PREDICTED BY RF-SCORE:    0.00 PKD
ROOT
HETATM    1  N   UNL     1     -11.535  16.496  63.999  1.00  0.00    -1.581 NA 
HETATM    2  H2  UNL     1     -10.926  17.148  63.506  1.00  0.00     0.000 HD 
HETATM    3  C   UNL     1     -10.824  15.961  65.096  1.00  0.00    -0.421 A  
HETATM    4  H1  UNL     1     -11.960  15.870  63.314  1.00  0.00     0.000 HD 
HETATM    5  C   UNL     1     -10.235  16.827  66.044  1.00  0.00    -0.346 A  
HETATM    6  C   UNL     1      -9.440  16.346  67.087  1.00  0.00    -0.238 A  
HETATM    7 BR   UNL     1     -10.520  18.710  65.960  1.00  0.00    -0.350 Br 
HETATM    8  C   UNL     1      -9.191  14.983  67.170  1.00  0.00    -0.216 A  
HETATM    9  C   UNL     1      -9.701  14.112  66.213  1.00  0.00    -0.315 A  
HETATM   10 BR   UNL     1      -8.114  14.310  68.570  1.00  0.00    -0.143 Br 
HETATM   11  C   UNL     1     -10.503  14.586  65.152  1.00  0.00    -0.439 A  
ENDROOT
BRANCH  11  12
HETATM   12  C   UNL     1     -10.925  13.587  64.091  1.00  0.00    -0.251 C  
BRANCH  12  13
HETATM   13  N   UNL     1      -9.859  12.624  63.770  1.00  0.00    -0.679 NA 
HETATM   14  H   UNL     1      -9.109  12.657  64.461  1.00  0.00     0.000 HD 
BRANCH  13  15
HETATM   15  C   UNL     1     -10.386  11.252  63.614  1.00  0.00    -0.408 C  
HETATM   16  C   UNL     1      -9.535  10.469  62.594  1.00  0.00    -0.326 C  
HETATM   17  C   UNL     1      -8.124  10.150  63.099  1.00  0.00    -0.158 C  
HETATM   18  C   UNL     1      -8.125   9.496  64.482  1.00  0.00    -0.142 C  
HETATM   19  C   UNL     1      -8.990  10.258  65.485  1.00  0.00    -0.200 C  
HETATM   20  O   UNL     1      -8.632   8.165  64.377  1.00  0.00    -0.386 OA 
HETATM   21  C   UNL     1     -10.404  10.479  64.943  1.00  0.00    -0.307 C  
HETATM   22  H   UNL     1      -8.633   7.759  65.236  1.00  0.00     0.000 HD 
ENDBRANCH  13  15
ENDBRANCH  12  13
ENDBRANCH  11  12
TORSDOF 3
ENDMDL
MODEL       25
REMARK 921   NORMALIZED FREE ENERGY PREDICTED BY IDOCK:   -5.78 KCAL/MOL
REMARK 922        TOTAL FREE ENERGY PREDICTED BY IDOCK:   -7.46 KCAL/MOL
REMARK 923 INTER-LIGAND FREE ENERGY PREDICTED BY IDOCK:   -7.03 KCAL/MOL
REMARK 924 INTRA-LIGAND FREE ENERGY PREDICTED BY IDOCK:   -0.43 KCAL/MOL
REMARK 927      BINDING AFFINITY PREDICTED BY RF-SCORE:    0.00 PKD
ROOT
HETATM    1  N   UNL     1     -11.784  10.384  69.378  1.00  0.00    -0.446 NA 
HETATM    2  H2  UNL     1     -12.635   9.856  69.187  1.00  0.00     0.000 HD 
HETATM    3  C   UNL     1     -12.133  11.552  70.090  1.00  0.00    -0.351 A  
HETATM    4  H1  UNL     1     -11.248  10.457  68.512  1.00  0.00     0.000 HD 
HETATM    5  C   UNL     1     -12.875  11.452  71.289  1.00  0.00    -0.379 A  
HETATM    6  C   UNL     1     -13.327  12.583  71.972  1.00  0.00    -0.528 A  
HETATM    7 BR   UNL     1     -13.279   9.752  72.051  1.00  0.00    -0.542 Br 
HETATM    8  C   UNL     1     -13.071  13.838  71.438  1.00  0.00    -0.337 A  
HETATM    9  C   UNL     1     -12.402  13.968  70.226  1.00  0.00    -0.425 A  
HETATM   10 BR   UNL     1     -13.677  15.384  72.343  1.00  0.00    -0.684 Br 
HETATM   11  C   UNL     1     -11.943  12.832  69.523  1.00  0.00    -0.338 A  
ENDROOT
BRANCH  11  12
HETATM   12  C   UNL     1     -11.323  13.055  68.157  1.00  0.00    -0.294 C  
BRANCH  12  13
HETATM   13  N   UNL     1     -11.292  14.478  67.779  1.00  0.00    -0.302 NA 
HETATM   14  H   UNL     1     -11.724  15.061  68.495  1.00  0.00     0.000 HD 
BRANCH  13  15
HETATM   15  C   UNL     1      -9.921  14.934  67.469  1.00  0.00    -0.219 C  
HETATM   16  C   UNL     1      -9.758  15.130  65.948  1.00  0.00    -0.385 C  
HETATM   17  C   UNL     1     -10.558  16.315  65.399  1.00  0.00    -0.371 C  
HETATM   18  C   UNL     1     -10.314  17.606  66.183  1.00  0.00    -0.334 C  
HETATM   19  C   UNL     1     -10.449  17.406  67.691  1.00  0.00    -0.368 C  
HETATM   20  O   UNL     1      -8.995  18.083  65.913  1.00  0.00    -0.506 OA 
HETATM   21  C   UNL     1      -9.570  16.252  68.179  1.00  0.00    -0.219 C  
HETATM   22  H   UNL     1      -8.842  18.884  66.399  1.00  0.00     0.000 HD 
ENDBRANCH  13  15
ENDBRANCH  12  13
ENDBRANCH  11  12
TORSDOF 3
ENDMDL
MODEL       26
REMARK 921   NORMALIZED FREE ENERGY PREDICTED BY IDOCK:   -5.76 KCAL/MOL
REMARK 922        TOTAL FREE ENERGY PREDICTED BY IDOCK:   -7.43 KCAL/MOL
REMARK 923 INTER-LIGAND FREE ENERGY PREDICTED BY IDOCK:   -6.89 KCAL/MOL
REMARK 924 INTRA-LIGAND FREE ENERGY PREDICTED BY IDOCK:   -0.54 KCAL/MOL
REMARK 927      BINDING AFFINITY PREDICTED BY RF-SCORE:    0.00 PKD
ROOT
HETATM    1  N   UNL     1     -13.600   8.847  73.104  1.00  0.00    -0.998 NA 
HETATM    2  H2  UNL     1     -13.071   8.717  73.967  1.00  0.00     0.000 HD 
HETATM    3  C   UNL     1     -12.704   9.240  72.086  1.00  0.00    -0.390 A  
HETATM    4  H1  UNL     1     -14.419   9.420  73.311  1.00  0.00     0.000 HD 
HETATM    5  C   UNL     1     -11.569   8.447  71.800  1.00  0.00    -0.308 A  
HETATM    6  C   UNL     1     -10.606   8.848  70.872  1.00  0.00    -0.295 A  
HETATM    7 BR   UNL     1     -11.310   6.765  72.657  1.00  0.00    -0.226 Br 
HETATM    8  C   UNL     1     -10.748  10.077  70.243  1.00  0.00    -0.309 A  
HETATM    9  C   UNL     1     -11.817  10.910  70.552  1.00  0.00    -0.457 A  
HETATM   10 BR   UNL     1      -9.454  10.643  68.986  1.00  0.00    -0.179 Br 
HETATM   11  C   UNL     1     -12.797  10.519  71.491  1.00  0.00    -0.568 A  
ENDROOT
BRANCH  11  12
HETATM   12  C   UNL     1     -13.867  11.531  71.853  1.00  0.00     0.448 C  
BRANCH  12  13
HETATM   13  N   UNL     1     -13.349  12.618  72.699  1.00  0.00    -0.505 NA 
HETATM   14  H   UNL     1     -12.331  12.588  72.759  1.00  0.00     0.000 HD 
BRANCH  13  15
HETATM   15  C   UNL     1     -13.822  13.943  72.244  1.00  0.00    -0.571 C  
HETATM   16  C   UNL     1     -13.280  15.048  73.172  1.00  0.00    -0.587 C  
HETATM   17  C   UNL     1     -11.767  15.255  73.051  1.00  0.00    -0.449 C  
HETATM   18  C   UNL     1     -11.311  15.435  71.601  1.00  0.00    -0.385 C  
HETATM   19  C   UNL     1     -11.870  14.355  70.677  1.00  0.00    -0.361 C  
HETATM   20  O   UNL     1     -11.751  16.706  71.119  1.00  0.00    -0.577 OA 
HETATM   21  C   UNL     1     -13.392  14.252  70.801  1.00  0.00    -0.174 C  
HETATM   22  H   UNL     1     -11.468  16.818  70.219  1.00  0.00     0.000 HD 
ENDBRANCH  13  15
ENDBRANCH  12  13
ENDBRANCH  11  12
TORSDOF 3
ENDMDL
MODEL       27
REMARK 921   NORMALIZED FREE ENERGY PREDICTED BY IDOCK:   -5.75 KCAL/MOL
REMARK 922        TOTAL FREE ENERGY PREDICTED BY IDOCK:   -7.42 KCAL/MOL
REMARK 923 INTER-LIGAND FREE ENERGY PREDICTED BY IDOCK:   -6.89 KCAL/MOL
REMARK 924 INTRA-LIGAND FREE ENERGY PREDICTED BY IDOCK:   -0.53 KCAL/MOL
REMARK 927      BINDING AFFINITY PREDICTED BY RF-SCORE:    0.00 PKD
ROOT
HETATM    1  N   UNL     1      -8.868   7.535  66.388  1.00  0.00    -0.150 NA 
HETATM    2  H2  UNL     1      -7.888   7.776  66.236  1.00  0.00     0.000 HD 
HETATM    3  C   UNL     1      -9.602   8.730  66.555  1.00  0.00    -0.237 A  
HETATM    4  H1  UNL     1      -8.915   6.805  67.100  1.00  0.00     0.000 HD 
HETATM    5  C   UNL     1      -9.537   9.741  65.569  1.00  0.00    -0.282 A  
HETATM    6  C   UNL     1     -10.165  10.976  65.739  1.00  0.00    -0.316 A  
HETATM    7 BR   UNL     1      -8.600   9.454  63.933  1.00  0.00    -0.218 Br 
HETATM    8  C   UNL     1     -10.839  11.231  66.926  1.00  0.00    -0.282 A  
HETATM    9  C   UNL     1     -10.863  10.282  67.942  1.00  0.00    -0.337 A  
HETATM   10 BR   UNL     1     -11.693  12.898  67.180  1.00  0.00    -0.433 Br 
HETATM   11  C   UNL     1     -10.229   9.031  67.784  1.00  0.00    -0.284 A  
ENDROOT
BRANCH  11  12
HETATM   12  C   UNL     1     -10.208   8.099  68.981  1.00  0.00    -0.220 C  
BRANCH  12  13
HETATM   13  N   UNL     1     -11.535   7.950  69.601  1.00  0.00    -0.396 NA 
HETATM   14  H   UNL     1     -12.028   7.137  69.233  1.00  0.00     0.000 HD 
BRANCH  13  15
HETATM   15  C   UNL     1     -11.451   7.906  71.076  1.00  0.00    -0.280 C  
HETATM   16  C   UNL     1     -11.563   9.329  71.657  1.00  0.00    -0.463 C  
HETATM   17  C   UNL     1     -12.957   9.944  71.494  1.00  0.00    -0.523 C  
HETATM   18  C   UNL     1     -14.071   9.020  71.992  1.00  0.00    -0.368 C  
HETATM   19  C   UNL     1     -13.944   7.603  71.437  1.00  0.00    -0.447 C  
HETATM   20  O   UNL     1     -14.025   8.947  73.418  1.00  0.00    -1.236 OA 
HETATM   21  C   UNL     1     -12.550   7.028  71.697  1.00  0.00    -0.419 C  
HETATM   22  H   UNL     1     -14.716   8.374  73.727  1.00  0.00     0.000 HD 
ENDBRANCH  13  15
ENDBRANCH  12  13
ENDBRANCH  11  12
TORSDOF 3
ENDMDL
MODEL       28
REMARK 921   NORMALIZED FREE ENERGY PREDICTED BY IDOCK:   -5.74 KCAL/MOL
REMARK 922        TOTAL FREE ENERGY PREDICTED BY IDOCK:   -7.42 KCAL/MOL
REMARK 923 INTER-LIGAND FREE ENERGY PREDICTED BY IDOCK:   -6.80 KCAL/MOL
REMARK 924 INTRA-LIGAND FREE ENERGY PREDICTED BY IDOCK:   -0.62 KCAL/MOL
REMARK 927      BINDING AFFINITY PREDICTED BY RF-SCORE:    0.00 PKD
ROOT
HETATM    1  N   UNL     1      -7.100  14.433  67.128  1.00  0.00    -0.373 NA 
HETATM    2  H2  UNL     1      -6.593  14.587  68.000  1.00  0.00     0.000 HD 
HETATM    3  C   UNL     1      -7.882  15.577  66.857  1.00  0.00    -0.194 A  
HETATM    4  H1  UNL     1      -7.541  13.513  67.169  1.00  0.00     0.000 HD 
HETATM    5  C   UNL     1      -7.272  16.851  66.800  1.00  0.00    -0.243 A  
HETATM    6  C   UNL     1      -8.020  18.019  66.634  1.00  0.00    -0.278 A  
HETATM    7 BR   UNL     1      -5.379  17.036  66.924  1.00  0.00    -0.176 Br 
HETATM    8  C   UNL     1      -9.403  17.927  66.562  1.00  0.00    -0.280 A  
HETATM    9  C   UNL     1     -10.038  16.695  66.682  1.00  0.00    -0.305 A  
HETATM   10 BR   UNL     1     -10.437  19.495  66.341  1.00  0.00    -0.614 Br 
HETATM   11  C   UNL     1      -9.293  15.508  66.854  1.00  0.00    -0.252 A  
ENDROOT
BRANCH  11  12
HETATM   12  C   UNL     1     -10.066  14.223  67.088  1.00  0.00    -0.254 C  
BRANCH  12  13
HETATM   13  N   UNL     1      -9.646  13.142  66.182  1.00  0.00    -0.402 NA 
HETATM   14  H   UNL     1      -8.767  12.724  66.486  1.00  0.00     0.000 HD 
BRANCH  13  15
HETATM   15  C   UNL     1     -10.701  12.119  66.021  1.00  0.00    -0.273 C  
HETATM   16  C   UNL     1     -12.061  12.796  65.761  1.00  0.00    -0.505 C  
HETATM   17  C   UNL     1     -12.148  13.478  64.392  1.00  0.00    -0.468 C  
HETATM   18  C   UNL     1     -11.726  12.557  63.245  1.00  0.00    -0.398 C  
HETATM   19  C   UNL     1     -10.391  11.866  63.515  1.00  0.00    -0.495 C  
HETATM   20  O   UNL     1     -12.720  11.548  63.057  1.00  0.00    -0.915 OA 
HETATM   21  C   UNL     1     -10.401  11.148  64.867  1.00  0.00    -0.375 C  
HETATM   22  H   UNL     1     -12.459  10.976  62.345  1.00  0.00     0.000 HD 
ENDBRANCH  13  15
ENDBRANCH  12  13
ENDBRANCH  11  12
TORSDOF 3
ENDMDL
MODEL       29
REMARK 921   NORMALIZED FREE ENERGY PREDICTED BY IDOCK:   -5.74 KCAL/MOL
REMARK 922        TOTAL FREE ENERGY PREDICTED BY IDOCK:   -7.41 KCAL/MOL
REMARK 923 INTER-LIGAND FREE ENERGY PREDICTED BY IDOCK:   -6.93 KCAL/MOL
REMARK 924 INTRA-LIGAND FREE ENERGY PREDICTED BY IDOCK:   -0.49 KCAL/MOL
REMARK 927      BINDING AFFINITY PREDICTED BY RF-SCORE:    0.00 PKD
ROOT
HETATM    1  N   UNL     1     -10.559  15.595  64.930  1.00  0.00    -0.582 NA 
HETATM    2  H2  UNL     1     -11.462  15.905  64.572  1.00  0.00     0.000 HD 
HETATM    3  C   UNL     1     -10.782  14.563  65.869  1.00  0.00    -0.305 A  
HETATM    4  H1  UNL     1     -10.017  16.417  65.197  1.00  0.00     0.000 HD 
HETATM    5  C   UNL     1     -11.533  13.424  65.500  1.00  0.00    -0.305 A  
HETATM    6  C   UNL     1     -11.862  12.429  66.423  1.00  0.00    -0.421 A  
HETATM    7 BR   UNL     1     -12.118  13.177  63.703  1.00  0.00    -0.545 Br 
HETATM    8  C   UNL     1     -11.473  12.583  67.747  1.00  0.00    -0.321 A  
HETATM    9  C   UNL     1     -10.792  13.725  68.155  1.00  0.00    -0.261 A  
HETATM   10 BR   UNL     1     -11.911  11.251  69.015  1.00  0.00    -0.412 Br 
HETATM   11  C   UNL     1     -10.456  14.740  67.233  1.00  0.00    -0.264 A  
ENDROOT
BRANCH  11  12
HETATM   12  C   UNL     1      -9.813  16.000  67.780  1.00  0.00    -0.231 C  
BRANCH  12  13
HETATM   13  N   UNL     1     -10.529  17.219  67.370  1.00  0.00    -0.347 NA 
HETATM   14  H   UNL     1     -11.537  17.068  67.348  1.00  0.00     0.000 HD 
BRANCH  13  15
HETATM   15  C   UNL     1     -10.178  18.375  68.222  1.00  0.00    -0.384 C  
HETATM   16  C   UNL     1      -8.646  18.506  68.335  1.00  0.00    -0.355 C  
HETATM   17  C   UNL     1      -7.974  18.933  67.026  1.00  0.00    -0.262 C  
HETATM   18  C   UNL     1      -8.622  20.175  66.409  1.00  0.00    -0.233 C  
HETATM   19  C   UNL     1     -10.142  20.056  66.322  1.00  0.00    -0.603 C  
HETATM   20  O   UNL     1      -8.309  21.319  67.205  1.00  0.00    -0.595 OA 
HETATM   21  C   UNL     1     -10.749  19.695  67.680  1.00  0.00    -0.500 C  
HETATM   22  H   UNL     1      -8.711  22.090  66.822  1.00  0.00     0.000 HD 
ENDBRANCH  13  15
ENDBRANCH  12  13
ENDBRANCH  11  12
TORSDOF 3
ENDMDL
MODEL       30
REMARK 921   NORMALIZED FREE ENERGY PREDICTED BY IDOCK:   -5.72 KCAL/MOL
REMARK 922        TOTAL FREE ENERGY PREDICTED BY IDOCK:   -7.39 KCAL/MOL
REMARK 923 INTER-LIGAND FREE ENERGY PREDICTED BY IDOCK:   -6.72 KCAL/MOL
REMARK 924 INTRA-LIGAND FREE ENERGY PREDICTED BY IDOCK:   -0.67 KCAL/MOL
REMARK 927      BINDING AFFINITY PREDICTED BY RF-SCORE:    0.00 PKD
ROOT
HETATM    1  N   UNL     1      -8.968  15.757  65.998  1.00  0.00    -0.329 NA 
HETATM    2  H2  UNL     1      -8.268  16.440  66.288  1.00  0.00     0.000 HD 
HETATM    3  C   UNL     1      -9.867  15.555  67.067  1.00  0.00    -0.232 A  
HETATM    4  H1  UNL     1      -8.487  14.959  65.580  1.00  0.00     0.000 HD 
HETATM    5  C   UNL     1     -10.533  16.660  67.647  1.00  0.00    -0.320 A  
HETATM    6  C   UNL     1     -11.353  16.519  68.769  1.00  0.00    -0.221 A  
HETATM    7 BR   UNL     1     -10.361  18.406  66.903  1.00  0.00    -0.426 Br 
HETATM    8  C   UNL     1     -11.485  15.267  69.353  1.00  0.00    -0.315 A  
HETATM    9  C   UNL     1     -10.790  14.174  68.847  1.00  0.00    -0.276 A  
HETATM   10 BR   UNL     1     -12.586  15.054  70.875  1.00  0.00    -0.460 Br 
HETATM   11  C   UNL     1      -9.956  14.303  67.715  1.00  0.00    -0.227 A  
ENDROOT
BRANCH  11  12
HETATM   12  C   UNL     1      -9.148  13.088  67.297  1.00  0.00    -0.209 C  
BRANCH  12  13
HETATM   13  N   UNL     1      -9.348  12.742  65.880  1.00  0.00    -0.458 NA 
HETATM   14  H   UNL     1      -8.464  12.512  65.426  1.00  0.00     0.000 HD 
BRANCH  13  15
HETATM   15  C   UNL     1     -10.337  11.656  65.714  1.00  0.00    -0.249 C  
HETATM   16  C   UNL     1     -11.768  12.227  65.779  1.00  0.00    -0.445 C  
HETATM   17  C   UNL     1     -12.130  13.097  64.571  1.00  0.00    -0.462 C  
HETATM   18  C   UNL     1     -11.837  12.407  63.237  1.00  0.00    -0.402 C  
HETATM   19  C   UNL     1     -10.429  11.818  63.183  1.00  0.00    -0.359 C  
HETATM   20  O   UNL     1     -12.772  11.345  63.036  1.00  0.00    -0.903 OA 
HETATM   21  C   UNL     1     -10.162  10.906  64.383  1.00  0.00    -0.423 C  
HETATM   22  H   UNL     1     -12.590  10.916  62.209  1.00  0.00     0.000 HD 
ENDBRANCH  13  15
ENDBRANCH  12  13
ENDBRANCH  11  12
TORSDOF 3
ENDMDL
MODEL       31
REMARK 921   NORMALIZED FREE ENERGY PREDICTED BY IDOCK:   -5.71 KCAL/MOL
REMARK 922        TOTAL FREE ENERGY PREDICTED BY IDOCK:   -7.38 KCAL/MOL
REMARK 923 INTER-LIGAND FREE ENERGY PREDICTED BY IDOCK:   -6.81 KCAL/MOL
REMARK 924 INTRA-LIGAND FREE ENERGY PREDICTED BY IDOCK:   -0.57 KCAL/MOL
REMARK 927      BINDING AFFINITY PREDICTED BY RF-SCORE:    0.00 PKD
ROOT
HETATM    1  N   UNL     1     -11.795  10.344  68.550  1.00  0.00    -0.735 NA 
HETATM    2  H2  UNL     1     -10.798  10.266  68.350  1.00  0.00     0.000 HD 
HETATM    3  C   UNL     1     -12.024  11.573  69.206  1.00  0.00    -0.330 A  
HETATM    4  H1  UNL     1     -12.107   9.472  68.978  1.00  0.00     0.000 HD 
HETATM    5  C   UNL     1     -11.591  12.781  68.614  1.00  0.00    -0.314 A  
HETATM    6  C   UNL     1     -11.708  14.007  69.272  1.00  0.00    -0.372 A  
HETATM    7 BR   UNL     1     -10.842  12.798  66.861  1.00  0.00    -0.291 Br 
HETATM    8  C   UNL     1     -12.228  14.033  70.558  1.00  0.00    -0.365 A  
HETATM    9  C   UNL     1     -12.600  12.854  71.195  1.00  0.00    -0.373 A  
HETATM   10 BR   UNL     1     -12.391  15.682  71.471  1.00  0.00    -0.539 Br 
HETATM   11  C   UNL     1     -12.485  11.608  70.542  1.00  0.00    -0.344 A  
ENDROOT
BRANCH  11  12
HETATM   12  C   UNL     1     -12.807  10.362  71.345  1.00  0.00    -0.452 C  
BRANCH  12  13
HETATM   13  N   UNL     1     -11.621   9.524  71.583  1.00  0.00    -0.393 NA 
HETATM   14  H   UNL     1     -10.876  10.055  72.034  1.00  0.00     0.000 HD 
BRANCH  13  15
HETATM   15  C   UNL     1     -11.954   8.305  72.351  1.00  0.00    -0.384 C  
HETATM   16  C   UNL     1     -12.586   7.249  71.423  1.00  0.00    -0.423 C  
HETATM   17  C   UNL     1     -11.597   6.658  70.413  1.00  0.00    -0.457 C  
HETATM   18  C   UNL     1     -10.307   6.161  71.070  1.00  0.00    -0.210 C  
HETATM   19  C   UNL     1      -9.696   7.198  72.011  1.00  0.00    -0.173 C  
HETATM   20  O   UNL     1     -10.585   4.982  71.827  1.00  0.00    -0.201 OA 
HETATM   21  C   UNL     1     -10.721   7.692  73.035  1.00  0.00    -0.449 C  
HETATM   22  H   UNL     1      -9.785   4.673  72.236  1.00  0.00     0.000 HD 
ENDBRANCH  13  15
ENDBRANCH  12  13
ENDBRANCH  11  12
TORSDOF 3
ENDMDL
MODEL       32
REMARK 921   NORMALIZED FREE ENERGY PREDICTED BY IDOCK:   -5.69 KCAL/MOL
REMARK 922        TOTAL FREE ENERGY PREDICTED BY IDOCK:   -7.35 KCAL/MOL
REMARK 923 INTER-LIGAND FREE ENERGY PREDICTED BY IDOCK:   -6.97 KCAL/MOL
REMARK 924 INTRA-LIGAND FREE ENERGY PREDICTED BY IDOCK:   -0.38 KCAL/MOL
REMARK 927      BINDING AFFINITY PREDICTED BY RF-SCORE:    0.00 PKD
ROOT
HETATM    1  N   UNL     1     -11.472  12.222  68.280  1.00  0.00    -0.291 NA 
HETATM    2  H2  UNL     1     -12.297  11.683  68.017  1.00  0.00     0.000 HD 
HETATM    3  C   UNL     1     -11.816  13.068  69.357  1.00  0.00    -0.322 A  
HETATM    4  H1  UNL     1     -11.061  12.618  67.434  1.00  0.00     0.000 HD 
HETATM    5  C   UNL     1     -12.385  12.521  70.530  1.00  0.00    -0.262 A  
HETATM    6  C   UNL     1     -12.831  13.330  71.578  1.00  0.00    -0.419 A  
HETATM    7 BR   UNL     1     -12.551  10.636  70.750  1.00  0.00    -0.493 Br 
HETATM    8  C   UNL     1     -12.747  14.709  71.446  1.00  0.00    -0.333 A  
HETATM    9  C   UNL     1     -12.254  15.279  70.278  1.00  0.00    -0.403 A  
HETATM   10 BR   UNL     1     -13.349  15.824  72.850  1.00  0.00    -0.668 Br 
HETATM   11  C   UNL     1     -11.803  14.474  69.210  1.00  0.00    -0.361 A  
ENDROOT
BRANCH  11  12
HETATM   12  C   UNL     1     -11.386  15.174  67.930  1.00  0.00    -0.338 C  
BRANCH  12  13
HETATM   13  N   UNL     1     -11.161  16.615  68.126  1.00  0.00    -0.340 NA 
HETATM   14  H   UNL     1     -11.165  16.860  69.116  1.00  0.00     0.000 HD 
BRANCH  13  15
HETATM   15  C   UNL     1      -9.920  17.073  67.465  1.00  0.00    -0.274 C  
HETATM   16  C   UNL     1     -10.262  17.904  66.213  1.00  0.00    -0.363 C  
HETATM   17  C   UNL     1     -10.899  19.259  66.539  1.00  0.00    -0.391 C  
HETATM   18  C   UNL     1     -10.095  20.057  67.568  1.00  0.00    -0.425 C  
HETATM   19  C   UNL     1      -9.733  19.224  68.796  1.00  0.00    -0.510 C  
HETATM   20  O   UNL     1      -8.883  20.518  66.969  1.00  0.00    -0.483 OA 
HETATM   21  C   UNL     1      -9.040  17.920  68.398  1.00  0.00    -0.292 C  
HETATM   22  H   UNL     1      -8.383  21.013  67.607  1.00  0.00     0.000 HD 
ENDBRANCH  13  15
ENDBRANCH  12  13
ENDBRANCH  11  12
TORSDOF 3
ENDMDL
MODEL       33
REMARK 921   NORMALIZED FREE ENERGY PREDICTED BY IDOCK:   -5.59 KCAL/MOL
REMARK 922        TOTAL FREE ENERGY PREDICTED BY IDOCK:   -7.23 KCAL/MOL
REMARK 923 INTER-LIGAND FREE ENERGY PREDICTED BY IDOCK:   -6.66 KCAL/MOL
REMARK 924 INTRA-LIGAND FREE ENERGY PREDICTED BY IDOCK:   -0.57 KCAL/MOL
REMARK 927      BINDING AFFINITY PREDICTED BY RF-SCORE:    0.00 PKD
ROOT
HETATM    1  N   UNL     1      -9.278  10.893  69.203  1.00  0.00    -0.371 NA 
HETATM    2  H2  UNL     1      -9.001  10.143  68.569  1.00  0.00     0.000 HD 
HETATM    3  C   UNL     1     -10.383  10.451  69.963  1.00  0.00    -0.128 A  
HETATM    4  H1  UNL     1      -9.341  11.760  68.669  1.00  0.00     0.000 HD 
HETATM    5  C   UNL     1     -10.296   9.250  70.702  1.00  0.00    -0.263 A  
HETATM    6  C   UNL     1     -11.395   8.725  71.386  1.00  0.00    -0.364 A  
HETATM    7 BR   UNL     1      -8.653   8.292  70.823  1.00  0.00    -0.163 Br 
HETATM    8  C   UNL     1     -12.615   9.382  71.304  1.00  0.00    -0.325 A  
HETATM    9  C   UNL     1     -12.750  10.529  70.530  1.00  0.00    -0.385 A  
HETATM   10 BR   UNL     1     -14.118   8.688  72.218  1.00  0.00    -0.461 Br 
HETATM   11  C   UNL     1     -11.648  11.069  69.832  1.00  0.00    -0.416 A  
ENDROOT
BRANCH  11  12
HETATM   12  C   UNL     1     -11.905  12.256  68.923  1.00  0.00    -0.303 C  
BRANCH  12  13
HETATM   13  N   UNL     1     -11.979  11.872  67.504  1.00  0.00    -0.588 NA 
HETATM   14  H   UNL     1     -12.940  11.687  67.218  1.00  0.00     0.000 HD 
BRANCH  13  15
HETATM   15  C   UNL     1     -11.341  12.878  66.628  1.00  0.00    -0.317 C  
HETATM   16  C   UNL     1     -10.130  12.260  65.903  1.00  0.00    -0.272 C  
HETATM   17  C   UNL     1     -10.519  11.211  64.855  1.00  0.00    -0.372 C  
HETATM   18  C   UNL     1     -11.586  11.718  63.882  1.00  0.00    -0.377 C  
HETATM   19  C   UNL     1     -12.774  12.354  64.600  1.00  0.00    -0.372 C  
HETATM   20  O   UNL     1     -11.011  12.698  63.016  1.00  0.00    -0.650 OA 
HETATM   21  C   UNL     1     -12.315  13.438  65.579  1.00  0.00    -0.528 C  
HETATM   22  H   UNL     1     -11.673  13.012  62.412  1.00  0.00     0.000 HD 
ENDBRANCH  13  15
ENDBRANCH  12  13
ENDBRANCH  11  12
TORSDOF 3
ENDMDL
MODEL       34
REMARK 921   NORMALIZED FREE ENERGY PREDICTED BY IDOCK:   -5.54 KCAL/MOL
REMARK 922        TOTAL FREE ENERGY PREDICTED BY IDOCK:   -7.17 KCAL/MOL
REMARK 923 INTER-LIGAND FREE ENERGY PREDICTED BY IDOCK:   -6.78 KCAL/MOL
REMARK 924 INTRA-LIGAND FREE ENERGY PREDICTED BY IDOCK:   -0.39 KCAL/MOL
REMARK 927      BINDING AFFINITY PREDICTED BY RF-SCORE:    0.00 PKD
ROOT
HETATM    1  N   UNL     1     -12.131  10.939  68.187  1.00  0.00    -0.790 NA 
HETATM    2  H2  UNL     1     -12.036  10.281  68.960  1.00  0.00     0.000 HD 
HETATM    3  C   UNL     1     -10.906  11.625  68.029  1.00  0.00    -0.215 A  
HETATM    4  H1  UNL     1     -12.996  11.466  68.315  1.00  0.00     0.000 HD 
HETATM    5  C   UNL     1      -9.708  10.896  67.851  1.00  0.00    -0.165 A  
HETATM    6  C   UNL     1      -8.464  11.527  67.791  1.00  0.00    -0.137 A  
HETATM    7 BR   UNL     1      -9.735   9.000  67.659  1.00  0.00    -0.212 Br 
HETATM    8  C   UNL     1      -8.401  12.905  67.949  1.00  0.00    -0.170 A  
HETATM    9  C   UNL     1      -9.554  13.643  68.193  1.00  0.00    -0.221 A  
HETATM   10 BR   UNL     1      -6.727  13.782  67.876  1.00  0.00    -0.179 Br 
HETATM   11  C   UNL     1     -10.818  13.016  68.259  1.00  0.00    -0.267 A  
ENDROOT
BRANCH  11  12
HETATM   12  C   UNL     1     -12.009  13.876  68.638  1.00  0.00    -0.366 C  
BRANCH  12  13
HETATM   13  N   UNL     1     -12.196  13.964  70.096  1.00  0.00    -0.345 NA 
HETATM   14  H   UNL     1     -11.308  13.874  70.590  1.00  0.00     0.000 HD 
BRANCH  13  15
HETATM   15  C   UNL     1     -12.905  15.202  70.484  1.00  0.00    -0.348 C  
HETATM   16  C   UNL     1     -14.129  14.861  71.357  1.00  0.00    -0.552 C  
HETATM   17  C   UNL     1     -13.756  14.327  72.744  1.00  0.00    -0.456 C  
HETATM   18  C   UNL     1     -12.753  15.224  73.472  1.00  0.00    -0.559 C  
HETATM   19  C   UNL     1     -11.553  15.584  72.597  1.00  0.00    -0.503 C  
HETATM   20  O   UNL     1     -13.398  16.437  73.864  1.00  0.00    -0.898 OA 
HETATM   21  C   UNL     1     -11.999  16.175  71.258  1.00  0.00    -0.402 C  
HETATM   22  H   UNL     1     -12.775  16.994  74.316  1.00  0.00     0.000 HD 
ENDBRANCH  13  15
ENDBRANCH  12  13
ENDBRANCH  11  12
TORSDOF 3
ENDMDL
MODEL       35
REMARK 921   NORMALIZED FREE ENERGY PREDICTED BY IDOCK:   -5.51 KCAL/MOL
REMARK 922        TOTAL FREE ENERGY PREDICTED BY IDOCK:   -7.14 KCAL/MOL
REMARK 923 INTER-LIGAND FREE ENERGY PREDICTED BY IDOCK:   -6.61 KCAL/MOL
REMARK 924 INTRA-LIGAND FREE ENERGY PREDICTED BY IDOCK:   -0.53 KCAL/MOL
REMARK 927      BINDING AFFINITY PREDICTED BY RF-SCORE:    0.00 PKD
ROOT
HETATM    1  N   UNL     1     -12.408  11.541  70.925  1.00  0.00    -0.382 NA 
HETATM    2  H2  UNL     1     -11.716  11.611  71.671  1.00  0.00     0.000 HD 
HETATM    3  C   UNL     1     -11.847  10.800  69.862  1.00  0.00    -0.335 A  
HETATM    4  H1  UNL     1     -12.791  12.471  70.751  1.00  0.00     0.000 HD 
HETATM    5  C   UNL     1     -11.316   9.512  70.103  1.00  0.00    -0.199 A  
HETATM    6  C   UNL     1     -10.663   8.786  69.105  1.00  0.00    -0.150 A  
HETATM    7 BR   UNL     1     -11.491   8.686  71.812  1.00  0.00    -0.420 Br 
HETATM    8  C   UNL     1     -10.497   9.363  67.853  1.00  0.00    -0.243 A  
HETATM    9  C   UNL     1     -10.947  10.655  67.604  1.00  0.00    -0.370 A  
HETATM   10 BR   UNL     1      -9.611   8.401  66.487  1.00  0.00    -0.313 Br 
HETATM   11  C   UNL     1     -11.607  11.400  68.606  1.00  0.00    -0.384 A  
ENDROOT
BRANCH  11  12
HETATM   12  C   UNL     1     -11.966  12.840  68.287  1.00  0.00    -0.229 C  
BRANCH  12  13
HETATM   13  N   UNL     1     -11.008  13.466  67.362  1.00  0.00    -0.268 NA 
HETATM   14  H   UNL     1     -10.490  12.765  66.833  1.00  0.00     0.000 HD 
BRANCH  13  15
HETATM   15  C   UNL     1     -11.666  14.439  66.465  1.00  0.00    -0.391 C  
HETATM   16  C   UNL     1     -10.708  14.846  65.328  1.00  0.00    -0.409 C  
HETATM   17  C   UNL     1     -10.434  13.715  64.331  1.00  0.00    -0.322 C  
HETATM   18  C   UNL     1     -11.717  13.065  63.808  1.00  0.00    -0.485 C  
HETATM   19  C   UNL     1     -12.678  12.687  64.934  1.00  0.00    -0.450 C  
HETATM   20  O   UNL     1     -12.389  13.976  62.936  1.00  0.00    -1.011 OA 
HETATM   21  C   UNL     1     -12.960  13.882  65.848  1.00  0.00    -0.252 C  
HETATM   22  H   UNL     1     -13.185  13.573  62.611  1.00  0.00     0.000 HD 
ENDBRANCH  13  15
ENDBRANCH  12  13
ENDBRANCH  11  12
TORSDOF 3
ENDMDL
MODEL       36
REMARK 921   NORMALIZED FREE ENERGY PREDICTED BY IDOCK:   -5.48 KCAL/MOL
REMARK 922        TOTAL FREE ENERGY PREDICTED BY IDOCK:   -7.11 KCAL/MOL
REMARK 923 INTER-LIGAND FREE ENERGY PREDICTED BY IDOCK:   -6.46 KCAL/MOL
REMARK 924 INTRA-LIGAND FREE ENERGY PREDICTED BY IDOCK:   -0.64 KCAL/MOL
REMARK 927      BINDING AFFINITY PREDICTED BY RF-SCORE:    0.00 PKD
ROOT
HETATM    1  N   UNL     1      -9.630  13.804  68.841  1.00  0.00    -0.412 NA 
HETATM    2  H2  UNL     1      -9.138  12.941  69.073  1.00  0.00     0.000 HD 
HETATM    3  C   UNL     1     -10.253  13.638  67.584  1.00  0.00    -0.239 A  
HETATM    4  H1  UNL     1      -8.997  14.589  68.995  1.00  0.00     0.000 HD 
HETATM    5  C   UNL     1     -11.130  12.550  67.370  1.00  0.00    -0.272 A  
HETATM    6  C   UNL     1     -11.690  12.291  66.117  1.00  0.00    -0.440 A  
HETATM    7 BR   UNL     1     -11.616  11.387  68.800  1.00  0.00    -0.408 Br 
HETATM    8  C   UNL     1     -11.343  13.102  65.045  1.00  0.00    -0.299 A  
HETATM    9  C   UNL     1     -10.431  14.139  65.208  1.00  0.00    -0.402 A  
HETATM   10 BR   UNL     1     -12.084  12.768  63.338  1.00  0.00    -0.529 Br 
HETATM   11  C   UNL     1      -9.856  14.410  66.469  1.00  0.00    -0.298 A  
ENDROOT
BRANCH  11  12
HETATM   12  C   UNL     1      -8.788  15.485  66.538  1.00  0.00    -0.313 C  
BRANCH  12  13
HETATM   13  N   UNL     1      -8.952  16.366  67.705  1.00  0.00    -0.197 NA 
HETATM   14  H   UNL     1      -8.070  16.807  67.964  1.00  0.00     0.000 HD 
BRANCH  13  15
HETATM   15  C   UNL     1     -10.014  17.372  67.490  1.00  0.00    -0.298 C  
HETATM   16  C   UNL     1     -10.091  18.328  68.696  1.00  0.00    -0.407 C  
HETATM   17  C   UNL     1      -8.876  19.254  68.817  1.00  0.00    -0.387 C  
HETATM   18  C   UNL     1      -8.560  19.986  67.510  1.00  0.00    -0.340 C  
HETATM   19  C   UNL     1      -8.511  19.041  66.311  1.00  0.00    -0.289 C  
HETATM   20  O   UNL     1      -9.567  20.969  67.262  1.00  0.00    -0.653 OA 
HETATM   21  C   UNL     1      -9.785  18.199  66.215  1.00  0.00    -0.280 C  
HETATM   22  H   UNL     1      -9.371  21.423  66.451  1.00  0.00     0.000 HD 
ENDBRANCH  13  15
ENDBRANCH  12  13
ENDBRANCH  11  12
TORSDOF 3
ENDMDL
MODEL       37
REMARK 921   NORMALIZED FREE ENERGY PREDICTED BY IDOCK:   -5.45 KCAL/MOL
REMARK 922        TOTAL FREE ENERGY PREDICTED BY IDOCK:   -7.07 KCAL/MOL
REMARK 923 INTER-LIGAND FREE ENERGY PREDICTED BY IDOCK:   -6.42 KCAL/MOL
REMARK 924 INTRA-LIGAND FREE ENERGY PREDICTED BY IDOCK:   -0.65 KCAL/MOL
REMARK 927      BINDING AFFINITY PREDICTED BY RF-SCORE:    0.00 PKD
ROOT
HETATM    1  N   UNL     1     -12.350  15.554  69.425  1.00  0.00    -0.595 NA 
HETATM    2  H2  UNL     1     -11.828  16.084  70.122  1.00  0.00     0.000 HD 
HETATM    3  C   UNL     1     -12.427  14.210  69.851  1.00  0.00    -0.260 A  
HETATM    4  H1  UNL     1     -11.973  15.773  68.502  1.00  0.00     0.000 HD 
HETATM    5  C   UNL     1     -12.949  13.904  71.129  1.00  0.00    -0.318 A  
HETATM    6  C   UNL     1     -12.952  12.601  71.631  1.00  0.00    -0.400 A  
HETATM    7 BR   UNL     1     -13.703  15.266  72.230  1.00  0.00    -0.676 Br 
HETATM    8  C   UNL     1     -12.392  11.585  70.869  1.00  0.00    -0.359 A  
HETATM    9  C   UNL     1     -11.810  11.864  69.637  1.00  0.00    -0.406 A  
HETATM   10 BR   UNL     1     -12.380   9.814  71.530  1.00  0.00    -0.522 Br 
HETATM   11  C   UNL     1     -11.798  13.178  69.120  1.00  0.00    -0.364 A  
ENDROOT
BRANCH  11  12
HETATM   12  C   UNL     1     -11.045  13.415  67.823  1.00  0.00    -0.268 C  
BRANCH  12  13
HETATM   13  N   UNL     1      -9.826  14.216  68.019  1.00  0.00    -0.217 NA 
HETATM   14  H   UNL     1      -9.144  13.718  68.591  1.00  0.00     0.000 HD 
BRANCH  13  15
HETATM   15  C   UNL     1      -9.239  14.646  66.733  1.00  0.00    -0.264 C  
HETATM   16  C   UNL     1     -10.231  15.547  65.971  1.00  0.00    -0.349 C  
HETATM   17  C   UNL     1     -10.443  16.913  66.632  1.00  0.00    -0.257 C  
HETATM   18  C   UNL     1      -9.126  17.628  66.943  1.00  0.00    -0.253 C  
HETATM   19  C   UNL     1      -8.133  16.727  67.674  1.00  0.00    -0.188 C  
HETATM   20  O   UNL     1      -8.521  18.060  65.723  1.00  0.00    -0.499 OA 
HETATM   21  C   UNL     1      -7.919  15.412  66.921  1.00  0.00    -0.230 C  
HETATM   22  H   UNL     1      -7.704  18.504  65.915  1.00  0.00     0.000 HD 
ENDBRANCH  13  15
ENDBRANCH  12  13
ENDBRANCH  11  12
TORSDOF 3
ENDMDL
MODEL       38
REMARK 921   NORMALIZED FREE ENERGY PREDICTED BY IDOCK:   -5.44 KCAL/MOL
REMARK 922        TOTAL FREE ENERGY PREDICTED BY IDOCK:   -7.06 KCAL/MOL
REMARK 923 INTER-LIGAND FREE ENERGY PREDICTED BY IDOCK:   -6.62 KCAL/MOL
REMARK 924 INTRA-LIGAND FREE ENERGY PREDICTED BY IDOCK:   -0.44 KCAL/MOL
REMARK 927      BINDING AFFINITY PREDICTED BY RF-SCORE:    0.00 PKD
ROOT
HETATM    1  N   UNL     1     -10.685  17.150  67.844  1.00  0.00    -0.372 NA 
HETATM    2  H2  UNL     1     -11.403  17.484  67.201  1.00  0.00     0.000 HD 
HETATM    3  C   UNL     1      -9.420  17.462  67.301  1.00  0.00    -0.251 A  
HETATM    4  H1  UNL     1     -10.905  16.188  68.102  1.00  0.00     0.000 HD 
HETATM    5  C   UNL     1      -9.115  18.796  66.944  1.00  0.00    -0.300 A  
HETATM    6  C   UNL     1      -7.915  19.133  66.313  1.00  0.00    -0.312 A  
HETATM    7 BR   UNL     1     -10.327  20.214  67.331  1.00  0.00    -0.424 Br 
HETATM    8  C   UNL     1      -7.016  18.125  65.994  1.00  0.00    -0.292 A  
HETATM    9  C   UNL     1      -7.316  16.796  66.272  1.00  0.00    -0.186 A  
HETATM   10 BR   UNL     1      -5.387  18.557  65.136  1.00  0.00    -0.215 Br 
HETATM   11  C   UNL     1      -8.527  16.441  66.906  1.00  0.00    -0.254 A  
ENDROOT
BRANCH  11  12
HETATM   12  C   UNL     1      -8.825  14.962  67.072  1.00  0.00    -0.232 C  
BRANCH  12  13
HETATM   13  N   UNL     1      -9.393  14.364  65.852  1.00  0.00    -0.530 NA 
HETATM   14  H   UNL     1      -8.664  13.963  65.263  1.00  0.00     0.000 HD 
BRANCH  13  15
HETATM   15  C   UNL     1     -10.441  13.370  66.164  1.00  0.00    -0.295 C  
HETATM   16  C   UNL     1     -11.836  14.020  66.062  1.00  0.00    -0.401 C  
HETATM   17  C   UNL     1     -12.235  14.379  64.627  1.00  0.00    -0.479 C  
HETATM   18  C   UNL     1     -12.064  13.207  63.657  1.00  0.00    -0.513 C  
HETATM   19  C   UNL     1     -10.692  12.547  63.777  1.00  0.00    -0.483 C  
HETATM   20  O   UNL     1     -13.059  12.219  63.926  1.00  0.00    -0.772 OA 
HETATM   21  C   UNL     1     -10.390  12.154  65.225  1.00  0.00    -0.310 C  
HETATM   22  H   UNL     1     -12.953  11.492  63.324  1.00  0.00     0.000 HD 
ENDBRANCH  13  15
ENDBRANCH  12  13
ENDBRANCH  11  12
TORSDOF 3
ENDMDL
MODEL       39
REMARK 921   NORMALIZED FREE ENERGY PREDICTED BY IDOCK:   -5.39 KCAL/MOL
REMARK 922        TOTAL FREE ENERGY PREDICTED BY IDOCK:   -7.00 KCAL/MOL
REMARK 923 INTER-LIGAND FREE ENERGY PREDICTED BY IDOCK:   -6.40 KCAL/MOL
REMARK 924 INTRA-LIGAND FREE ENERGY PREDICTED BY IDOCK:   -0.60 KCAL/MOL
REMARK 927      BINDING AFFINITY PREDICTED BY RF-SCORE:    0.00 PKD
ROOT
HETATM    1  N   UNL     1      -9.138   9.647  67.832  1.00  0.00    -0.125 NA 
HETATM    2  H2  UNL     1      -8.156   9.901  67.731  1.00  0.00     0.000 HD 
HETATM    3  C   UNL     1      -9.878  10.318  66.834  1.00  0.00    -0.197 A  
HETATM    4  H1  UNL     1      -9.400   9.749  68.813  1.00  0.00     0.000 HD 
HETATM    5  C   UNL     1      -9.517  10.177  65.474  1.00  0.00    -0.230 A  
HETATM    6  C   UNL     1     -10.156  10.898  64.464  1.00  0.00    -0.404 A  
HETATM    7 BR   UNL     1      -8.143   8.966  64.947  1.00  0.00    -0.153 Br 
HETATM    8  C   UNL     1     -11.147  11.807  64.810  1.00  0.00    -0.296 A  
HETATM    9  C   UNL     1     -11.479  12.017  66.143  1.00  0.00    -0.401 A  
HETATM   10 BR   UNL     1     -12.024  12.798  63.459  1.00  0.00    -0.630 Br 
HETATM   11  C   UNL     1     -10.838  11.297  67.175  1.00  0.00    -0.321 A  
ENDROOT
BRANCH  11  12
HETATM   12  C   UNL     1     -11.179  11.667  68.606  1.00  0.00    -0.250 C  
BRANCH  12  13
HETATM   13  N   UNL     1     -11.898  10.592  69.308  1.00  0.00    -0.493 NA 
HETATM   14  H   UNL     1     -11.748   9.689  68.857  1.00  0.00     0.000 HD 
BRANCH  13  15
HETATM   15  C   UNL     1     -11.547  10.541  70.743  1.00  0.00    -0.338 C  
HETATM   16  C   UNL     1     -12.826  10.448  71.599  1.00  0.00    -0.579 C  
HETATM   17  C   UNL     1     -13.553   9.106  71.461  1.00  0.00    -0.406 C  
HETATM   18  C   UNL     1     -12.624   7.908  71.667  1.00  0.00    -0.321 C  
HETATM   19  C   UNL     1     -11.345   8.014  70.839  1.00  0.00    -0.291 C  
HETATM   20  O   UNL     1     -12.257   7.823  73.045  1.00  0.00    -0.566 OA 
HETATM   21  C   UNL     1     -10.637   9.349  71.080  1.00  0.00    -0.400 C  
HETATM   22  H   UNL     1     -11.680   7.079  73.173  1.00  0.00     0.000 HD 
ENDBRANCH  13  15
ENDBRANCH  12  13
ENDBRANCH  11  12
TORSDOF 3
ENDMDL
MODEL       40
REMARK 921   NORMALIZED FREE ENERGY PREDICTED BY IDOCK:   -5.33 KCAL/MOL
REMARK 922        TOTAL FREE ENERGY PREDICTED BY IDOCK:   -6.93 KCAL/MOL
REMARK 923 INTER-LIGAND FREE ENERGY PREDICTED BY IDOCK:   -6.48 KCAL/MOL
REMARK 924 INTRA-LIGAND FREE ENERGY PREDICTED BY IDOCK:   -0.45 KCAL/MOL
REMARK 927      BINDING AFFINITY PREDICTED BY RF-SCORE:    0.00 PKD
ROOT
HETATM    1  N   UNL     1     -11.814  10.462  68.634  1.00  0.00    -0.707 NA 
HETATM    2  H2  UNL     1     -10.810  10.550  68.478  1.00  0.00     0.000 HD 
HETATM    3  C   UNL     1     -12.203  11.422  69.594  1.00  0.00    -0.249 A  
HETATM    4  H1  UNL     1     -12.033   9.477  68.783  1.00  0.00     0.000 HD 
HETATM    5  C   UNL     1     -11.900  12.788  69.388  1.00  0.00    -0.300 A  
HETATM    6  C   UNL     1     -12.177  13.757  70.355  1.00  0.00    -0.433 A  
HETATM    7 BR   UNL     1     -11.114  13.381  67.756  1.00  0.00    -0.306 Br 
HETATM    8  C   UNL     1     -12.729  13.362  71.565  1.00  0.00    -0.293 A  
HETATM    9  C   UNL     1     -12.977  12.018  71.824  1.00  0.00    -0.445 A  
HETATM   10 BR   UNL     1     -13.109  14.656  72.890  1.00  0.00    -0.631 Br 
HETATM   11  C   UNL     1     -12.698  11.028  70.857  1.00  0.00    -0.452 A  
ENDROOT
BRANCH  11  12
HETATM   12  C   UNL     1     -12.893   9.578  71.260  1.00  0.00    -0.333 C  
BRANCH  12  13
HETATM   13  N   UNL     1     -11.913   9.139  72.268  1.00  0.00    -0.280 NA 
HETATM   14  H   UNL     1     -12.369   8.662  73.045  1.00  0.00     0.000 HD 
BRANCH  13  15
HETATM   15  C   UNL     1     -10.849   8.304  71.672  1.00  0.00    -0.256 C  
HETATM   16  C   UNL     1      -9.775   7.978  72.729  1.00  0.00    -0.348 C  
HETATM   17  C   UNL     1     -10.270   7.028  73.825  1.00  0.00    -0.401 C  
HETATM   18  C   UNL     1     -10.933   5.770  73.260  1.00  0.00    -0.253 C  
HETATM   19  C   UNL     1     -11.978   6.092  72.193  1.00  0.00    -0.314 C  
HETATM   20  O   UNL     1      -9.938   4.933  72.670  1.00  0.00    -0.156 OA 
HETATM   21  C   UNL     1     -11.395   6.987  71.097  1.00  0.00    -0.319 C  
HETATM   22  H   UNL     1     -10.349   4.152  72.319  1.00  0.00     0.000 HD 
ENDBRANCH  13  15
ENDBRANCH  12  13
ENDBRANCH  11  12
TORSDOF 3
ENDMDL
MODEL       41
REMARK 921   NORMALIZED FREE ENERGY PREDICTED BY IDOCK:   -5.31 KCAL/MOL
REMARK 922        TOTAL FREE ENERGY PREDICTED BY IDOCK:   -6.90 KCAL/MOL
REMARK 923 INTER-LIGAND FREE ENERGY PREDICTED BY IDOCK:   -6.50 KCAL/MOL
REMARK 924 INTRA-LIGAND FREE ENERGY PREDICTED BY IDOCK:   -0.40 KCAL/MOL
REMARK 927      BINDING AFFINITY PREDICTED BY RF-SCORE:    0.00 PKD
ROOT
HETATM    1  N   UNL     1      -9.901  17.647  65.724  1.00  0.00    -0.549 NA 
HETATM    2  H2  UNL     1      -8.922  17.781  65.977  1.00  0.00     0.000 HD 
HETATM    3  C   UNL     1     -10.505  16.823  66.700  1.00  0.00    -0.258 A  
HETATM    4  H1  UNL     1      -9.949  17.387  64.739  1.00  0.00     0.000 HD 
HETATM    5  C   UNL     1     -10.439  17.183  68.065  1.00  0.00    -0.369 A  
HETATM    6  C   UNL     1     -10.935  16.350  69.071  1.00  0.00    -0.325 A  
HETATM    7 BR   UNL     1      -9.687  18.850  68.603  1.00  0.00    -0.465 Br 
HETATM    8  C   UNL     1     -11.470  15.118  68.721  1.00  0.00    -0.319 A  
HETATM    9  C   UNL     1     -11.487  14.706  67.393  1.00  0.00    -0.384 A  
HETATM   10 BR   UNL     1     -12.142  13.971  70.066  1.00  0.00    -0.429 Br 
HETATM   11  C   UNL     1     -10.987  15.537  66.367  1.00  0.00    -0.238 A  
ENDROOT
BRANCH  11  12
HETATM   12  C   UNL     1     -10.941  14.968  64.962  1.00  0.00    -0.423 C  
BRANCH  12  13
HETATM   13  N   UNL     1     -10.093  13.768  64.869  1.00  0.00    -0.607 NA 
HETATM   14  H   UNL     1      -9.479  13.685  65.679  1.00  0.00     0.000 HD 
BRANCH  13  15
HETATM   15  C   UNL     1     -10.895  12.542  64.674  1.00  0.00    -0.310 C  
HETATM   16  C   UNL     1     -10.711  12.010  63.239  1.00  0.00    -0.400 C  
HETATM   17  C   UNL     1      -9.309  11.450  62.974  1.00  0.00    -0.344 C  
HETATM   18  C   UNL     1      -8.869  10.437  64.033  1.00  0.00    -0.212 C  
HETATM   19  C   UNL     1      -9.077  10.954  65.455  1.00  0.00    -0.221 C  
HETATM   20  O   UNL     1      -9.623   9.234  63.882  1.00  0.00    -0.329 OA 
HETATM   21  C   UNL     1     -10.515  11.432  65.668  1.00  0.00    -0.316 C  
HETATM   22  H   UNL     1      -9.350   8.605  64.539  1.00  0.00     0.000 HD 
ENDBRANCH  13  15
ENDBRANCH  12  13
ENDBRANCH  11  12
TORSDOF 3
ENDMDL
MODEL       42
REMARK 921   NORMALIZED FREE ENERGY PREDICTED BY IDOCK:   -5.26 KCAL/MOL
REMARK 922        TOTAL FREE ENERGY PREDICTED BY IDOCK:   -6.85 KCAL/MOL
REMARK 923 INTER-LIGAND FREE ENERGY PREDICTED BY IDOCK:   -6.45 KCAL/MOL
REMARK 924 INTRA-LIGAND FREE ENERGY PREDICTED BY IDOCK:   -0.39 KCAL/MOL
REMARK 927      BINDING AFFINITY PREDICTED BY RF-SCORE:    0.00 PKD
ROOT
HETATM    1  N   UNL     1      -9.524   9.065  65.141  1.00  0.00    -0.449 NA 
HETATM    2  H2  UNL     1      -8.548   9.206  64.880  1.00  0.00     0.000 HD 
HETATM    3  C   UNL     1     -10.099  10.325  65.419  1.00  0.00    -0.284 A  
HETATM    4  H1  UNL     1      -9.568   8.321  65.837  1.00  0.00     0.000 HD 
HETATM    5  C   UNL     1     -10.037  11.357  64.454  1.00  0.00    -0.291 A  
HETATM    6  C   UNL     1     -10.503  12.645  64.724  1.00  0.00    -0.343 A  
HETATM    7 BR   UNL     1      -9.332  11.029  62.714  1.00  0.00    -0.371 Br 
HETATM    8  C   UNL     1     -11.004  12.929  65.987  1.00  0.00    -0.276 A  
HETATM    9  C   UNL     1     -11.015  11.954  66.978  1.00  0.00    -0.326 A  
HETATM   10 BR   UNL     1     -11.636  14.668  66.376  1.00  0.00    -0.309 Br 
HETATM   11  C   UNL     1     -10.545  10.648  66.720  1.00  0.00    -0.297 A  
ENDROOT
BRANCH  11  12
HETATM   12  C   UNL     1     -10.488   9.679  67.885  1.00  0.00    -0.246 C  
BRANCH  12  13
HETATM   13  N   UNL     1     -11.594   9.879  68.836  1.00  0.00    -0.482 NA 
HETATM   14  H   UNL     1     -12.289   9.137  68.759  1.00  0.00     0.000 HD 
BRANCH  13  15
HETATM   15  C   UNL     1     -11.106  10.017  70.225  1.00  0.00    -0.318 C  
HETATM   16  C   UNL     1     -12.241  10.516  71.140  1.00  0.00    -0.496 C  
HETATM   17  C   UNL     1     -13.349   9.480  71.354  1.00  0.00    -0.435 C  
HETATM   18  C   UNL     1     -12.805   8.117  71.790  1.00  0.00    -0.333 C  
HETATM   19  C   UNL     1     -11.662   7.635  70.899  1.00  0.00    -0.291 C  
HETATM   20  O   UNL     1     -12.319   8.206  73.130  1.00  0.00    -0.652 OA 
HETATM   21  C   UNL     1     -10.562   8.693  70.787  1.00  0.00    -0.254 C  
HETATM   22  H   UNL     1     -11.982   7.360  73.400  1.00  0.00     0.000 HD 
ENDBRANCH  13  15
ENDBRANCH  12  13
ENDBRANCH  11  12
TORSDOF 3
ENDMDL
MODEL       43
REMARK 921   NORMALIZED FREE ENERGY PREDICTED BY IDOCK:   -5.24 KCAL/MOL
REMARK 922        TOTAL FREE ENERGY PREDICTED BY IDOCK:   -6.83 KCAL/MOL
REMARK 923 INTER-LIGAND FREE ENERGY PREDICTED BY IDOCK:   -6.30 KCAL/MOL
REMARK 924 INTRA-LIGAND FREE ENERGY PREDICTED BY IDOCK:   -0.53 KCAL/MOL
REMARK 927      BINDING AFFINITY PREDICTED BY RF-SCORE:    0.00 PKD
ROOT
HETATM    1  N   UNL     1     -12.594  10.408  69.588  1.00  0.00    -0.620 NA 
HETATM    2  H2  UNL     1     -13.050  11.089  70.196  1.00  0.00     0.000 HD 
HETATM    3  C   UNL     1     -11.592   9.747  70.331  1.00  0.00    -0.258 A  
HETATM    4  H1  UNL     1     -12.355  10.868  68.709  1.00  0.00     0.000 HD 
HETATM    5  C   UNL     1     -11.922   9.109  71.549  1.00  0.00    -0.352 A  
HETATM    6  C   UNL     1     -10.947   8.530  72.365  1.00  0.00    -0.390 A  
HETATM    7 BR   UNL     1     -13.733   8.988  72.131  1.00  0.00    -0.566 Br 
HETATM    8  C   UNL     1      -9.615   8.617  71.986  1.00  0.00    -0.314 A  
HETATM    9  C   UNL     1      -9.251   9.296  70.828  1.00  0.00    -0.316 A  
HETATM   10 BR   UNL     1      -8.277   7.844  73.077  1.00  0.00    -0.227 Br 
HETATM   11  C   UNL     1     -10.226   9.889  69.997  1.00  0.00    -0.319 A  
ENDROOT
BRANCH  11  12
HETATM   12  C   UNL     1      -9.738  10.705  68.814  1.00  0.00    -0.189 C  
BRANCH  12  13
HETATM   13  N   UNL     1     -10.228  12.092  68.848  1.00  0.00    -0.407 NA 
HETATM   14  H   UNL     1     -10.017  12.538  69.740  1.00  0.00     0.000 HD 
BRANCH  13  15
HETATM   15  C   UNL     1      -9.711  12.886  67.713  1.00  0.00    -0.214 C  
HETATM   16  C   UNL     1      -9.912  12.117  66.393  1.00  0.00    -0.243 C  
HETATM   17  C   UNL     1     -11.382  11.996  65.978  1.00  0.00    -0.398 C  
HETATM   18  C   UNL     1     -12.110  13.343  65.986  1.00  0.00    -0.438 C  
HETATM   19  C   UNL     1     -11.888  14.116  67.285  1.00  0.00    -0.452 C  
HETATM   20  O   UNL     1     -11.637  14.145  64.904  1.00  0.00    -0.345 OA 
HETATM   21  C   UNL     1     -10.397  14.257  67.599  1.00  0.00    -0.248 C  
HETATM   22  H   UNL     1     -12.088  14.980  64.908  1.00  0.00     0.000 HD 
ENDBRANCH  13  15
ENDBRANCH  12  13
ENDBRANCH  11  12
TORSDOF 3
ENDMDL
MODEL       44
REMARK 921   NORMALIZED FREE ENERGY PREDICTED BY IDOCK:   -5.24 KCAL/MOL
REMARK 922        TOTAL FREE ENERGY PREDICTED BY IDOCK:   -6.82 KCAL/MOL
REMARK 923 INTER-LIGAND FREE ENERGY PREDICTED BY IDOCK:   -6.46 KCAL/MOL
REMARK 924 INTRA-LIGAND FREE ENERGY PREDICTED BY IDOCK:   -0.36 KCAL/MOL
REMARK 927      BINDING AFFINITY PREDICTED BY RF-SCORE:    0.00 PKD
ROOT
HETATM    1  N   UNL     1     -12.557  11.327  71.246  1.00  0.00    -0.393 NA 
HETATM    2  H2  UNL     1     -11.940  11.318  72.059  1.00  0.00     0.000 HD 
HETATM    3  C   UNL     1     -11.936  10.602  70.206  1.00  0.00    -0.339 A  
HETATM    4  H1  UNL     1     -12.865  12.286  71.084  1.00  0.00     0.000 HD 
HETATM    5  C   UNL     1     -11.509   9.273  70.429  1.00  0.00    -0.213 A  
HETATM    6  C   UNL     1     -10.803   8.554  69.463  1.00  0.00    -0.134 A  
HETATM    7 BR   UNL     1     -11.902   8.381  72.067  1.00  0.00    -0.448 Br 
HETATM    8  C   UNL     1     -10.479   9.176  68.265  1.00  0.00    -0.208 A  
HETATM    9  C   UNL     1     -10.825  10.504  68.041  1.00  0.00    -0.312 A  
HETATM   10 BR   UNL     1      -9.519   8.224  66.943  1.00  0.00    -0.265 Br 
HETATM   11  C   UNL     1     -11.537  11.243  69.012  1.00  0.00    -0.386 A  
ENDROOT
BRANCH  11  12
HETATM   12  C   UNL     1     -11.777  12.715  68.735  1.00  0.00    -0.323 C  
BRANCH  12  13
HETATM   13  N   UNL     1     -11.384  13.102  67.371  1.00  0.00    -0.290 NA 
HETATM   14  H   UNL     1     -11.365  12.296  66.747  1.00  0.00     0.000 HD 
BRANCH  13  15
HETATM   15  C   UNL     1     -12.246  14.177  66.835  1.00  0.00    -0.365 C  
HETATM   16  C   UNL     1     -11.506  15.528  66.890  1.00  0.00    -0.000 C  
HETATM   17  C   UNL     1     -10.333  15.619  65.907  1.00  0.00    -0.368 C  
HETATM   18  C   UNL     1     -10.727  15.227  64.481  1.00  0.00    -0.026 C  
HETATM   19  C   UNL     1     -11.483  13.901  64.430  1.00  0.00    -0.376 C  
HETATM   20  O   UNL     1     -11.565  16.240  63.924  1.00  0.00    -1.489 OA 
HETATM   21  C   UNL     1     -12.680  13.908  65.384  1.00  0.00    -0.525 C  
HETATM   22  H   UNL     1     -11.809  15.997  63.039  1.00  0.00     0.000 HD 
ENDBRANCH  13  15
ENDBRANCH  12  13
ENDBRANCH  11  12
TORSDOF 3
ENDMDL
MODEL       45
REMARK 921   NORMALIZED FREE ENERGY PREDICTED BY IDOCK:   -5.22 KCAL/MOL
REMARK 922        TOTAL FREE ENERGY PREDICTED BY IDOCK:   -6.79 KCAL/MOL
REMARK 923 INTER-LIGAND FREE ENERGY PREDICTED BY IDOCK:   -6.37 KCAL/MOL
REMARK 924 INTRA-LIGAND FREE ENERGY PREDICTED BY IDOCK:   -0.42 KCAL/MOL
REMARK 927      BINDING AFFINITY PREDICTED BY RF-SCORE:    0.00 PKD
ROOT
HETATM    1  N   UNL     1     -10.149   7.976  69.033  1.00  0.00    -0.196 NA 
HETATM    2  H2  UNL     1     -10.847   7.248  68.883  1.00  0.00     0.000 HD 
HETATM    3  C   UNL     1     -10.772   9.066  69.678  1.00  0.00    -0.219 A  
HETATM    4  H1  UNL     1      -9.642   8.124  68.160  1.00  0.00     0.000 HD 
HETATM    5  C   UNL     1     -11.474   8.862  70.888  1.00  0.00    -0.288 A  
HETATM    6  C   UNL     1     -12.188   9.890  71.508  1.00  0.00    -0.505 A  
HETATM    7 BR   UNL     1     -11.460   7.164  71.754  1.00  0.00    -0.321 Br 
HETATM    8  C   UNL     1     -12.241  11.136  70.897  1.00  0.00    -0.364 A  
HETATM    9  C   UNL     1     -11.617  11.350  69.673  1.00  0.00    -0.399 A  
HETATM   10 BR   UNL     1     -13.206  12.541  71.715  1.00  0.00    -0.330 Br 
HETATM   11  C   UNL     1     -10.895  10.318  69.034  1.00  0.00    -0.265 A  
ENDROOT
BRANCH  11  12
HETATM   12  C   UNL     1     -10.340  10.602  67.651  1.00  0.00    -0.209 C  
BRANCH  12  13
HETATM   13  N   UNL     1     -11.289  11.345  66.807  1.00  0.00    -0.405 NA 
HETATM   14  H   UNL     1     -12.162  11.527  67.302  1.00  0.00     0.000 HD 
BRANCH  13  15
HETATM   15  C   UNL     1     -10.698  12.594  66.282  1.00  0.00    -0.256 C  
HETATM   16  C   UNL     1     -10.313  12.417  64.800  1.00  0.00    -0.324 C  
HETATM   17  C   UNL     1     -11.523  12.291  63.869  1.00  0.00    -0.512 C  
HETATM   18  C   UNL     1     -12.547  13.409  64.077  1.00  0.00    -0.120 C  
HETATM   19  C   UNL     1     -12.908  13.601  65.549  1.00  0.00    -0.443 C  
HETATM   20  O   UNL     1     -12.013  14.639  63.584  1.00  0.00    -0.834 OA 
HETATM   21  C   UNL     1     -11.655  13.790  66.407  1.00  0.00    -0.380 C  
HETATM   22  H   UNL     1     -12.648  15.333  63.713  1.00  0.00     0.000 HD 
ENDBRANCH  13  15
ENDBRANCH  12  13
ENDBRANCH  11  12
TORSDOF 3
ENDMDL
MODEL       46
REMARK 921   NORMALIZED FREE ENERGY PREDICTED BY IDOCK:   -5.16 KCAL/MOL
REMARK 922        TOTAL FREE ENERGY PREDICTED BY IDOCK:   -6.73 KCAL/MOL
REMARK 923 INTER-LIGAND FREE ENERGY PREDICTED BY IDOCK:   -6.17 KCAL/MOL
REMARK 924 INTRA-LIGAND FREE ENERGY PREDICTED BY IDOCK:   -0.56 KCAL/MOL
REMARK 927      BINDING AFFINITY PREDICTED BY RF-SCORE:    0.00 PKD
ROOT
HETATM    1  N   UNL     1     -11.005  10.632  70.087  1.00  0.00    -0.429 NA 
HETATM    2  H2  UNL     1     -10.312  10.658  70.835  1.00  0.00     0.000 HD 
HETATM    3  C   UNL     1     -10.907   9.386  69.430  1.00  0.00    -0.189 A  
HETATM    4  H1  UNL     1     -10.934  11.497  69.551  1.00  0.00     0.000 HD 
HETATM    5  C   UNL     1     -11.004   8.187  70.172  1.00  0.00    -0.223 A  
HETATM    6  C   UNL     1     -10.814   6.937  69.580  1.00  0.00    -0.294 A  
HETATM    7 BR   UNL     1     -11.428   8.218  72.030  1.00  0.00    -0.430 Br 
HETATM    8  C   UNL     1     -10.482   6.873  68.234  1.00  0.00    -0.206 A  
HETATM    9  C   UNL     1     -10.313   8.037  67.492  1.00  0.00    -0.330 A  
HETATM   10 BR   UNL     1     -10.215   5.192  67.411  1.00  0.00    -0.207 Br 
HETATM   11  C   UNL     1     -10.499   9.308  68.079  1.00  0.00    -0.275 A  
ENDROOT
BRANCH  11  12
HETATM   12  C   UNL     1     -10.186  10.526  67.231  1.00  0.00    -0.215 C  
BRANCH  12  13
HETATM   13  N   UNL     1     -11.312  11.472  67.169  1.00  0.00    -0.414 NA 
HETATM   14  H   UNL     1     -11.949  11.342  67.955  1.00  0.00     0.000 HD 
BRANCH  13  15
HETATM   15  C   UNL     1     -10.849  12.873  67.077  1.00  0.00    -0.260 C  
HETATM   16  C   UNL     1      -9.883  13.035  65.886  1.00  0.00    -0.243 C  
HETATM   17  C   UNL     1     -10.571  12.898  64.524  1.00  0.00    -0.403 C  
HETATM   18  C   UNL     1     -11.810  13.786  64.396  1.00  0.00    -0.427 C  
HETATM   19  C   UNL     1     -12.753  13.645  65.589  1.00  0.00    -0.505 C  
HETATM   20  O   UNL     1     -11.407  15.154  64.307  1.00  0.00    -0.650 OA 
HETATM   21  C   UNL     1     -12.013  13.863  66.911  1.00  0.00    -0.467 C  
HETATM   22  H   UNL     1     -12.176  15.705  64.227  1.00  0.00     0.000 HD 
ENDBRANCH  13  15
ENDBRANCH  12  13
ENDBRANCH  11  12
TORSDOF 3
ENDMDL
MODEL       47
REMARK 921   NORMALIZED FREE ENERGY PREDICTED BY IDOCK:   -5.15 KCAL/MOL
REMARK 922        TOTAL FREE ENERGY PREDICTED BY IDOCK:   -6.72 KCAL/MOL
REMARK 923 INTER-LIGAND FREE ENERGY PREDICTED BY IDOCK:   -6.09 KCAL/MOL
REMARK 924 INTRA-LIGAND FREE ENERGY PREDICTED BY IDOCK:   -0.63 KCAL/MOL
REMARK 927      BINDING AFFINITY PREDICTED BY RF-SCORE:    0.00 PKD
ROOT
HETATM    1  N   UNL     1     -11.295   9.488  68.317  1.00  0.00    -0.457 NA 
HETATM    2  H2  UNL     1     -10.300   9.322  68.162  1.00  0.00     0.000 HD 
HETATM    3  C   UNL     1     -11.491  10.874  68.508  1.00  0.00    -0.310 A  
HETATM    4  H1  UNL     1     -11.628   8.826  69.017  1.00  0.00     0.000 HD 
HETATM    5  C   UNL     1     -11.029  11.792  67.538  1.00  0.00    -0.256 A  
HETATM    6  C   UNL     1     -11.113  13.173  67.733  1.00  0.00    -0.287 A  
HETATM    7 BR   UNL     1     -10.285  11.185  65.892  1.00  0.00    -0.315 Br 
HETATM    8  C   UNL     1     -11.628  13.654  68.928  1.00  0.00    -0.322 A  
HETATM    9  C   UNL     1     -12.029  12.776  69.930  1.00  0.00    -0.368 A  
HETATM   10 BR   UNL     1     -11.747  15.519  69.215  1.00  0.00    -0.387 Br 
HETATM   11  C   UNL     1     -11.947  11.378  69.747  1.00  0.00    -0.422 A  
ENDROOT
BRANCH  11  12
HETATM   12  C   UNL     1     -12.299  10.494  70.929  1.00  0.00    -0.390 C  
BRANCH  12  13
HETATM   13  N   UNL     1     -11.211   9.567  71.280  1.00  0.00    -0.358 NA 
HETATM   14  H   UNL     1     -10.401  10.067  71.646  1.00  0.00     0.000 HD 
BRANCH  13  15
HETATM   15  C   UNL     1     -11.665   8.518  72.217  1.00  0.00    -0.373 C  
HETATM   16  C   UNL     1     -12.461   7.437  71.460  1.00  0.00    -0.394 C  
HETATM   17  C   UNL     1     -11.595   6.591  70.520  1.00  0.00    -0.455 C  
HETATM   18  C   UNL     1     -10.354   6.023  71.213  1.00  0.00    -0.215 C  
HETATM   19  C   UNL     1      -9.581   7.090  71.986  1.00  0.00    -0.149 C  
HETATM   20  O   UNL     1     -10.749   5.004  72.133  1.00  0.00    -0.213 OA 
HETATM   21  C   UNL     1     -10.494   7.846  72.953  1.00  0.00    -0.422 C  
HETATM   22  H   UNL     1      -9.979   4.652  72.563  1.00  0.00     0.000 HD 
ENDBRANCH  13  15
ENDBRANCH  12  13
ENDBRANCH  11  12
TORSDOF 3
ENDMDL
MODEL       48
REMARK 921   NORMALIZED FREE ENERGY PREDICTED BY IDOCK:   -5.12 KCAL/MOL
REMARK 922        TOTAL FREE ENERGY PREDICTED BY IDOCK:   -6.68 KCAL/MOL
REMARK 923 INTER-LIGAND FREE ENERGY PREDICTED BY IDOCK:   -6.25 KCAL/MOL
REMARK 924 INTRA-LIGAND FREE ENERGY PREDICTED BY IDOCK:   -0.44 KCAL/MOL
REMARK 927      BINDING AFFINITY PREDICTED BY RF-SCORE:    0.00 PKD
ROOT
HETATM    1  N   UNL     1      -9.623  15.550  68.982  1.00  0.00    -0.221 NA 
HETATM    2  H2  UNL     1      -9.800  16.550  68.887  1.00  0.00     0.000 HD 
HETATM    3  C   UNL     1     -10.102  14.900  67.824  1.00  0.00    -0.234 A  
HETATM    4  H1  UNL     1      -9.943  15.251  69.903  1.00  0.00     0.000 HD 
HETATM    5  C   UNL     1      -9.658  15.314  66.547  1.00  0.00    -0.271 A  
HETATM    6  C   UNL     1     -10.179  14.767  65.373  1.00  0.00    -0.415 A  
HETATM    7 BR   UNL     1      -8.296  16.635  66.366  1.00  0.00    -0.367 Br 
HETATM    8  C   UNL     1     -11.189  13.818  65.463  1.00  0.00    -0.299 A  
HETATM    9  C   UNL     1     -11.693  13.438  66.702  1.00  0.00    -0.428 A  
HETATM   10 BR   UNL     1     -11.913  13.066  63.887  1.00  0.00    -0.581 Br 
HETATM   11  C   UNL     1     -11.177  13.986  67.897  1.00  0.00    -0.295 A  
ENDROOT
BRANCH  11  12
HETATM   12  C   UNL     1     -11.859  13.603  69.197  1.00  0.00    -0.348 C  
BRANCH  12  13
HETATM   13  N   UNL     1     -11.320  12.357  69.767  1.00  0.00    -0.490 NA 
HETATM   14  H   UNL     1     -11.231  12.422  70.781  1.00  0.00     0.000 HD 
BRANCH  13  15
HETATM   15  C   UNL     1     -12.122  11.180  69.372  1.00  0.00    -0.326 C  
HETATM   16  C   UNL     1     -11.285  10.244  68.478  1.00  0.00    -0.271 C  
HETATM   17  C   UNL     1     -10.146   9.544  69.230  1.00  0.00    -0.203 C  
HETATM   18  C   UNL     1     -10.621   8.857  70.512  1.00  0.00    -0.220 C  
HETATM   19  C   UNL     1     -11.473   9.777  71.384  1.00  0.00    -0.435 C  
HETATM   20  O   UNL     1     -11.404   7.711  70.175  1.00  0.00    -0.406 OA 
HETATM   21  C   UNL     1     -12.629  10.385  70.586  1.00  0.00    -0.435 C  
HETATM   22  H   UNL     1     -11.699   7.285  70.971  1.00  0.00     0.000 HD 
ENDBRANCH  13  15
ENDBRANCH  12  13
ENDBRANCH  11  12
TORSDOF 3
ENDMDL
MODEL       49
REMARK 921   NORMALIZED FREE ENERGY PREDICTED BY IDOCK:   -5.07 KCAL/MOL
REMARK 922        TOTAL FREE ENERGY PREDICTED BY IDOCK:   -6.63 KCAL/MOL
REMARK 923 INTER-LIGAND FREE ENERGY PREDICTED BY IDOCK:   -5.88 KCAL/MOL
REMARK 924 INTRA-LIGAND FREE ENERGY PREDICTED BY IDOCK:   -0.75 KCAL/MOL
REMARK 927      BINDING AFFINITY PREDICTED BY RF-SCORE:    0.00 PKD
ROOT
HETATM    1  N   UNL     1      -9.413  15.150  69.683  1.00  0.00    -0.438 NA 
HETATM    2  H2  UNL     1      -9.337  14.331  70.286  1.00  0.00     0.000 HD 
HETATM    3  C   UNL     1     -10.112  14.781  68.513  1.00  0.00    -0.230 A  
HETATM    4  H1  UNL     1      -8.492  15.584  69.610  1.00  0.00     0.000 HD 
HETATM    5  C   UNL     1     -11.387  14.179  68.614  1.00  0.00    -0.277 A  
HETATM    6  C   UNL     1     -12.070  13.708  67.490  1.00  0.00    -0.352 A  
HETATM    7 BR   UNL     1     -12.255  14.002  70.301  1.00  0.00    -0.442 Br 
HETATM    8  C   UNL     1     -11.462  13.799  66.246  1.00  0.00    -0.335 A  
HETATM    9  C   UNL     1     -10.180  14.324  66.122  1.00  0.00    -0.317 A  
HETATM   10 BR   UNL     1     -12.365  13.164  64.711  1.00  0.00    -0.477 Br 
HETATM   11  C   UNL     1      -9.478  14.801  67.251  1.00  0.00    -0.217 A  
ENDROOT
BRANCH  11  12
HETATM   12  C   UNL     1      -8.044  15.254  67.045  1.00  0.00    -0.218 C  
BRANCH  12  13
HETATM   13  N   UNL     1      -7.796  16.597  67.593  1.00  0.00    -0.170 NA 
HETATM   14  H   UNL     1      -6.798  16.771  67.710  1.00  0.00     0.000 HD 
BRANCH  13  15
HETATM   15  C   UNL     1      -8.433  17.651  66.776  1.00  0.00    -0.251 C  
HETATM   16  C   UNL     1      -9.225  18.617  67.678  1.00  0.00    -0.300 C  
HETATM   17  C   UNL     1      -8.332  19.485  68.571  1.00  0.00    -0.372 C  
HETATM   18  C   UNL     1      -7.225  20.193  67.787  1.00  0.00    -0.294 C  
HETATM   19  C   UNL     1      -6.458  19.240  66.873  1.00  0.00    -0.197 C  
HETATM   20  O   UNL     1      -7.799  21.221  66.979  1.00  0.00    -0.717 OA 
HETATM   21  C   UNL     1      -7.409  18.459  65.963  1.00  0.00    -0.273 C  
HETATM   22  H   UNL     1      -7.113  21.661  66.492  1.00  0.00     0.000 HD 
ENDBRANCH  13  15
ENDBRANCH  12  13
ENDBRANCH  11  12
TORSDOF 3
ENDMDL
MODEL       50
REMARK 921   NORMALIZED FREE ENERGY PREDICTED BY IDOCK:   -5.06 KCAL/MOL
REMARK 922        TOTAL FREE ENERGY PREDICTED BY IDOCK:   -6.61 KCAL/MOL
REMARK 923 INTER-LIGAND FREE ENERGY PREDICTED BY IDOCK:   -6.04 KCAL/MOL
REMARK 924 INTRA-LIGAND FREE ENERGY PREDICTED BY IDOCK:   -0.58 KCAL/MOL
REMARK 927      BINDING AFFINITY PREDICTED BY RF-SCORE:    0.00 PKD
ROOT
HETATM    1  N   UNL     1     -10.902  18.496  67.318  1.00  0.00    -0.370 NA 
HETATM    2  H2  UNL     1     -10.703  18.711  66.341  1.00  0.00     0.000 HD 
HETATM    3  C   UNL     1      -9.722  18.002  67.917  1.00  0.00    -0.297 A  
HETATM    4  H1  UNL     1     -11.762  17.948  67.360  1.00  0.00     0.000 HD 
HETATM    5  C   UNL     1      -8.531  18.761  67.859  1.00  0.00    -0.292 A  
HETATM    6  C   UNL     1      -7.320  18.269  68.350  1.00  0.00    -0.285 A  
HETATM    7 BR   UNL     1      -8.526  20.520  67.125  1.00  0.00    -0.295 Br 
HETATM    8  C   UNL     1      -7.278  16.984  68.873  1.00  0.00    -0.239 A  
HETATM    9  C   UNL     1      -8.418  16.187  68.882  1.00  0.00    -0.241 A  
HETATM   10 BR   UNL     1      -5.648  16.294  69.538  1.00  0.00    -0.152 Br 
HETATM   11  C   UNL     1      -9.648  16.671  68.386  1.00  0.00    -0.233 A  
ENDROOT
BRANCH  11  12
HETATM   12  C   UNL     1     -10.813  15.701  68.330  1.00  0.00    -0.290 C  
BRANCH  12  13
HETATM   13  N   UNL     1     -11.744  15.876  69.457  1.00  0.00    -0.343 NA 
HETATM   14  H   UNL     1     -12.704  15.991  69.131  1.00  0.00     0.000 HD 
BRANCH  13  15
HETATM   15  C   UNL     1     -11.637  14.773  70.435  1.00  0.00    -0.279 C  
HETATM   16  C   UNL     1     -11.059  15.297  71.765  1.00  0.00    -0.235 C  
HETATM   17  C   UNL     1     -12.018  16.223  72.520  1.00  0.00    -0.648 C  
HETATM   18  C   UNL     1     -13.414  15.617  72.688  1.00  0.00    -0.566 C  
HETATM   19  C   UNL     1     -13.974  15.074  71.375  1.00  0.00    -0.565 C  
HETATM   20  O   UNL     1     -13.355  14.542  73.626  1.00  0.00    -0.369 OA 
HETATM   21  C   UNL     1     -12.993  14.104  70.712  1.00  0.00    -0.337 C  
HETATM   22  H   UNL     1     -14.221  14.166  73.731  1.00  0.00     0.000 HD 
ENDBRANCH  13  15
ENDBRANCH  12  13
ENDBRANCH  11  12
TORSDOF 3
ENDMDL
MODEL       51
REMARK 921   NORMALIZED FREE ENERGY PREDICTED BY IDOCK:   -5.06 KCAL/MOL
REMARK 922        TOTAL FREE ENERGY PREDICTED BY IDOCK:   -6.61 KCAL/MOL
REMARK 923 INTER-LIGAND FREE ENERGY PREDICTED BY IDOCK:   -6.24 KCAL/MOL
REMARK 924 INTRA-LIGAND FREE ENERGY PREDICTED BY IDOCK:   -0.37 KCAL/MOL
REMARK 927      BINDING AFFINITY PREDICTED BY RF-SCORE:    0.00 PKD
ROOT
HETATM    1  N   UNL     1      -9.092   4.552  67.864  1.00  0.00    -0.117 NA 
HETATM    2  H2  UNL     1      -8.128   4.528  68.194  1.00  0.00     0.000 HD 
HETATM    3  C   UNL     1      -9.334   5.816  67.282  1.00  0.00    -0.113 A  
HETATM    4  H1  UNL     1      -9.698   4.211  68.611  1.00  0.00     0.000 HD 
HETATM    5  C   UNL     1      -8.495   6.288  66.247  1.00  0.00    -0.133 A  
HETATM    6  C   UNL     1      -8.636   7.571  65.713  1.00  0.00    -0.158 A  
HETATM    7 BR   UNL     1      -7.134   5.178  65.508  1.00  0.00    -0.068 Br 
HETATM    8  C   UNL     1      -9.602   8.417  66.240  1.00  0.00    -0.216 A  
HETATM    9  C   UNL     1     -10.398   8.006  67.303  1.00  0.00    -0.371 A  
HETATM   10 BR   UNL     1      -9.808  10.159  65.535  1.00  0.00    -0.372 Br 
HETATM   11  C   UNL     1     -10.264   6.713  67.855  1.00  0.00    -0.203 A  
ENDROOT
BRANCH  11  12
HETATM   12  C   UNL     1     -11.092   6.384  69.083  1.00  0.00    -0.365 C  
BRANCH  12  13
HETATM   13  N   UNL     1     -11.649   7.586  69.723  1.00  0.00    -0.466 NA 
HETATM   14  H   UNL     1     -12.592   7.782  69.387  1.00  0.00     0.000 HD 
BRANCH  13  15
HETATM   15  C   UNL     1     -11.613   7.491  71.198  1.00  0.00    -0.282 C  
HETATM   16  C   UNL     1     -11.499   8.898  71.818  1.00  0.00    -0.423 C  
HETATM   17  C   UNL     1     -12.765   9.744  71.642  1.00  0.00    -0.517 C  
HETATM   18  C   UNL     1     -14.031   9.010  72.088  1.00  0.00    -0.435 C  
HETATM   19  C   UNL     1     -14.130   7.606  71.495  1.00  0.00    -0.535 C  
HETATM   20  O   UNL     1     -14.036   8.893  73.512  1.00  0.00    -1.160 OA 
HETATM   21  C   UNL     1     -12.860   6.797  71.769  1.00  0.00    -0.307 C  
HETATM   22  H   UNL     1     -14.821   8.438  73.790  1.00  0.00     0.000 HD 
ENDBRANCH  13  15
ENDBRANCH  12  13
ENDBRANCH  11  12
TORSDOF 3
ENDMDL
MODEL       52
REMARK 921   NORMALIZED FREE ENERGY PREDICTED BY IDOCK:   -5.05 KCAL/MOL
REMARK 922        TOTAL FREE ENERGY PREDICTED BY IDOCK:   -6.60 KCAL/MOL
REMARK 923 INTER-LIGAND FREE ENERGY PREDICTED BY IDOCK:   -5.97 KCAL/MOL
REMARK 924 INTRA-LIGAND FREE ENERGY PREDICTED BY IDOCK:   -0.63 KCAL/MOL
REMARK 927      BINDING AFFINITY PREDICTED BY RF-SCORE:    0.00 PKD
ROOT
HETATM    1  N   UNL     1      -9.117  11.805  68.524  1.00  0.00    -0.302 NA 
HETATM    2  H2  UNL     1      -8.802  11.216  67.754  1.00  0.00     0.000 HD 
HETATM    3  C   UNL     1      -9.922  11.025  69.383  1.00  0.00     0.011 A  
HETATM    4  H1  UNL     1      -9.481  12.676  68.137  1.00  0.00     0.000 HD 
HETATM    5  C   UNL     1      -9.419   9.818  69.919  1.00  0.00    -0.231 A  
HETATM    6  C   UNL     1     -10.213   8.967  70.691  1.00  0.00    -0.284 A  
HETATM    7 BR   UNL     1      -7.607   9.301  69.633  1.00  0.00    -0.094 Br 
HETATM    8  C   UNL     1     -11.544   9.299  70.904  1.00  0.00    -0.301 A  
HETATM    9  C   UNL     1     -12.087  10.445  70.334  1.00  0.00    -0.402 A  
HETATM   10 BR   UNL     1     -12.640   8.160  71.942  1.00  0.00    -0.383 Br 
HETATM   11  C   UNL     1     -11.296  11.312  69.549  1.00  0.00    -0.362 A  
ENDROOT
BRANCH  11  12
HETATM   12  C   UNL     1     -11.992  12.478  68.873  1.00  0.00    -0.236 C  
BRANCH  12  13
HETATM   13  N   UNL     1     -11.821  12.464  67.411  1.00  0.00    -0.505 NA 
HETATM   14  H   UNL     1     -12.240  11.631  66.997  1.00  0.00     0.000 HD 
BRANCH  13  15
HETATM   15  C   UNL     1     -12.343  13.697  66.785  1.00  0.00    -0.305 C  
HETATM   16  C   UNL     1     -11.518  14.915  67.243  1.00  0.00    -0.350 C  
HETATM   17  C   UNL     1     -10.089  14.925  66.689  1.00  0.00    -0.264 C  
HETATM   18  C   UNL     1     -10.044  14.726  65.172  1.00  0.00    -0.323 C  
HETATM   19  C   UNL     1     -10.883  13.535  64.716  1.00  0.00    -0.392 C  
HETATM   20  O   UNL     1     -10.543  15.898  64.525  1.00  0.00    -0.745 OA 
HETATM   21  C   UNL     1     -12.315  13.628  65.249  1.00  0.00    -0.498 C  
HETATM   22  H   UNL     1     -10.515  15.775  63.583  1.00  0.00     0.000 HD 
ENDBRANCH  13  15
ENDBRANCH  12  13
ENDBRANCH  11  12
TORSDOF 3
ENDMDL
MODEL       53
REMARK 921   NORMALIZED FREE ENERGY PREDICTED BY IDOCK:   -5.04 KCAL/MOL
REMARK 922        TOTAL FREE ENERGY PREDICTED BY IDOCK:   -6.59 KCAL/MOL
REMARK 923 INTER-LIGAND FREE ENERGY PREDICTED BY IDOCK:   -6.00 KCAL/MOL
REMARK 924 INTRA-LIGAND FREE ENERGY PREDICTED BY IDOCK:   -0.59 KCAL/MOL
REMARK 927      BINDING AFFINITY PREDICTED BY RF-SCORE:    0.00 PKD
ROOT
HETATM    1  N   UNL     1     -11.931  10.814  68.374  1.00  0.00    -0.809 NA 
HETATM    2  H2  UNL     1     -12.898  10.951  68.080  1.00  0.00     0.000 HD 
HETATM    3  C   UNL     1     -11.119  10.736  67.220  1.00  0.00    -0.270 A  
HETATM    4  H1  UNL     1     -11.905  10.064  69.065  1.00  0.00     0.000 HD 
HETATM    5  C   UNL     1     -11.154  11.775  66.262  1.00  0.00    -0.311 A  
HETATM    6  C   UNL     1     -10.445  11.693  65.062  1.00  0.00    -0.336 A  
HETATM    7 BR   UNL     1     -12.159  13.364  66.577  1.00  0.00    -0.420 Br 
HETATM    8  C   UNL     1      -9.719  10.542  64.786  1.00  0.00    -0.305 A  
HETATM    9  C   UNL     1      -9.720   9.475  65.678  1.00  0.00    -0.361 A  
HETATM   10 BR   UNL     1      -8.756  10.407  63.165  1.00  0.00    -0.227 Br 
HETATM   11  C   UNL     1     -10.434   9.544  66.894  1.00  0.00    -0.279 A  
ENDROOT
BRANCH  11  12
HETATM   12  C   UNL     1     -10.474   8.297  67.756  1.00  0.00    -0.215 C  
BRANCH  12  13
HETATM   13  N   UNL     1      -9.768   8.476  69.035  1.00  0.00    -0.167 NA 
HETATM   14  H   UNL     1     -10.060   9.333  69.503  1.00  0.00     0.000 HD 
BRANCH  13  15
HETATM   15  C   UNL     1      -9.924   7.301  69.918  1.00  0.00    -0.183 C  
HETATM   16  C   UNL     1      -9.109   7.496  71.212  1.00  0.00    -0.147 C  
HETATM   17  C   UNL     1      -9.673   8.588  72.127  1.00  0.00    -0.387 C  
HETATM   18  C   UNL     1     -11.169   8.412  72.401  1.00  0.00    -0.368 C  
HETATM   19  C   UNL     1     -11.973   8.191  71.121  1.00  0.00    -0.296 C  
HETATM   20  O   UNL     1     -11.366   7.282  73.252  1.00  0.00    -0.580 OA 
HETATM   21  C   UNL     1     -11.393   7.043  70.292  1.00  0.00    -0.339 C  
HETATM   22  H   UNL     1     -12.294   7.173  73.422  1.00  0.00     0.000 HD 
ENDBRANCH  13  15
ENDBRANCH  12  13
ENDBRANCH  11  12
TORSDOF 3
ENDMDL
MODEL       54
REMARK 921   NORMALIZED FREE ENERGY PREDICTED BY IDOCK:   -5.03 KCAL/MOL
REMARK 922        TOTAL FREE ENERGY PREDICTED BY IDOCK:   -6.57 KCAL/MOL
REMARK 923 INTER-LIGAND FREE ENERGY PREDICTED BY IDOCK:   -6.00 KCAL/MOL
REMARK 924 INTRA-LIGAND FREE ENERGY PREDICTED BY IDOCK:   -0.58 KCAL/MOL
REMARK 927      BINDING AFFINITY PREDICTED BY RF-SCORE:    0.00 PKD
ROOT
HETATM    1  N   UNL     1      -8.845  17.020  65.932  1.00  0.00    -0.532 NA 
HETATM    2  H2  UNL     1      -7.889  16.850  66.245  1.00  0.00     0.000 HD 
HETATM    3  C   UNL     1      -9.721  16.757  67.008  1.00  0.00    -0.251 A  
HETATM    4  H1  UNL     1      -8.981  16.547  65.038  1.00  0.00     0.000 HD 
HETATM    5  C   UNL     1      -9.532  17.411  68.247  1.00  0.00    -0.290 A  
HETATM    6  C   UNL     1     -10.311  17.108  69.366  1.00  0.00    -0.195 A  
HETATM    7 BR   UNL     1      -8.210  18.769  68.446  1.00  0.00    -0.384 Br 
HETATM    8  C   UNL     1     -11.270  16.109  69.268  1.00  0.00    -0.337 A  
HETATM    9  C   UNL     1     -11.434  15.401  68.082  1.00  0.00    -0.352 A  
HETATM   10 BR   UNL     1     -12.334  15.678  70.771  1.00  0.00    -0.456 Br 
HETATM   11  C   UNL     1     -10.651  15.695  66.945  1.00  0.00    -0.311 A  
ENDROOT
BRANCH  11  12
HETATM   12  C   UNL     1     -10.815  14.802  65.729  1.00  0.00    -0.331 C  
BRANCH  12  13
HETATM   13  N   UNL     1      -9.859  13.683  65.721  1.00  0.00    -0.442 NA 
HETATM   14  H   UNL     1      -9.377  13.601  66.616  1.00  0.00     0.000 HD 
BRANCH  13  15
HETATM   15  C   UNL     1     -10.506  12.410  65.339  1.00  0.00    -0.277 C  
HETATM   16  C   UNL     1      -9.527  11.236  65.540  1.00  0.00    -0.255 C  
HETATM   17  C   UNL     1      -9.224  10.943  67.013  1.00  0.00    -0.165 C  
HETATM   18  C   UNL     1     -10.491  10.798  67.858  1.00  0.00    -0.199 C  
HETATM   19  C   UNL     1     -11.472  11.947  67.639  1.00  0.00    -0.387 C  
HETATM   20  O   UNL     1     -11.151   9.577  67.518  1.00  0.00    -0.450 OA 
HETATM   21  C   UNL     1     -11.782  12.137  66.152  1.00  0.00    -0.384 C  
HETATM   22  H   UNL     1     -11.938   9.487  68.043  1.00  0.00     0.000 HD 
ENDBRANCH  13  15
ENDBRANCH  12  13
ENDBRANCH  11  12
TORSDOF 3
ENDMDL
MODEL       55
REMARK 921   NORMALIZED FREE ENERGY PREDICTED BY IDOCK:   -4.95 KCAL/MOL
REMARK 922        TOTAL FREE ENERGY PREDICTED BY IDOCK:   -6.48 KCAL/MOL
REMARK 923 INTER-LIGAND FREE ENERGY PREDICTED BY IDOCK:   -5.98 KCAL/MOL
REMARK 924 INTRA-LIGAND FREE ENERGY PREDICTED BY IDOCK:   -0.50 KCAL/MOL
REMARK 927      BINDING AFFINITY PREDICTED BY RF-SCORE:    0.00 PKD
ROOT
HETATM    1  N   UNL     1     -10.961  12.981  68.067  1.00  0.00    -0.241 NA 
HETATM    2  H2  UNL     1      -9.962  13.181  68.130  1.00  0.00     0.000 HD 
HETATM    3  C   UNL     1     -11.607  13.576  69.172  1.00  0.00    -0.310 A  
HETATM    4  H1  UNL     1     -11.081  11.985  67.883  1.00  0.00     0.000 HD 
HETATM    5  C   UNL     1     -11.441  14.957  69.427  1.00  0.00    -0.299 A  
HETATM    6  C   UNL     1     -11.979  15.566  70.563  1.00  0.00    -0.406 A  
HETATM    7 BR   UNL     1     -10.487  16.069  68.209  1.00  0.00    -0.281 Br 
HETATM    8  C   UNL     1     -12.662  14.785  71.486  1.00  0.00    -0.330 A  
HETATM    9  C   UNL     1     -12.784  13.412  71.297  1.00  0.00    -0.424 A  
HETATM   10 BR   UNL     1     -13.395  15.586  73.033  1.00  0.00    -0.659 Br 
HETATM   11  C   UNL     1     -12.242  12.784  70.155  1.00  0.00    -0.320 A  
ENDROOT
BRANCH  11  12
HETATM   12  C   UNL     1     -12.322  11.271  70.082  1.00  0.00    -0.276 C  
BRANCH  12  13
HETATM   13  N   UNL     1     -11.089  10.620  70.553  1.00  0.00    -0.441 NA 
HETATM   14  H   UNL     1     -10.939  10.784  71.549  1.00  0.00     0.000 HD 
BRANCH  13  15
HETATM   15  C   UNL     1     -11.074   9.176  70.238  1.00  0.00    -0.239 C  
HETATM   16  C   UNL     1      -9.702   8.569  70.589  1.00  0.00    -0.207 C  
HETATM   17  C   UNL     1      -9.432   8.509  72.097  1.00  0.00    -0.375 C  
HETATM   18  C   UNL     1     -10.576   7.856  72.875  1.00  0.00    -0.368 C  
HETATM   19  C   UNL     1     -11.939   8.439  72.506  1.00  0.00    -0.418 C  
HETATM   20  O   UNL     1     -10.600   6.455  72.596  1.00  0.00    -0.207 OA 
HETATM   21  C   UNL     1     -12.167   8.402  70.994  1.00  0.00    -0.181 C  
HETATM   22  H   UNL     1     -11.310   6.049  73.079  1.00  0.00     0.000 HD 
ENDBRANCH  13  15
ENDBRANCH  12  13
ENDBRANCH  11  12
TORSDOF 3
ENDMDL
MODEL       56
REMARK 921   NORMALIZED FREE ENERGY PREDICTED BY IDOCK:   -4.95 KCAL/MOL
REMARK 922        TOTAL FREE ENERGY PREDICTED BY IDOCK:   -6.48 KCAL/MOL
REMARK 923 INTER-LIGAND FREE ENERGY PREDICTED BY IDOCK:   -5.88 KCAL/MOL
REMARK 924 INTRA-LIGAND FREE ENERGY PREDICTED BY IDOCK:   -0.59 KCAL/MOL
REMARK 927      BINDING AFFINITY PREDICTED BY RF-SCORE:    0.00 PKD
ROOT
HETATM    1  N   UNL     1     -11.027   7.664  67.953  1.00  0.00    -0.484 NA 
HETATM    2  H2  UNL     1     -10.440   7.239  68.670  1.00  0.00     0.000 HD 
HETATM    3  C   UNL     1     -10.191   8.193  66.945  1.00  0.00    -0.316 A  
HETATM    4  H1  UNL     1     -11.713   8.265  68.411  1.00  0.00     0.000 HD 
HETATM    5  C   UNL     1      -9.240   7.361  66.310  1.00  0.00    -0.135 A  
HETATM    6  C   UNL     1      -8.326   7.864  65.381  1.00  0.00    -0.146 A  
HETATM    7 BR   UNL     1      -9.174   5.492  66.677  1.00  0.00    -0.145 Br 
HETATM    8  C   UNL     1      -8.329   9.224  65.103  1.00  0.00    -0.150 A  
HETATM    9  C   UNL     1      -9.207  10.079  65.761  1.00  0.00    -0.222 A  
HETATM   10 BR   UNL     1      -7.098   9.928  63.852  1.00  0.00    -0.127 Br 
HETATM   11  C   UNL     1     -10.133   9.584  66.705  1.00  0.00    -0.321 A  
ENDROOT
BRANCH  11  12
HETATM   12  C   UNL     1     -10.976  10.596  67.458  1.00  0.00    -0.310 C  
BRANCH  12  13
HETATM   13  N   UNL     1     -10.728  11.976  67.012  1.00  0.00    -0.233 NA 
HETATM   14  H   UNL     1      -9.980  12.014  66.320  1.00  0.00     0.000 HD 
BRANCH  13  15
HETATM   15  C   UNL     1     -11.960  12.621  66.508  1.00  0.00    -0.331 C  
HETATM   16  C   UNL     1     -11.961  14.119  66.870  1.00  0.00    -0.479 C  
HETATM   17  C   UNL     1     -10.910  14.930  66.103  1.00  0.00    -0.327 C  
HETATM   18  C   UNL     1     -10.969  14.693  64.592  1.00  0.00    -0.325 C  
HETATM   19  C   UNL     1     -10.996  13.208  64.236  1.00  0.00    -0.428 C  
HETATM   20  O   UNL     1     -12.150  15.300  64.063  1.00  0.00    -0.901 OA 
HETATM   21  C   UNL     1     -12.112  12.478  64.985  1.00  0.00    -0.504 C  
HETATM   22  H   UNL     1     -12.187  15.153  63.126  1.00  0.00     0.000 HD 
ENDBRANCH  13  15
ENDBRANCH  12  13
ENDBRANCH  11  12
TORSDOF 3
ENDMDL
MODEL       57
REMARK 921   NORMALIZED FREE ENERGY PREDICTED BY IDOCK:   -4.94 KCAL/MOL
REMARK 922        TOTAL FREE ENERGY PREDICTED BY IDOCK:   -6.47 KCAL/MOL
REMARK 923 INTER-LIGAND FREE ENERGY PREDICTED BY IDOCK:   -5.93 KCAL/MOL
REMARK 924 INTRA-LIGAND FREE ENERGY PREDICTED BY IDOCK:   -0.54 KCAL/MOL
REMARK 927      BINDING AFFINITY PREDICTED BY RF-SCORE:    0.00 PKD
ROOT
HETATM    1  N   UNL     1      -8.276  14.348  66.687  1.00  0.00    -0.345 NA 
HETATM    2  H2  UNL     1      -7.973  14.271  67.658  1.00  0.00     0.000 HD 
HETATM    3  C   UNL     1      -8.741  15.663  66.467  1.00  0.00    -0.307 A  
HETATM    4  H1  UNL     1      -8.878  13.553  66.472  1.00  0.00     0.000 HD 
HETATM    5  C   UNL     1      -7.907  16.765  66.765  1.00  0.00    -0.246 A  
HETATM    6  C   UNL     1      -8.360  18.082  66.657  1.00  0.00    -0.284 A  
HETATM    7 BR   UNL     1      -6.099  16.505  67.309  1.00  0.00    -0.202 Br 
HETATM    8  C   UNL     1      -9.677  18.312  66.284  1.00  0.00    -0.291 A  
HETATM    9  C   UNL     1     -10.542  17.248  66.050  1.00  0.00    -0.217 A  
HETATM   10 BR   UNL     1     -10.314  20.086  66.136  1.00  0.00    -0.524 Br 
HETATM   11  C   UNL     1     -10.097  15.912  66.158  1.00  0.00    -0.334 A  
ENDROOT
BRANCH  11  12
HETATM   12  C   UNL     1     -11.130  14.813  65.996  1.00  0.00    -0.330 C  
BRANCH  12  13
HETATM   13  N   UNL     1     -10.793  13.881  64.908  1.00  0.00    -0.381 NA 
HETATM   14  H   UNL     1      -9.785  13.736  64.843  1.00  0.00     0.000 HD 
BRANCH  13  15
HETATM   15  C   UNL     1     -11.513  12.597  65.041  1.00  0.00    -0.329 C  
HETATM   16  C   UNL     1     -11.282  11.726  63.790  1.00  0.00    -0.518 C  
HETATM   17  C   UNL     1      -9.845  11.208  63.668  1.00  0.00    -0.387 C  
HETATM   18  C   UNL     1      -9.351  10.532  64.949  1.00  0.00    -0.232 C  
HETATM   19  C   UNL     1      -9.605  11.384  66.192  1.00  0.00    -0.242 C  
HETATM   20  O   UNL     1     -10.026   9.285  65.119  1.00  0.00    -0.395 OA 
HETATM   21  C   UNL     1     -11.073  11.807  66.284  1.00  0.00    -0.364 C  
HETATM   22  H   UNL     1      -9.719   8.865  65.913  1.00  0.00     0.000 HD 
ENDBRANCH  13  15
ENDBRANCH  12  13
ENDBRANCH  11  12
TORSDOF 3
ENDMDL
MODEL       58
REMARK 921   NORMALIZED FREE ENERGY PREDICTED BY IDOCK:   -4.92 KCAL/MOL
REMARK 922        TOTAL FREE ENERGY PREDICTED BY IDOCK:   -6.44 KCAL/MOL
REMARK 923 INTER-LIGAND FREE ENERGY PREDICTED BY IDOCK:   -5.98 KCAL/MOL
REMARK 924 INTRA-LIGAND FREE ENERGY PREDICTED BY IDOCK:   -0.47 KCAL/MOL
REMARK 927      BINDING AFFINITY PREDICTED BY RF-SCORE:    0.00 PKD
ROOT
HETATM    1  N   UNL     1     -11.795  10.069  69.406  1.00  0.00    -0.477 NA 
HETATM    2  H2  UNL     1     -12.672   9.620  69.140  1.00  0.00     0.000 HD 
HETATM    3  C   UNL     1     -12.096  11.220  70.167  1.00  0.00    -0.366 A  
HETATM    4  H1  UNL     1     -11.208  10.148  68.575  1.00  0.00     0.000 HD 
HETATM    5  C   UNL     1     -12.910  11.111  71.318  1.00  0.00    -0.412 A  
HETATM    6  C   UNL     1     -13.314  12.234  72.043  1.00  0.00    -0.491 A  
HETATM    7 BR   UNL     1     -13.481   9.408  71.956  1.00  0.00    -0.545 Br 
HETATM    8  C   UNL     1     -12.937  13.494  71.597  1.00  0.00    -0.359 A  
HETATM    9  C   UNL     1     -12.193  13.638  70.432  1.00  0.00    -0.434 A  
HETATM   10 BR   UNL     1     -13.476  15.030  72.560  1.00  0.00    -0.601 Br 
HETATM   11  C   UNL     1     -11.781  12.511  69.688  1.00  0.00    -0.372 A  
ENDROOT
BRANCH  11  12
HETATM   12  C   UNL     1     -11.069  12.761  68.371  1.00  0.00    -0.262 C  
BRANCH  12  13
HETATM   13  N   UNL     1      -9.909  11.874  68.183  1.00  0.00    -0.187 NA 
HETATM   14  H   UNL     1     -10.065  10.963  68.612  1.00  0.00     0.000 HD 
BRANCH  13  15
HETATM   15  C   UNL     1      -9.545  11.742  66.756  1.00  0.00    -0.200 C  
HETATM   16  C   UNL     1      -8.128  11.149  66.623  1.00  0.00    -0.159 C  
HETATM   17  C   UNL     1      -8.042   9.680  67.052  1.00  0.00    -0.113 C  
HETATM   18  C   UNL     1      -9.106   8.807  66.382  1.00  0.00    -0.177 C  
HETATM   19  C   UNL     1     -10.505   9.409  66.491  1.00  0.00    -0.199 C  
HETATM   20  O   UNL     1      -8.792   8.655  64.997  1.00  0.00    -0.336 OA 
HETATM   21  C   UNL     1     -10.530  10.852  65.982  1.00  0.00    -0.287 C  
HETATM   22  H   UNL     1      -9.452   8.113  64.582  1.00  0.00     0.000 HD 
ENDBRANCH  13  15
ENDBRANCH  12  13
ENDBRANCH  11  12
TORSDOF 3
ENDMDL
MODEL       59
REMARK 921   NORMALIZED FREE ENERGY PREDICTED BY IDOCK:   -4.91 KCAL/MOL
REMARK 922        TOTAL FREE ENERGY PREDICTED BY IDOCK:   -6.44 KCAL/MOL
REMARK 923 INTER-LIGAND FREE ENERGY PREDICTED BY IDOCK:   -5.79 KCAL/MOL
REMARK 924 INTRA-LIGAND FREE ENERGY PREDICTED BY IDOCK:   -0.65 KCAL/MOL
REMARK 927      BINDING AFFINITY PREDICTED BY RF-SCORE:    0.00 PKD
ROOT
HETATM    1  N   UNL     1     -10.683  11.391  69.788  1.00  0.00    -0.447 NA 
HETATM    2  H2  UNL     1     -11.602  11.385  70.231  1.00  0.00     0.000 HD 
HETATM    3  C   UNL     1     -10.849  11.698  68.420  1.00  0.00    -0.219 A  
HETATM    4  H1  UNL     1     -10.187  10.543  70.063  1.00  0.00     0.000 HD 
HETATM    5  C   UNL     1     -11.537  12.873  68.039  1.00  0.00    -0.342 A  
HETATM    6  C   UNL     1     -11.810  13.165  66.701  1.00  0.00    -0.449 A  
HETATM    7 BR   UNL     1     -12.108  14.139  69.344  1.00  0.00    -0.343 Br 
HETATM    8  C   UNL     1     -11.429  12.257  65.723  1.00  0.00    -0.367 A  
HETATM    9  C   UNL     1     -10.811  11.061  66.070  1.00  0.00    -0.189 A  
HETATM   10 BR   UNL     1     -11.792  12.629  63.905  1.00  0.00    -0.593 Br 
HETATM   11  C   UNL     1     -10.532  10.752  67.420  1.00  0.00    -0.268 A  
ENDROOT
BRANCH  11  12
HETATM   12  C   UNL     1      -9.958   9.380  67.721  1.00  0.00    -0.184 C  
BRANCH  12  13
HETATM   13  N   UNL     1     -10.888   8.540  68.493  1.00  0.00    -0.437 NA 
HETATM   14  H   UNL     1     -11.703   8.282  67.938  1.00  0.00     0.000 HD 
BRANCH  13  15
HETATM   15  C   UNL     1     -10.217   7.346  69.050  1.00  0.00    -0.199 C  
HETATM   16  C   UNL     1      -9.217   7.762  70.147  1.00  0.00    -0.153 C  
HETATM   17  C   UNL     1      -9.894   8.295  71.415  1.00  0.00    -0.240 C  
HETATM   18  C   UNL     1     -10.983   7.357  71.941  1.00  0.00    -0.233 C  
HETATM   19  C   UNL     1     -11.957   6.924  70.847  1.00  0.00    -0.430 C  
HETATM   20  O   UNL     1     -10.377   6.185  72.487  1.00  0.00    -0.187 OA 
HETATM   21  C   UNL     1     -11.215   6.339  69.643  1.00  0.00    -0.506 C  
HETATM   22  H   UNL     1     -11.052   5.603  72.814  1.00  0.00     0.000 HD 
ENDBRANCH  13  15
ENDBRANCH  12  13
ENDBRANCH  11  12
TORSDOF 3
ENDMDL
MODEL       60
REMARK 921   NORMALIZED FREE ENERGY PREDICTED BY IDOCK:   -4.90 KCAL/MOL
REMARK 922        TOTAL FREE ENERGY PREDICTED BY IDOCK:   -6.42 KCAL/MOL
REMARK 923 INTER-LIGAND FREE ENERGY PREDICTED BY IDOCK:   -5.90 KCAL/MOL
REMARK 924 INTRA-LIGAND FREE ENERGY PREDICTED BY IDOCK:   -0.52 KCAL/MOL
REMARK 927      BINDING AFFINITY PREDICTED BY RF-SCORE:    0.00 PKD
ROOT
HETATM    1  N   UNL     1     -12.253  10.965  67.998  1.00  0.00    -0.517 NA 
HETATM    2  H2  UNL     1     -12.485  11.022  67.006  1.00  0.00     0.000 HD 
HETATM    3  C   UNL     1     -10.962  11.504  68.187  1.00  0.00    -0.228 A  
HETATM    4  H1  UNL     1     -12.465  10.022  68.326  1.00  0.00     0.000 HD 
HETATM    5  C   UNL     1     -10.669  12.810  67.732  1.00  0.00    -0.220 A  
HETATM    6  C   UNL     1      -9.381  13.344  67.808  1.00  0.00    -0.211 A  
HETATM    7 BR   UNL     1     -12.035  13.924  67.009  1.00  0.00    -0.449 Br 
HETATM    8  C   UNL     1      -8.353  12.555  68.308  1.00  0.00    -0.167 A  
HETATM    9  C   UNL     1      -8.596  11.244  68.701  1.00  0.00    -0.139 A  
HETATM   10 BR   UNL     1      -6.601  13.256  68.417  1.00  0.00    -0.107 Br 
HETATM   11  C   UNL     1      -9.893  10.690  68.626  1.00  0.00    -0.183 A  
ENDROOT
BRANCH  11  12
HETATM   12  C   UNL     1     -10.050   9.220  68.968  1.00  0.00    -0.199 C  
BRANCH  12  13
HETATM   13  N   UNL     1     -11.353   8.923  69.584  1.00  0.00    -0.431 NA 
HETATM   14  H   UNL     1     -11.698   8.007  69.298  1.00  0.00     0.000 HD 
BRANCH  13  15
HETATM   15  C   UNL     1     -11.305   9.044  71.057  1.00  0.00    -0.297 C  
HETATM   16  C   UNL     1     -12.276  10.143  71.531  1.00  0.00    -0.473 C  
HETATM   17  C   UNL     1     -13.751   9.771  71.348  1.00  0.00    -0.241 C  
HETATM   18  C   UNL     1     -14.091   8.399  71.935  1.00  0.00    -0.442 C  
HETATM   19  C   UNL     1     -13.112   7.316  71.486  1.00  0.00    -0.434 C  
HETATM   20  O   UNL     1     -14.053   8.471  73.361  1.00  0.00    -0.842 OA 
HETATM   21  C   UNL     1     -11.664   7.726  71.763  1.00  0.00    -0.323 C  
HETATM   22  H   UNL     1     -14.264   7.619  73.726  1.00  0.00     0.000 HD 
ENDBRANCH  13  15
ENDBRANCH  12  13
ENDBRANCH  11  12
TORSDOF 3
ENDMDL
MODEL       61
REMARK 921   NORMALIZED FREE ENERGY PREDICTED BY IDOCK:   -4.90 KCAL/MOL
REMARK 922        TOTAL FREE ENERGY PREDICTED BY IDOCK:   -6.42 KCAL/MOL
REMARK 923 INTER-LIGAND FREE ENERGY PREDICTED BY IDOCK:   -5.97 KCAL/MOL
REMARK 924 INTRA-LIGAND FREE ENERGY PREDICTED BY IDOCK:   -0.44 KCAL/MOL
REMARK 927      BINDING AFFINITY PREDICTED BY RF-SCORE:    0.00 PKD
ROOT
HETATM    1  N   UNL     1     -10.761   8.961  68.244  1.00  0.00    -0.426 NA 
HETATM    2  H2  UNL     1     -11.412   8.176  68.217  1.00  0.00     0.000 HD 
HETATM    3  C   UNL     1     -11.268   9.931  69.136  1.00  0.00    -0.107 A  
HETATM    4  H1  UNL     1     -10.531   9.223  67.285  1.00  0.00     0.000 HD 
HETATM    5  C   UNL     1     -11.587   9.569  70.464  1.00  0.00    -0.254 A  
HETATM    6  C   UNL     1     -12.183  10.470  71.350  1.00  0.00    -0.429 A  
HETATM    7 BR   UNL     1     -11.195   7.824  71.125  1.00  0.00    -0.300 Br 
HETATM    8  C   UNL     1     -12.504  11.743  70.900  1.00  0.00    -0.318 A  
HETATM    9  C   UNL     1     -12.264  12.108  69.580  1.00  0.00    -0.183 A  
HETATM   10 BR   UNL     1     -13.314  12.978  72.080  1.00  0.00    -0.570 Br 
HETATM   11  C   UNL     1     -11.665  11.206  68.674  1.00  0.00    -0.389 A  
ENDROOT
BRANCH  11  12
HETATM   12  C   UNL     1     -11.541  11.644  67.226  1.00  0.00    -0.238 C  
BRANCH  12  13
HETATM   13  N   UNL     1     -11.479  13.107  67.086  1.00  0.00    -0.316 NA 
HETATM   14  H   UNL     1     -11.803  13.575  67.932  1.00  0.00     0.000 HD 
BRANCH  13  15
HETATM   15  C   UNL     1     -10.127  13.566  66.702  1.00  0.00    -0.277 C  
HETATM   16  C   UNL     1     -10.118  14.016  65.227  1.00  0.00    -0.345 C  
HETATM   17  C   UNL     1     -10.911  15.304  64.980  1.00  0.00    -0.457 C  
HETATM   18  C   UNL     1     -10.516  16.431  65.937  1.00  0.00    -0.337 C  
HETATM   19  C   UNL     1     -10.499  15.978  67.395  1.00  0.00    -0.308 C  
HETATM   20  O   UNL     1      -9.211  16.904  65.602  1.00  0.00    -0.512 OA 
HETATM   21  C   UNL     1      -9.634  14.729  67.578  1.00  0.00    -0.208 C  
HETATM   22  H   UNL     1      -8.966  17.603  66.195  1.00  0.00     0.000 HD 
ENDBRANCH  13  15
ENDBRANCH  12  13
ENDBRANCH  11  12
TORSDOF 3
ENDMDL
MODEL       62
REMARK 921   NORMALIZED FREE ENERGY PREDICTED BY IDOCK:   -4.86 KCAL/MOL
REMARK 922        TOTAL FREE ENERGY PREDICTED BY IDOCK:   -6.37 KCAL/MOL
REMARK 923 INTER-LIGAND FREE ENERGY PREDICTED BY IDOCK:   -5.76 KCAL/MOL
REMARK 924 INTRA-LIGAND FREE ENERGY PREDICTED BY IDOCK:   -0.61 KCAL/MOL
REMARK 927      BINDING AFFINITY PREDICTED BY RF-SCORE:    0.00 PKD
ROOT
HETATM    1  N   UNL     1     -10.384  12.665  65.283  1.00  0.00    -0.286 NA 
HETATM    2  H2  UNL     1     -10.876  12.090  64.599  1.00  0.00     0.000 HD 
HETATM    3  C   UNL     1     -10.787  12.264  66.576  1.00  0.00    -0.259 A  
HETATM    4  H1  UNL     1     -10.468  13.643  65.005  1.00  0.00     0.000 HD 
HETATM    5  C   UNL     1     -10.672  10.910  66.963  1.00  0.00    -0.271 A  
HETATM    6  C   UNL     1     -11.150  10.452  68.193  1.00  0.00    -0.344 A  
HETATM    7 BR   UNL     1      -9.828   9.635  65.824  1.00  0.00    -0.343 Br 
HETATM    8  C   UNL     1     -11.790  11.345  69.041  1.00  0.00    -0.348 A  
HETATM    9  C   UNL     1     -11.980  12.669  68.660  1.00  0.00    -0.264 A  
HETATM   10 BR   UNL     1     -12.449  10.747  70.709  1.00  0.00    -0.507 Br 
HETATM   11  C   UNL     1     -11.504  13.144  67.418  1.00  0.00    -0.375 A  
ENDROOT
BRANCH  11  12
HETATM   12  C   UNL     1     -11.850  14.570  67.033  1.00  0.00    -0.385 C  
BRANCH  12  13
HETATM   13  N   UNL     1     -10.672  15.452  67.027  1.00  0.00    -0.317 NA 
HETATM   14  H   UNL     1     -10.502  15.838  66.099  1.00  0.00     0.000 HD 
BRANCH  13  15
HETATM   15  C   UNL     1     -10.780  16.521  68.043  1.00  0.00    -0.343 C  
HETATM   16  C   UNL     1      -9.735  16.305  69.155  1.00  0.00    -0.265 C  
HETATM   17  C   UNL     1      -8.294  16.534  68.688  1.00  0.00    -0.235 C  
HETATM   18  C   UNL     1      -8.113  17.873  67.969  1.00  0.00    -0.252 C  
HETATM   19  C   UNL     1      -9.165  18.098  66.885  1.00  0.00    -0.278 C  
HETATM   20  O   UNL     1      -8.213  18.937  68.916  1.00  0.00    -0.320 OA 
HETATM   21  C   UNL     1     -10.580  17.921  67.440  1.00  0.00    -0.370 C  
HETATM   22  H   UNL     1      -8.101  19.768  68.471  1.00  0.00     0.000 HD 
ENDBRANCH  13  15
ENDBRANCH  12  13
ENDBRANCH  11  12
TORSDOF 3
ENDMDL
MODEL       63
REMARK 921   NORMALIZED FREE ENERGY PREDICTED BY IDOCK:   -4.86 KCAL/MOL
REMARK 922        TOTAL FREE ENERGY PREDICTED BY IDOCK:   -6.37 KCAL/MOL
REMARK 923 INTER-LIGAND FREE ENERGY PREDICTED BY IDOCK:   -5.77 KCAL/MOL
REMARK 924 INTRA-LIGAND FREE ENERGY PREDICTED BY IDOCK:   -0.60 KCAL/MOL
REMARK 927      BINDING AFFINITY PREDICTED BY RF-SCORE:    0.00 PKD
ROOT
HETATM    1  N   UNL     1     -13.276  12.803  72.113  1.00  0.00    -0.473 NA 
HETATM    2  H2  UNL     1     -12.820  12.447  72.953  1.00  0.00     0.000 HD 
HETATM    3  C   UNL     1     -12.662  12.212  70.987  1.00  0.00    -0.228 A  
HETATM    4  H1  UNL     1     -13.338  13.819  72.184  1.00  0.00     0.000 HD 
HETATM    5  C   UNL     1     -12.576  10.805  70.887  1.00  0.00    -0.401 A  
HETATM    6  C   UNL     1     -11.890  10.181  69.842  1.00  0.00    -0.206 A  
HETATM    7 BR   UNL     1     -13.419   9.679  72.173  1.00  0.00    -0.466 Br 
HETATM    8  C   UNL     1     -11.244  10.967  68.898  1.00  0.00    -0.267 A  
HETATM    9  C   UNL     1     -11.253  12.353  69.006  1.00  0.00    -0.320 A  
HETATM   10 BR   UNL     1     -10.306  10.144  67.477  1.00  0.00    -0.300 Br 
HETATM   11  C   UNL     1     -11.940  12.996  70.059  1.00  0.00    -0.383 A  
ENDROOT
BRANCH  11  12
HETATM   12  C   UNL     1     -11.807  14.504  70.166  1.00  0.00    -0.308 C  
BRANCH  12  13
HETATM   13  N   UNL     1     -10.447  14.971  69.854  1.00  0.00    -0.430 NA 
HETATM   14  H   UNL     1      -9.914  14.258  69.355  1.00  0.00     0.000 HD 
BRANCH  13  15
HETATM   15  C   UNL     1     -10.462  16.249  69.110  1.00  0.00    -0.280 C  
HETATM   16  C   UNL     1      -9.020  16.715  68.826  1.00  0.00    -0.253 C  
HETATM   17  C   UNL     1      -8.285  15.832  67.812  1.00  0.00    -0.154 C  
HETATM   18  C   UNL     1      -9.090  15.610  66.530  1.00  0.00    -0.303 C  
HETATM   19  C   UNL     1     -10.526  15.174  66.813  1.00  0.00    -0.283 C  
HETATM   20  O   UNL     1      -9.132  16.825  65.780  1.00  0.00    -0.515 OA 
HETATM   21  C   UNL     1     -11.220  16.139  67.777  1.00  0.00    -0.199 C  
HETATM   22  H   UNL     1      -9.632  16.688  64.984  1.00  0.00     0.000 HD 
ENDBRANCH  13  15
ENDBRANCH  12  13
ENDBRANCH  11  12
TORSDOF 3
ENDMDL
MODEL       64
REMARK 921   NORMALIZED FREE ENERGY PREDICTED BY IDOCK:   -4.85 KCAL/MOL
REMARK 922        TOTAL FREE ENERGY PREDICTED BY IDOCK:   -6.37 KCAL/MOL
REMARK 923 INTER-LIGAND FREE ENERGY PREDICTED BY IDOCK:   -5.83 KCAL/MOL
REMARK 924 INTRA-LIGAND FREE ENERGY PREDICTED BY IDOCK:   -0.53 KCAL/MOL
REMARK 927      BINDING AFFINITY PREDICTED BY RF-SCORE:    0.00 PKD
ROOT
HETATM    1  N   UNL     1     -11.053  18.272  67.267  1.00  0.00    -0.068 NA 
HETATM    2  H2  UNL     1     -10.782  18.462  66.303  1.00  0.00     0.000 HD 
HETATM    3  C   UNL     1      -9.965  17.658  67.925  1.00  0.00    -0.323 A  
HETATM    4  H1  UNL     1     -11.967  17.819  67.264  1.00  0.00     0.000 HD 
HETATM    5  C   UNL     1      -8.698  18.287  67.930  1.00  0.00    -0.265 A  
HETATM    6  C   UNL     1      -7.573  17.670  68.481  1.00  0.00    -0.272 A  
HETATM    7 BR   UNL     1      -8.469  20.033  67.201  1.00  0.00    -0.409 Br 
HETATM    8  C   UNL     1      -7.695  16.390  69.002  1.00  0.00    -0.235 A  
HETATM    9  C   UNL     1      -8.911  15.718  68.951  1.00  0.00    -0.226 A  
HETATM   10 BR   UNL     1      -6.183  15.533  69.749  1.00  0.00    -0.160 Br 
HETATM   11  C   UNL     1     -10.056  16.329  68.394  1.00  0.00    -0.237 A  
ENDROOT
BRANCH  11  12
HETATM   12  C   UNL     1     -11.313  15.488  68.276  1.00  0.00    -0.357 C  
BRANCH  12  13
HETATM   13  N   UNL     1     -11.178  14.412  67.280  1.00  0.00    -0.311 NA 
HETATM   14  H   UNL     1     -11.615  13.550  67.604  1.00  0.00     0.000 HD 
BRANCH  13  15
HETATM   15  C   UNL     1     -11.703  14.818  65.959  1.00  0.00    -0.248 C  
HETATM   16  C   UNL     1     -10.579  14.773  64.905  1.00  0.00    -0.431 C  
HETATM   17  C   UNL     1     -10.113  13.351  64.575  1.00  0.00    -0.220 C  
HETATM   18  C   UNL     1     -11.273  12.414  64.232  1.00  0.00    -0.353 C  
HETATM   19  C   UNL     1     -12.398  12.479  65.263  1.00  0.00    -0.469 C  
HETATM   20  O   UNL     1     -11.813  12.773  62.960  1.00  0.00    -0.780 OA 
HETATM   21  C   UNL     1     -12.860  13.921  65.490  1.00  0.00    -0.471 C  
HETATM   22  H   UNL     1     -12.533  12.192  62.746  1.00  0.00     0.000 HD 
ENDBRANCH  13  15
ENDBRANCH  12  13
ENDBRANCH  11  12
TORSDOF 3
ENDMDL
MODEL       65
REMARK 921   NORMALIZED FREE ENERGY PREDICTED BY IDOCK:   -4.85 KCAL/MOL
REMARK 922        TOTAL FREE ENERGY PREDICTED BY IDOCK:   -6.37 KCAL/MOL
REMARK 923 INTER-LIGAND FREE ENERGY PREDICTED BY IDOCK:   -5.64 KCAL/MOL
REMARK 924 INTRA-LIGAND FREE ENERGY PREDICTED BY IDOCK:   -0.72 KCAL/MOL
REMARK 927      BINDING AFFINITY PREDICTED BY RF-SCORE:    0.00 PKD
ROOT
HETATM    1  N   UNL     1      -8.780  14.433  68.932  1.00  0.00    -0.330 NA 
HETATM    2  H2  UNL     1      -8.607  14.408  69.937  1.00  0.00     0.000 HD 
HETATM    3  C   UNL     1      -8.971  15.777  68.544  1.00  0.00    -0.194 A  
HETATM    4  H1  UNL     1      -9.489  13.733  68.709  1.00  0.00     0.000 HD 
HETATM    5  C   UNL     1      -7.990  16.746  68.853  1.00  0.00    -0.237 A  
HETATM    6  C   UNL     1      -8.181  18.102  68.577  1.00  0.00    -0.320 A  
HETATM    7 BR   UNL     1      -6.331  16.242  69.646  1.00  0.00    -0.177 Br 
HETATM    8  C   UNL     1      -9.385  18.511  68.020  1.00  0.00    -0.301 A  
HETATM    9  C   UNL     1     -10.396  17.591  67.766  1.00  0.00    -0.367 A  
HETATM   10 BR   UNL     1      -9.669  20.342  67.642  1.00  0.00    -0.489 Br 
HETATM   11  C   UNL     1     -10.216  16.218  68.043  1.00  0.00    -0.256 A  
ENDROOT
BRANCH  11  12
HETATM   12  C   UNL     1     -11.407  15.300  67.842  1.00  0.00    -0.334 C  
BRANCH  12  13
HETATM   13  N   UNL     1     -11.063  14.095  67.069  1.00  0.00    -0.300 NA 
HETATM   14  H   UNL     1     -11.796  13.390  67.136  1.00  0.00     0.000 HD 
BRANCH  13  15
HETATM   15  C   UNL     1     -10.752  14.417  65.660  1.00  0.00    -0.320 C  
HETATM   16  C   UNL     1     -10.038  13.227  64.990  1.00  0.00    -0.247 C  
HETATM   17  C   UNL     1     -10.946  12.010  64.785  1.00  0.00    -0.361 C  
HETATM   18  C   UNL     1     -12.263  12.366  64.092  1.00  0.00    -0.468 C  
HETATM   19  C   UNL     1     -12.957  13.563  64.740  1.00  0.00    -0.059 C  
HETATM   20  O   UNL     1     -12.007  12.687  62.724  1.00  0.00    -0.524 OA 
HETATM   21  C   UNL     1     -12.011  14.761  64.848  1.00  0.00    -0.359 C  
HETATM   22  H   UNL     1     -12.824  12.909  62.293  1.00  0.00     0.000 HD 
ENDBRANCH  13  15
ENDBRANCH  12  13
ENDBRANCH  11  12
TORSDOF 3
ENDMDL
MODEL       66
REMARK 921   NORMALIZED FREE ENERGY PREDICTED BY IDOCK:   -4.83 KCAL/MOL
REMARK 922        TOTAL FREE ENERGY PREDICTED BY IDOCK:   -6.34 KCAL/MOL
REMARK 923 INTER-LIGAND FREE ENERGY PREDICTED BY IDOCK:   -5.94 KCAL/MOL
REMARK 924 INTRA-LIGAND FREE ENERGY PREDICTED BY IDOCK:   -0.40 KCAL/MOL
REMARK 927      BINDING AFFINITY PREDICTED BY RF-SCORE:    0.00 PKD
ROOT
HETATM    1  N   UNL     1     -11.092  14.063  69.780  1.00  0.00    -0.452 NA 
HETATM    2  H2  UNL     1     -11.754  14.809  69.995  1.00  0.00     0.000 HD 
HETATM    3  C   UNL     1     -11.226  13.728  68.415  1.00  0.00    -0.272 A  
HETATM    4  H1  UNL     1     -11.179  13.338  70.493  1.00  0.00     0.000 HD 
HETATM    5  C   UNL     1     -11.106  14.732  67.427  1.00  0.00    -0.324 A  
HETATM    6  C   UNL     1     -11.329  14.464  66.074  1.00  0.00    -0.335 A  
HETATM    7 BR   UNL     1     -10.606  16.511  67.894  1.00  0.00    -0.332 Br 
HETATM    8  C   UNL     1     -11.716  13.185  65.697  1.00  0.00    -0.364 A  
HETATM    9  C   UNL     1     -11.908  12.193  66.652  1.00  0.00    -0.314 A  
HETATM   10 BR   UNL     1     -12.028  12.801  63.872  1.00  0.00    -0.600 Br 
HETATM   11  C   UNL     1     -11.689  12.452  68.023  1.00  0.00    -0.414 A  
ENDROOT
BRANCH  11  12
HETATM   12  C   UNL     1     -12.028  11.349  69.008  1.00  0.00    -0.320 C  
BRANCH  12  13
HETATM   13  N   UNL     1     -11.336  10.087  68.699  1.00  0.00    -0.494 NA 
HETATM   14  H   UNL     1     -10.992  10.078  67.739  1.00  0.00     0.000 HD 
BRANCH  13  15
HETATM   15  C   UNL     1     -10.249   9.807  69.662  1.00  0.00    -0.233 C  
HETATM   16  C   UNL     1     -10.837   9.523  71.058  1.00  0.00    -0.423 C  
HETATM   17  C   UNL     1     -11.604   8.199  71.137  1.00  0.00    -0.306 C  
HETATM   18  C   UNL     1     -10.799   7.018  70.592  1.00  0.00    -0.246 C  
HETATM   19  C   UNL     1     -10.194   7.309  69.220  1.00  0.00    -0.193 C  
HETATM   20  O   UNL     1      -9.733   6.714  71.493  1.00  0.00    -0.165 OA 
HETATM   21  C   UNL     1      -9.386   8.609  69.234  1.00  0.00    -0.153 C  
HETATM   22  H   UNL     1      -9.233   5.980  71.156  1.00  0.00     0.000 HD 
ENDBRANCH  13  15
ENDBRANCH  12  13
ENDBRANCH  11  12
TORSDOF 3
ENDMDL
MODEL       67
REMARK 921   NORMALIZED FREE ENERGY PREDICTED BY IDOCK:   -4.81 KCAL/MOL
REMARK 922        TOTAL FREE ENERGY PREDICTED BY IDOCK:   -6.31 KCAL/MOL
REMARK 923 INTER-LIGAND FREE ENERGY PREDICTED BY IDOCK:   -5.91 KCAL/MOL
REMARK 924 INTRA-LIGAND FREE ENERGY PREDICTED BY IDOCK:   -0.40 KCAL/MOL
REMARK 927      BINDING AFFINITY PREDICTED BY RF-SCORE:    0.00 PKD
ROOT
HETATM    1  N   UNL     1     -12.287  15.524  69.797  1.00  0.00    -0.545 NA 
HETATM    2  H2  UNL     1     -11.754  16.021  70.511  1.00  0.00     0.000 HD 
HETATM    3  C   UNL     1     -12.524  14.208  70.252  1.00  0.00    -0.353 A  
HETATM    4  H1  UNL     1     -11.839  15.677  68.894  1.00  0.00     0.000 HD 
HETATM    5  C   UNL     1     -13.145  13.995  71.504  1.00  0.00    -0.363 A  
HETATM    6  C   UNL     1     -13.308  12.714  72.037  1.00  0.00    -0.555 A  
HETATM    7 BR   UNL     1     -13.818  15.458  72.524  1.00  0.00    -0.649 Br 
HETATM    8  C   UNL     1     -12.811  11.625  71.334  1.00  0.00    -0.356 A  
HETATM    9  C   UNL     1     -12.136  11.807  70.132  1.00  0.00    -0.398 A  
HETATM   10 BR   UNL     1     -13.017   9.882  72.038  1.00  0.00    -0.497 Br 
HETATM   11  C   UNL     1     -11.962  13.097  69.584  1.00  0.00    -0.370 A  
ENDROOT
BRANCH  11  12
HETATM   12  C   UNL     1     -11.118  13.218  68.329  1.00  0.00    -0.266 C  
BRANCH  12  13
HETATM   13  N   UNL     1      -9.769  12.655  68.502  1.00  0.00    -0.368 NA 
HETATM   14  H   UNL     1      -9.803  11.644  68.633  1.00  0.00     0.000 HD 
BRANCH  13  15
HETATM   15  C   UNL     1      -8.872  13.024  67.387  1.00  0.00    -0.203 C  
HETATM   16  C   UNL     1      -8.594  14.540  67.408  1.00  0.00    -0.213 C  
HETATM   17  C   UNL     1      -7.731  14.982  68.594  1.00  0.00    -0.128 C  
HETATM   18  C   UNL     1      -6.453  14.152  68.736  1.00  0.00    -0.091 C  
HETATM   19  C   UNL     1      -6.726  12.650  68.688  1.00  0.00    -0.088 C  
HETATM   20  O   UNL     1      -5.556  14.476  67.673  1.00  0.00    -0.312 OA 
HETATM   21  C   UNL     1      -7.532  12.272  67.443  1.00  0.00    -0.160 C  
HETATM   22  H   UNL     1      -4.763  13.962  67.761  1.00  0.00     0.000 HD 
ENDBRANCH  13  15
ENDBRANCH  12  13
ENDBRANCH  11  12
TORSDOF 3
ENDMDL
MODEL       68
REMARK 921   NORMALIZED FREE ENERGY PREDICTED BY IDOCK:   -4.79 KCAL/MOL
REMARK 922        TOTAL FREE ENERGY PREDICTED BY IDOCK:   -6.29 KCAL/MOL
REMARK 923 INTER-LIGAND FREE ENERGY PREDICTED BY IDOCK:   -6.18 KCAL/MOL
REMARK 924 INTRA-LIGAND FREE ENERGY PREDICTED BY IDOCK:   -0.11 KCAL/MOL
REMARK 927      BINDING AFFINITY PREDICTED BY RF-SCORE:    0.00 PKD
ROOT
HETATM    1  N   UNL     1     -10.109   9.689  65.232  1.00  0.00    -0.340 NA 
HETATM    2  H2  UNL     1     -10.611   8.902  64.820  1.00  0.00     0.000 HD 
HETATM    3  C   UNL     1     -10.282   9.645  66.633  1.00  0.00    -0.232 A  
HETATM    4  H1  UNL     1     -10.353  10.534  64.715  1.00  0.00     0.000 HD 
HETATM    5  C   UNL     1      -9.946   8.474  67.349  1.00  0.00    -0.214 A  
HETATM    6  C   UNL     1     -10.193   8.351  68.718  1.00  0.00    -0.223 A  
HETATM    7 BR   UNL     1      -9.107   7.001  66.477  1.00  0.00    -0.189 Br 
HETATM    8  C   UNL     1     -10.822   9.394  69.384  1.00  0.00    -0.189 A  
HETATM    9  C   UNL     1     -11.227  10.532  68.694  1.00  0.00    -0.328 A  
HETATM   10 BR   UNL     1     -11.172   9.248  71.236  1.00  0.00    -0.455 Br 
HETATM   11  C   UNL     1     -10.986  10.667  67.310  1.00  0.00    -0.348 A  
ENDROOT
BRANCH  11  12
HETATM   12  C   UNL     1     -11.558  11.888  66.613  1.00  0.00    -0.264 C  
BRANCH  12  13
HETATM   13  N   UNL     1     -11.038  13.147  67.171  1.00  0.00    -0.272 NA 
HETATM   14  H   UNL     1     -10.085  13.326  66.857  1.00  0.00     0.000 HD 
BRANCH  13  15
HETATM   15  C   UNL     1     -11.927  14.289  66.869  1.00  0.00    -0.438 C  
HETATM   16  C   UNL     1     -11.127  15.606  66.899  1.00  0.00    -0.181 C  
HETATM   17  C   UNL     1     -10.131  15.739  65.743  1.00  0.00    -0.399 C  
HETATM   18  C   UNL     1     -10.772  15.476  64.378  1.00  0.00     0.260 C  
HETATM   19  C   UNL     1     -11.587  14.185  64.357  1.00  0.00    -0.377 C  
HETATM   20  O   UNL     1     -11.644  16.559  64.048  1.00  0.00    -1.490 OA 
HETATM   21  C   UNL     1     -12.607  14.153  65.497  1.00  0.00    -0.501 C  
HETATM   22  H   UNL     1     -12.042  16.396  63.201  1.00  0.00     0.000 HD 
ENDBRANCH  13  15
ENDBRANCH  12  13
ENDBRANCH  11  12
TORSDOF 3
ENDMDL
MODEL       69
REMARK 921   NORMALIZED FREE ENERGY PREDICTED BY IDOCK:   -4.79 KCAL/MOL
REMARK 922        TOTAL FREE ENERGY PREDICTED BY IDOCK:   -6.29 KCAL/MOL
REMARK 923 INTER-LIGAND FREE ENERGY PREDICTED BY IDOCK:   -5.59 KCAL/MOL
REMARK 924 INTRA-LIGAND FREE ENERGY PREDICTED BY IDOCK:   -0.70 KCAL/MOL
REMARK 927      BINDING AFFINITY PREDICTED BY RF-SCORE:    0.00 PKD
ROOT
HETATM    1  N   UNL     1      -9.008  14.556  68.907  1.00  0.00    -0.320 NA 
HETATM    2  H2  UNL     1      -9.748  14.826  69.556  1.00  0.00     0.000 HD 
HETATM    3  C   UNL     1      -9.595  14.268  67.656  1.00  0.00    -0.219 A  
HETATM    4  H1  UNL     1      -8.415  13.862  69.363  1.00  0.00     0.000 HD 
HETATM    5  C   UNL     1     -10.418  15.229  67.024  1.00  0.00    -0.292 A  
HETATM    6  C   UNL     1     -11.097  14.950  65.837  1.00  0.00    -0.338 A  
HETATM    7 BR   UNL     1     -10.621  16.977  67.757  1.00  0.00    -0.328 Br 
HETATM    8  C   UNL     1     -10.992  13.681  65.283  1.00  0.00    -0.310 A  
HETATM    9  C   UNL     1     -10.246  12.693  65.916  1.00  0.00    -0.290 A  
HETATM   10 BR   UNL     1     -11.908  13.279  63.678  1.00  0.00    -0.464 Br 
HETATM   11  C   UNL     1      -9.556  12.961  67.119  1.00  0.00    -0.225 A  
ENDROOT
BRANCH  11  12
HETATM   12  C   UNL     1      -8.858  11.800  67.802  1.00  0.00    -0.163 C  
BRANCH  12  13
HETATM   13  N   UNL     1      -9.516  11.409  69.058  1.00  0.00    -0.406 NA 
HETATM   14  H   UNL     1      -9.592  12.199  69.699  1.00  0.00     0.000 HD 
BRANCH  13  15
HETATM   15  C   UNL     1     -10.834  10.785  68.817  1.00  0.00    -0.221 C  
HETATM   16  C   UNL     1     -10.653   9.357  68.266  1.00  0.00    -0.256 C  
HETATM   17  C   UNL     1     -10.084   8.376  69.297  1.00  0.00    -0.202 C  
HETATM   18  C   UNL     1     -10.854   8.398  70.619  1.00  0.00    -0.231 C  
HETATM   19  C   UNL     1     -11.057   9.815  71.151  1.00  0.00    -0.414 C  
HETATM   20  O   UNL     1     -12.139   7.804  70.430  1.00  0.00    -0.489 OA 
HETATM   21  C   UNL     1     -11.691  10.719  70.092  1.00  0.00    -0.425 C  
HETATM   22  H   UNL     1     -12.617   7.817  71.250  1.00  0.00     0.000 HD 
ENDBRANCH  13  15
ENDBRANCH  12  13
ENDBRANCH  11  12
TORSDOF 3
ENDMDL
MODEL       70
REMARK 921   NORMALIZED FREE ENERGY PREDICTED BY IDOCK:   -4.76 KCAL/MOL
REMARK 922        TOTAL FREE ENERGY PREDICTED BY IDOCK:   -6.26 KCAL/MOL
REMARK 923 INTER-LIGAND FREE ENERGY PREDICTED BY IDOCK:   -5.83 KCAL/MOL
REMARK 924 INTRA-LIGAND FREE ENERGY PREDICTED BY IDOCK:   -0.43 KCAL/MOL
REMARK 927      BINDING AFFINITY PREDICTED BY RF-SCORE:    0.00 PKD
ROOT
HETATM    1  N   UNL     1     -10.731  10.870  69.706  1.00  0.00    -0.434 NA 
HETATM    2  H2  UNL     1      -9.906  10.970  70.296  1.00  0.00     0.000 HD 
HETATM    3  C   UNL     1     -10.714   9.582  69.127  1.00  0.00    -0.210 A  
HETATM    4  H1  UNL     1     -10.804  11.695  69.109  1.00  0.00     0.000 HD 
HETATM    5  C   UNL     1     -10.613   8.439  69.952  1.00  0.00    -0.228 A  
HETATM    6  C   UNL     1     -10.492   7.154  69.419  1.00  0.00    -0.232 A  
HETATM    7 BR   UNL     1     -10.662   8.596  71.851  1.00  0.00    -0.432 Br 
HETATM    8  C   UNL     1     -10.430   7.001  68.040  1.00  0.00    -0.208 A  
HETATM    9  C   UNL     1     -10.459   8.111  67.204  1.00  0.00    -0.396 A  
HETATM   10 BR   UNL     1     -10.262   5.271  67.296  1.00  0.00    -0.253 Br 
HETATM   11  C   UNL     1     -10.578   9.416  67.730  1.00  0.00    -0.317 A  
ENDROOT
BRANCH  11  12
HETATM   12  C   UNL     1     -10.489  10.576  66.757  1.00  0.00    -0.242 C  
BRANCH  12  13
HETATM   13  N   UNL     1     -11.624  11.505  66.885  1.00  0.00    -0.514 NA 
HETATM   14  H   UNL     1     -11.605  11.993  67.779  1.00  0.00     0.000 HD 
BRANCH  13  15
HETATM   15  C   UNL     1     -11.687  12.455  65.754  1.00  0.00    -0.414 C  
HETATM   16  C   UNL     1     -12.652  13.611  66.085  1.00  0.00    -0.391 C  
HETATM   17  C   UNL     1     -12.128  14.544  67.181  1.00  0.00    -0.301 C  
HETATM   18  C   UNL     1     -10.704  15.033  66.910  1.00  0.00    -0.308 C  
HETATM   19  C   UNL     1      -9.754  13.890  66.556  1.00  0.00    -0.303 C  
HETATM   20  O   UNL     1     -10.718  15.955  65.819  1.00  0.00    -0.331 OA 
HETATM   21  C   UNL     1     -10.309  13.043  65.408  1.00  0.00    -0.313 C  
HETATM   22  H   UNL     1      -9.834  16.258  65.650  1.00  0.00     0.000 HD 
ENDBRANCH  13  15
ENDBRANCH  12  13
ENDBRANCH  11  12
TORSDOF 3
ENDMDL
MODEL       71
REMARK 921   NORMALIZED FREE ENERGY PREDICTED BY IDOCK:   -4.73 KCAL/MOL
REMARK 922        TOTAL FREE ENERGY PREDICTED BY IDOCK:   -6.23 KCAL/MOL
REMARK 923 INTER-LIGAND FREE ENERGY PREDICTED BY IDOCK:   -5.74 KCAL/MOL
REMARK 924 INTRA-LIGAND FREE ENERGY PREDICTED BY IDOCK:   -0.48 KCAL/MOL
REMARK 927      BINDING AFFINITY PREDICTED BY RF-SCORE:    0.00 PKD
ROOT
HETATM    1  N   UNL     1     -10.773  18.760  67.223  1.00  0.00    -0.446 NA 
HETATM    2  H2  UNL     1     -10.447  19.023  66.293  1.00  0.00     0.000 HD 
HETATM    3  C   UNL     1      -9.738  18.056  67.876  1.00  0.00    -0.297 A  
HETATM    4  H1  UNL     1     -11.698  18.338  67.135  1.00  0.00     0.000 HD 
HETATM    5  C   UNL     1      -8.456  18.640  67.998  1.00  0.00    -0.291 A  
HETATM    6  C   UNL     1      -7.378  17.941  68.548  1.00  0.00    -0.268 A  
HETATM    7 BR   UNL     1      -8.140  20.434  67.437  1.00  0.00    -0.337 Br 
HETATM    8  C   UNL     1      -7.563  16.625  68.948  1.00  0.00    -0.240 A  
HETATM    9  C   UNL     1      -8.794  16.001  68.779  1.00  0.00    -0.227 A  
HETATM   10 BR   UNL     1      -6.117  15.659  69.690  1.00  0.00    -0.166 Br 
HETATM   11  C   UNL     1      -9.891  16.695  68.222  1.00  0.00    -0.253 A  
ENDROOT
BRANCH  11  12
HETATM   12  C   UNL     1     -11.164  15.909  67.970  1.00  0.00    -0.319 C  
BRANCH  12  13
HETATM   13  N   UNL     1     -10.922  14.684  67.190  1.00  0.00    -0.307 NA 
HETATM   14  H   UNL     1     -10.003  14.291  67.392  1.00  0.00     0.000 HD 
BRANCH  13  15
HETATM   15  C   UNL     1     -11.992  13.684  67.392  1.00  0.00    -0.376 C  
HETATM   16  C   UNL     1     -12.031  12.701  66.206  1.00  0.00    -0.439 C  
HETATM   17  C   UNL     1     -10.813  11.772  66.146  1.00  0.00    -0.336 C  
HETATM   18  C   UNL     1     -10.541  11.069  67.477  1.00  0.00    -0.227 C  
HETATM   19  C   UNL     1     -10.530  12.040  68.656  1.00  0.00    -0.238 C  
HETATM   20  O   UNL     1     -11.556  10.093  67.714  1.00  0.00    -0.627 OA 
HETATM   21  C   UNL     1     -11.805  12.885  68.693  1.00  0.00    -0.347 C  
HETATM   22  H   UNL     1     -11.388   9.656  68.541  1.00  0.00     0.000 HD 
ENDBRANCH  13  15
ENDBRANCH  12  13
ENDBRANCH  11  12
TORSDOF 3
ENDMDL
MODEL       72
REMARK 921   NORMALIZED FREE ENERGY PREDICTED BY IDOCK:   -4.72 KCAL/MOL
REMARK 922        TOTAL FREE ENERGY PREDICTED BY IDOCK:   -6.21 KCAL/MOL
REMARK 923 INTER-LIGAND FREE ENERGY PREDICTED BY IDOCK:   -5.51 KCAL/MOL
REMARK 924 INTRA-LIGAND FREE ENERGY PREDICTED BY IDOCK:   -0.70 KCAL/MOL
REMARK 927      BINDING AFFINITY PREDICTED BY RF-SCORE:    0.00 PKD
ROOT
HETATM    1  N   UNL     1      -9.414  14.023  68.884  1.00  0.00    -0.397 NA 
HETATM    2  H2  UNL     1      -9.690  14.992  69.042  1.00  0.00     0.000 HD 
HETATM    3  C   UNL     1      -9.994  13.585  67.673  1.00  0.00    -0.229 A  
HETATM    4  H1  UNL     1      -9.573  13.497  69.744  1.00  0.00     0.000 HD 
HETATM    5  C   UNL     1      -9.774  14.313  66.482  1.00  0.00    -0.291 A  
HETATM    6  C   UNL     1     -10.407  13.974  65.284  1.00  0.00    -0.403 A  
HETATM    7 BR   UNL     1      -8.573  15.793  66.447  1.00  0.00    -0.303 Br 
HETATM    8  C   UNL     1     -11.306  12.916  65.274  1.00  0.00    -0.300 A  
HETATM    9  C   UNL     1     -11.595  12.223  66.444  1.00  0.00    -0.445 A  
HETATM   10 BR   UNL     1     -12.179  12.442  63.665  1.00  0.00    -0.669 Br 
HETATM   11  C   UNL     1     -10.964  12.558  67.662  1.00  0.00    -0.279 A  
ENDROOT
BRANCH  11  12
HETATM   12  C   UNL     1     -11.418  11.826  68.912  1.00  0.00    -0.297 C  
BRANCH  12  13
HETATM   13  N   UNL     1     -10.304  11.164  69.610  1.00  0.00    -0.440 NA 
HETATM   14  H   UNL     1     -10.019  11.691  70.436  1.00  0.00     0.000 HD 
BRANCH  13  15
HETATM   15  C   UNL     1     -10.626   9.762  69.952  1.00  0.00    -0.265 C  
HETATM   16  C   UNL     1     -10.478   8.865  68.706  1.00  0.00    -0.223 C  
HETATM   17  C   UNL     1      -9.025   8.696  68.248  1.00  0.00    -0.142 C  
HETATM   18  C   UNL     1      -8.094   8.273  69.386  1.00  0.00    -0.115 C  
HETATM   19  C   UNL     1      -8.260   9.145  70.629  1.00  0.00    -0.220 C  
HETATM   20  O   UNL     1      -8.373   6.920  69.750  1.00  0.00    -0.129 OA 
HETATM   21  C   UNL     1      -9.724   9.212  71.069  1.00  0.00    -0.359 C  
HETATM   22  H   UNL     1      -7.795   6.657  70.456  1.00  0.00     0.000 HD 
ENDBRANCH  13  15
ENDBRANCH  12  13
ENDBRANCH  11  12
TORSDOF 3
ENDMDL
MODEL       73
REMARK 921   NORMALIZED FREE ENERGY PREDICTED BY IDOCK:   -4.71 KCAL/MOL
REMARK 922        TOTAL FREE ENERGY PREDICTED BY IDOCK:   -6.20 KCAL/MOL
REMARK 923 INTER-LIGAND FREE ENERGY PREDICTED BY IDOCK:   -6.23 KCAL/MOL
REMARK 924 INTRA-LIGAND FREE ENERGY PREDICTED BY IDOCK:    0.03 KCAL/MOL
REMARK 927      BINDING AFFINITY PREDICTED BY RF-SCORE:    0.00 PKD
ROOT
HETATM    1  N   UNL     1     -10.466  17.085  65.382  1.00  0.00    -0.644 NA 
HETATM    2  H2  UNL     1     -10.180  17.614  64.558  1.00  0.00     0.000 HD 
HETATM    3  C   UNL     1      -9.536  17.331  66.416  1.00  0.00    -0.274 A  
HETATM    4  H1  UNL     1     -10.668  16.126  65.097  1.00  0.00     0.000 HD 
HETATM    5  C   UNL     1      -9.255  18.659  66.811  1.00  0.00    -0.308 A  
HETATM    6  C   UNL     1      -8.272  18.953  67.758  1.00  0.00    -0.296 A  
HETATM    7 BR   UNL     1     -10.231  20.124  66.081  1.00  0.00    -0.437 Br 
HETATM    8  C   UNL     1      -7.524  17.914  68.296  1.00  0.00    -0.260 A  
HETATM    9  C   UNL     1      -7.730  16.604  67.878  1.00  0.00    -0.170 A  
HETATM   10 BR   UNL     1      -6.184  18.289  69.577  1.00  0.00    -0.225 Br 
HETATM   11  C   UNL     1      -8.719  16.294  66.919  1.00  0.00    -0.237 A  
ENDROOT
BRANCH  11  12
HETATM   12  C   UNL     1      -8.803  14.857  66.437  1.00  0.00    -0.161 C  
BRANCH  12  13
HETATM   13  N   UNL     1      -9.882  14.656  65.457  1.00  0.00    -0.473 NA 
HETATM   14  H   UNL     1      -9.512  14.558  64.512  1.00  0.00     0.000 HD 
BRANCH  13  15
HETATM   15  C   UNL     1     -10.746  13.512  65.818  1.00  0.00    -0.275 C  
HETATM   16  C   UNL     1     -12.211  13.814  65.445  1.00  0.00    -0.465 C  
HETATM   17  C   UNL     1     -12.456  13.860  63.933  1.00  0.00    -0.221 C  
HETATM   18  C   UNL     1     -11.912  12.626  63.210  1.00  0.00    -0.441 C  
HETATM   19  C   UNL     1     -10.470  12.311  63.600  1.00  0.00    -0.483 C  
HETATM   20  O   UNL     1     -12.719  11.492  63.533  1.00  0.00    -0.554 OA 
HETATM   21  C   UNL     1     -10.314  12.212  65.119  1.00  0.00    -0.311 C  
HETATM   22  H   UNL     1     -12.382  10.726  63.085  1.00  0.00     0.000 HD 
ENDBRANCH  13  15
ENDBRANCH  12  13
ENDBRANCH  11  12
TORSDOF 3
ENDMDL
MODEL       74
REMARK 921   NORMALIZED FREE ENERGY PREDICTED BY IDOCK:   -4.71 KCAL/MOL
REMARK 922        TOTAL FREE ENERGY PREDICTED BY IDOCK:   -6.20 KCAL/MOL
REMARK 923 INTER-LIGAND FREE ENERGY PREDICTED BY IDOCK:   -5.75 KCAL/MOL
REMARK 924 INTRA-LIGAND FREE ENERGY PREDICTED BY IDOCK:   -0.45 KCAL/MOL
REMARK 927      BINDING AFFINITY PREDICTED BY RF-SCORE:    0.00 PKD
ROOT
HETATM    1  N   UNL     1     -12.184  14.737  65.158  1.00  0.00    -0.261 NA 
HETATM    2  H2  UNL     1     -12.935  14.057  65.042  1.00  0.00     0.000 HD 
HETATM    3  C   UNL     1     -11.143  14.133  65.897  1.00  0.00    -0.306 A  
HETATM    4  H1  UNL     1     -12.591  15.617  65.478  1.00  0.00     0.000 HD 
HETATM    5  C   UNL     1     -10.579  12.915  65.454  1.00  0.00    -0.289 A  
HETATM    6  C   UNL     1      -9.618  12.233  66.204  1.00  0.00    -0.248 A  
HETATM    7 BR   UNL     1     -11.088  12.150  63.784  1.00  0.00    -0.551 Br 
HETATM    8  C   UNL     1      -9.237  12.746  67.436  1.00  0.00    -0.193 A  
HETATM    9  C   UNL     1      -9.823  13.907  67.930  1.00  0.00    -0.228 A  
HETATM   10 BR   UNL     1      -7.942  11.837  68.471  1.00  0.00    -0.122 Br 
HETATM   11  C   UNL     1     -10.797  14.605  67.183  1.00  0.00    -0.303 A  
ENDROOT
BRANCH  11  12
HETATM   12  C   UNL     1     -11.465  15.797  67.842  1.00  0.00    -0.221 C  
BRANCH  12  13
HETATM   13  N   UNL     1     -10.590  16.979  67.883  1.00  0.00    -0.358 NA 
HETATM   14  H   UNL     1      -9.877  16.888  68.606  1.00  0.00     0.000 HD 
BRANCH  13  15
HETATM   15  C   UNL     1      -9.985  17.262  66.564  1.00  0.00    -0.305 C  
HETATM   16  C   UNL     1     -10.655  18.495  65.926  1.00  0.00    -0.336 C  
HETATM   17  C   UNL     1     -10.329  19.806  66.649  1.00  0.00    -0.614 C  
HETATM   18  C   UNL     1      -8.826  20.003  66.863  1.00  0.00    -0.347 C  
HETATM   19  C   UNL     1      -8.158  18.771  67.471  1.00  0.00    -0.273 C  
HETATM   20  O   UNL     1      -8.200  20.277  65.609  1.00  0.00    -0.511 OA 
HETATM   21  C   UNL     1      -8.471  17.513  66.658  1.00  0.00    -0.288 C  
HETATM   22  H   UNL     1      -7.268  20.400  65.741  1.00  0.00     0.000 HD 
ENDBRANCH  13  15
ENDBRANCH  12  13
ENDBRANCH  11  12
TORSDOF 3
ENDMDL
MODEL       75
REMARK 921   NORMALIZED FREE ENERGY PREDICTED BY IDOCK:   -4.70 KCAL/MOL
REMARK 922        TOTAL FREE ENERGY PREDICTED BY IDOCK:   -6.19 KCAL/MOL
REMARK 923 INTER-LIGAND FREE ENERGY PREDICTED BY IDOCK:   -5.72 KCAL/MOL
REMARK 924 INTRA-LIGAND FREE ENERGY PREDICTED BY IDOCK:   -0.47 KCAL/MOL
REMARK 927      BINDING AFFINITY PREDICTED BY RF-SCORE:    0.00 PKD
ROOT
HETATM    1  N   UNL     1     -11.322   9.129  71.616  1.00  0.00    -0.355 NA 
HETATM    2  H2  UNL     1     -10.598   8.856  72.280  1.00  0.00     0.000 HD 
HETATM    3  C   UNL     1     -11.208   8.311  70.470  1.00  0.00    -0.239 A  
HETATM    4  H1  UNL     1     -11.307  10.144  71.520  1.00  0.00     0.000 HD 
HETATM    5  C   UNL     1     -11.229   6.904  70.603  1.00  0.00    -0.301 A  
HETATM    6  C   UNL     1     -11.020   6.058  69.511  1.00  0.00    -0.467 A  
HETATM    7 BR   UNL     1     -11.571   6.085  72.290  1.00  0.00    -0.320 Br 
HETATM    8  C   UNL     1     -10.746   6.617  68.270  1.00  0.00    -0.257 A  
HETATM    9  C   UNL     1     -10.652   7.996  68.121  1.00  0.00    -0.174 A  
HETATM   10 BR   UNL     1     -10.455   5.491  66.779  1.00  0.00    -0.367 Br 
HETATM   11  C   UNL     1     -10.858   8.862  69.217  1.00  0.00    -0.113 A  
ENDROOT
BRANCH  11  12
HETATM   12  C   UNL     1     -10.627  10.345  68.993  1.00  0.00    -0.221 C  
BRANCH  12  13
HETATM   13  N   UNL     1     -11.044  10.782  67.651  1.00  0.00    -0.305 NA 
HETATM   14  H   UNL     1     -11.970  11.208  67.670  1.00  0.00     0.000 HD 
BRANCH  13  15
HETATM   15  C   UNL     1     -10.049  11.684  67.033  1.00  0.00    -0.209 C  
HETATM   16  C   UNL     1      -9.345  10.973  65.860  1.00  0.00    -0.229 C  
HETATM   17  C   UNL     1     -10.262  10.732  64.656  1.00  0.00    -0.419 C  
HETATM   18  C   UNL     1     -10.999  11.998  64.214  1.00  0.00    -0.346 C  
HETATM   19  C   UNL     1     -11.675  12.716  65.380  1.00  0.00    -0.428 C  
HETATM   20  O   UNL     1     -10.071  12.902  63.611  1.00  0.00    -0.676 OA 
HETATM   21  C   UNL     1     -10.684  12.985  66.515  1.00  0.00    -0.290 C  
HETATM   22  H   UNL     1     -10.529  13.688  63.336  1.00  0.00     0.000 HD 
ENDBRANCH  13  15
ENDBRANCH  12  13
ENDBRANCH  11  12
TORSDOF 3
ENDMDL
MODEL       76
REMARK 921   NORMALIZED FREE ENERGY PREDICTED BY IDOCK:   -4.69 KCAL/MOL
REMARK 922        TOTAL FREE ENERGY PREDICTED BY IDOCK:   -6.18 KCAL/MOL
REMARK 923 INTER-LIGAND FREE ENERGY PREDICTED BY IDOCK:   -5.79 KCAL/MOL
REMARK 924 INTRA-LIGAND FREE ENERGY PREDICTED BY IDOCK:   -0.39 KCAL/MOL
REMARK 927      BINDING AFFINITY PREDICTED BY RF-SCORE:    0.00 PKD
ROOT
HETATM    1  N   UNL     1     -11.839  10.255  68.838  1.00  0.00    -0.597 NA 
HETATM    2  H2  UNL     1     -12.715   9.745  68.726  1.00  0.00     0.000 HD 
HETATM    3  C   UNL     1     -12.048  11.306  69.758  1.00  0.00    -0.325 A  
HETATM    4  H1  UNL     1     -11.463  10.458  67.911  1.00  0.00     0.000 HD 
HETATM    5  C   UNL     1     -12.570  11.027  71.041  1.00  0.00    -0.411 A  
HETATM    6  C   UNL     1     -12.886  12.043  71.945  1.00  0.00    -0.338 A  
HETATM    7 BR   UNL     1     -12.848   9.230  71.615  1.00  0.00    -0.484 Br 
HETATM    8  C   UNL     1     -12.719  13.365  71.556  1.00  0.00    -0.293 A  
HETATM    9  C   UNL     1     -12.271  13.675  70.277  1.00  0.00    -0.423 A  
HETATM   10 BR   UNL     1     -13.144  14.759  72.762  1.00  0.00    -0.619 Br 
HETATM   11  C   UNL     1     -11.951  12.656  69.352  1.00  0.00    -0.318 A  
ENDROOT
BRANCH  11  12
HETATM   12  C   UNL     1     -11.578  13.079  67.944  1.00  0.00    -0.342 C  
BRANCH  12  13
HETATM   13  N   UNL     1     -10.616  14.193  67.928  1.00  0.00    -0.241 NA 
HETATM   14  H   UNL     1     -10.158  14.301  68.833  1.00  0.00     0.000 HD 
BRANCH  13  15
HETATM   15  C   UNL     1      -9.628  14.051  66.838  1.00  0.00    -0.271 C  
HETATM   16  C   UNL     1      -9.371  15.417  66.172  1.00  0.00    -0.367 C  
HETATM   17  C   UNL     1      -8.623  16.402  67.076  1.00  0.00    -0.223 C  
HETATM   18  C   UNL     1      -7.353  15.800  67.681  1.00  0.00    -0.164 C  
HETATM   19  C   UNL     1      -7.602  14.434  68.317  1.00  0.00    -0.124 C  
HETATM   20  O   UNL     1      -6.368  15.642  66.659  1.00  0.00    -0.051 OA 
HETATM   21  C   UNL     1      -8.289  13.482  67.335  1.00  0.00    -0.199 C  
HETATM   22  H   UNL     1      -5.580  15.268  67.034  1.00  0.00     0.000 HD 
ENDBRANCH  13  15
ENDBRANCH  12  13
ENDBRANCH  11  12
TORSDOF 3
ENDMDL
MODEL       77
REMARK 921   NORMALIZED FREE ENERGY PREDICTED BY IDOCK:   -4.69 KCAL/MOL
REMARK 922        TOTAL FREE ENERGY PREDICTED BY IDOCK:   -6.18 KCAL/MOL
REMARK 923 INTER-LIGAND FREE ENERGY PREDICTED BY IDOCK:   -5.69 KCAL/MOL
REMARK 924 INTRA-LIGAND FREE ENERGY PREDICTED BY IDOCK:   -0.48 KCAL/MOL
REMARK 927      BINDING AFFINITY PREDICTED BY RF-SCORE:    0.00 PKD
ROOT
HETATM    1  N   UNL     1     -11.912  15.527  70.004  1.00  0.00    -0.344 NA 
HETATM    2  H2  UNL     1     -11.493  15.997  70.806  1.00  0.00     0.000 HD 
HETATM    3  C   UNL     1     -12.306  14.230  70.402  1.00  0.00    -0.352 A  
HETATM    4  H1  UNL     1     -11.296  15.647  69.200  1.00  0.00     0.000 HD 
HETATM    5  C   UNL     1     -13.159  14.063  71.517  1.00  0.00    -0.363 A  
HETATM    6  C   UNL     1     -13.493  12.798  72.006  1.00  0.00    -0.540 A  
HETATM    7 BR   UNL     1     -13.923  15.570  72.400  1.00  0.00    -0.610 Br 
HETATM    8  C   UNL     1     -12.939  11.677  71.403  1.00  0.00    -0.324 A  
HETATM    9  C   UNL     1     -12.044  11.810  70.348  1.00  0.00    -0.440 A  
HETATM   10 BR   UNL     1     -13.373   9.954  72.051  1.00  0.00    -0.479 Br 
HETATM   11  C   UNL     1     -11.695  13.084  69.846  1.00  0.00    -0.326 A  
ENDROOT
BRANCH  11  12
HETATM   12  C   UNL     1     -10.628  13.146  68.770  1.00  0.00    -0.201 C  
BRANCH  12  13
HETATM   13  N   UNL     1     -10.664  11.978  67.875  1.00  0.00    -0.203 NA 
HETATM   14  H   UNL     1     -10.963  12.239  66.936  1.00  0.00     0.000 HD 
BRANCH  13  15
HETATM   15  C   UNL     1      -9.369  11.266  67.849  1.00  0.00    -0.161 C  
HETATM   16  C   UNL     1      -9.522   9.863  68.468  1.00  0.00    -0.149 C  
HETATM   17  C   UNL     1     -10.361   8.909  67.612  1.00  0.00    -0.313 C  
HETATM   18  C   UNL     1      -9.893   8.857  66.156  1.00  0.00    -0.256 C  
HETATM   19  C   UNL     1      -9.715  10.248  65.551  1.00  0.00    -0.326 C  
HETATM   20  O   UNL     1      -8.639   8.176  66.085  1.00  0.00    -0.123 OA 
HETATM   21  C   UNL     1      -8.811  11.121  66.424  1.00  0.00    -0.182 C  
HETATM   22  H   UNL     1      -8.347   8.144  65.182  1.00  0.00     0.000 HD 
ENDBRANCH  13  15
ENDBRANCH  12  13
ENDBRANCH  11  12
TORSDOF 3
ENDMDL
MODEL       78
REMARK 921   NORMALIZED FREE ENERGY PREDICTED BY IDOCK:   -4.69 KCAL/MOL
REMARK 922        TOTAL FREE ENERGY PREDICTED BY IDOCK:   -6.18 KCAL/MOL
REMARK 923 INTER-LIGAND FREE ENERGY PREDICTED BY IDOCK:   -5.64 KCAL/MOL
REMARK 924 INTRA-LIGAND FREE ENERGY PREDICTED BY IDOCK:   -0.54 KCAL/MOL
REMARK 927      BINDING AFFINITY PREDICTED BY RF-SCORE:    0.00 PKD
ROOT
HETATM    1  N   UNL     1      -9.847  12.203  69.102  1.00  0.00    -0.355 NA 
HETATM    2  H2  UNL     1      -8.840  12.274  68.957  1.00  0.00     0.000 HD 
HETATM    3  C   UNL     1     -10.480  12.192  67.840  1.00  0.00    -0.208 A  
HETATM    4  H1  UNL     1     -10.122  12.891  69.804  1.00  0.00     0.000 HD 
HETATM    5  C   UNL     1     -10.099  11.240  66.868  1.00  0.00    -0.212 A  
HETATM    6  C   UNL     1     -10.627  11.256  65.575  1.00  0.00    -0.306 A  
HETATM    7 BR   UNL     1      -8.853   9.859  67.286  1.00  0.00    -0.142 Br 
HETATM    8  C   UNL     1     -11.521  12.258  65.225  1.00  0.00    -0.351 A  
HETATM    9  C   UNL     1     -11.864  13.249  66.138  1.00  0.00    -0.437 A  
HETATM   10 BR   UNL     1     -12.245  12.303  63.479  1.00  0.00    -0.652 Br 
HETATM   11  C   UNL     1     -11.335  13.247  67.448  1.00  0.00    -0.337 A  
ENDROOT
BRANCH  11  12
HETATM   12  C   UNL     1     -11.673  14.424  68.343  1.00  0.00    -0.332 C  
BRANCH  12  13
HETATM   13  N   UNL     1     -11.360  15.717  67.714  1.00  0.00    -0.303 NA 
HETATM   14  H   UNL     1     -12.202  16.274  67.573  1.00  0.00     0.000 HD 
BRANCH  13  15
HETATM   15  C   UNL     1     -10.340  16.467  68.477  1.00  0.00    -0.289 C  
HETATM   16  C   UNL     1      -8.928  16.093  67.985  1.00  0.00    -0.185 C  
HETATM   17  C   UNL     1      -8.622  16.600  66.572  1.00  0.00    -0.320 C  
HETATM   18  C   UNL     1      -8.923  18.091  66.402  1.00  0.00    -0.230 C  
HETATM   19  C   UNL     1     -10.312  18.466  66.914  1.00  0.00    -0.417 C  
HETATM   20  O   UNL     1      -7.959  18.856  67.128  1.00  0.00    -0.237 OA 
HETATM   21  C   UNL     1     -10.521  17.989  68.353  1.00  0.00    -0.326 C  
HETATM   22  H   UNL     1      -8.146  19.781  67.023  1.00  0.00     0.000 HD 
ENDBRANCH  13  15
ENDBRANCH  12  13
ENDBRANCH  11  12
TORSDOF 3
ENDMDL
MODEL       79
REMARK 921   NORMALIZED FREE ENERGY PREDICTED BY IDOCK:   -4.67 KCAL/MOL
REMARK 922        TOTAL FREE ENERGY PREDICTED BY IDOCK:   -6.15 KCAL/MOL
REMARK 923 INTER-LIGAND FREE ENERGY PREDICTED BY IDOCK:   -5.53 KCAL/MOL
REMARK 924 INTRA-LIGAND FREE ENERGY PREDICTED BY IDOCK:   -0.62 KCAL/MOL
REMARK 927      BINDING AFFINITY PREDICTED BY RF-SCORE:    0.00 PKD
ROOT
HETATM    1  N   UNL     1     -12.097  11.490  70.755  1.00  0.00    -0.378 NA 
HETATM    2  H2  UNL     1     -11.369  11.657  71.450  1.00  0.00     0.000 HD 
HETATM    3  C   UNL     1     -11.577  10.636  69.759  1.00  0.00    -0.309 A  
HETATM    4  H1  UNL     1     -12.506  12.388  70.493  1.00  0.00     0.000 HD 
HETATM    5  C   UNL     1     -11.010   9.392  70.121  1.00  0.00    -0.246 A  
HETATM    6  C   UNL     1     -10.396   8.561  69.182  1.00  0.00    -0.227 A  
HETATM    7 BR   UNL     1     -11.080   8.773  71.922  1.00  0.00    -0.442 Br 
HETATM    8  C   UNL     1     -10.306   8.988  67.864  1.00  0.00    -0.235 A  
HETATM    9  C   UNL     1     -10.793  10.235  67.489  1.00  0.00    -0.355 A  
HETATM   10 BR   UNL     1      -9.474   7.881  66.575  1.00  0.00    -0.273 Br 
HETATM   11  C   UNL     1     -11.414  11.086  68.429  1.00  0.00    -0.378 A  
ENDROOT
BRANCH  11  12
HETATM   12  C   UNL     1     -11.817  12.472  67.963  1.00  0.00    -0.325 C  
BRANCH  12  13
HETATM   13  N   UNL     1     -10.977  13.528  68.550  1.00  0.00    -0.258 NA 
HETATM   14  H   UNL     1     -10.722  13.307  69.513  1.00  0.00     0.000 HD 
BRANCH  13  15
HETATM   15  C   UNL     1      -9.780  13.801  67.727  1.00  0.00    -0.230 C  
HETATM   16  C   UNL     1     -10.169  13.884  66.237  1.00  0.00    -0.299 C  
HETATM   17  C   UNL     1     -11.007  15.121  65.896  1.00  0.00    -0.339 C  
HETATM   18  C   UNL     1     -10.380  16.419  66.410  1.00  0.00    -0.313 C  
HETATM   19  C   UNL     1      -9.971  16.327  67.878  1.00  0.00    -0.241 C  
HETATM   20  O   UNL     1      -9.215  16.720  65.640  1.00  0.00    -0.503 OA 
HETATM   21  C   UNL     1      -9.079  15.109  68.131  1.00  0.00    -0.176 C  
HETATM   22  H   UNL     1      -8.825  17.525  65.958  1.00  0.00     0.000 HD 
ENDBRANCH  13  15
ENDBRANCH  12  13
ENDBRANCH  11  12
TORSDOF 3
ENDMDL
MODEL       80
REMARK 921   NORMALIZED FREE ENERGY PREDICTED BY IDOCK:   -4.67 KCAL/MOL
REMARK 922        TOTAL FREE ENERGY PREDICTED BY IDOCK:   -6.15 KCAL/MOL
REMARK 923 INTER-LIGAND FREE ENERGY PREDICTED BY IDOCK:   -5.51 KCAL/MOL
REMARK 924 INTRA-LIGAND FREE ENERGY PREDICTED BY IDOCK:   -0.63 KCAL/MOL
REMARK 927      BINDING AFFINITY PREDICTED BY RF-SCORE:    0.00 PKD
ROOT
HETATM    1  N   UNL     1      -8.102  14.221  67.025  1.00  0.00    -0.373 NA 
HETATM    2  H2  UNL     1      -7.736  14.162  67.975  1.00  0.00     0.000 HD 
HETATM    3  C   UNL     1      -8.487  15.557  66.776  1.00  0.00    -0.279 A  
HETATM    4  H1  UNL     1      -8.772  13.464  66.888  1.00  0.00     0.000 HD 
HETATM    5  C   UNL     1      -7.559  16.606  66.965  1.00  0.00    -0.202 A  
HETATM    6  C   UNL     1      -7.925  17.947  66.828  1.00  0.00    -0.259 A  
HETATM    7 BR   UNL     1      -5.739  16.237  67.396  1.00  0.00    -0.142 Br 
HETATM    8  C   UNL     1      -9.246  18.257  66.536  1.00  0.00    -0.292 A  
HETATM    9  C   UNL     1     -10.198  17.251  66.411  1.00  0.00    -0.333 A  
HETATM   10 BR   UNL     1      -9.766  20.065  66.350  1.00  0.00    -0.560 Br 
HETATM   11  C   UNL     1      -9.841  15.892  66.550  1.00  0.00    -0.277 A  
ENDROOT
BRANCH  11  12
HETATM   12  C   UNL     1     -10.958  14.865  66.510  1.00  0.00    -0.327 C  
BRANCH  12  13
HETATM   13  N   UNL     1     -10.987  14.019  67.714  1.00  0.00    -0.254 NA 
HETATM   14  H   UNL     1     -11.201  14.566  68.547  1.00  0.00     0.000 HD 
BRANCH  13  15
HETATM   15  C   UNL     1     -11.919  12.881  67.563  1.00  0.00    -0.296 C  
HETATM   16  C   UNL     1     -11.570  12.073  66.298  1.00  0.00    -0.378 C  
HETATM   17  C   UNL     1     -10.245  11.311  66.410  1.00  0.00    -0.273 C  
HETATM   18  C   UNL     1     -10.155  10.469  67.685  1.00  0.00    -0.179 C  
HETATM   19  C   UNL     1     -10.527  11.264  68.935  1.00  0.00    -0.232 C  
HETATM   20  O   UNL     1     -11.044   9.356  67.583  1.00  0.00    -0.488 OA 
HETATM   21  C   UNL     1     -11.891  11.939  68.778  1.00  0.00    -0.371 C  
HETATM   22  H   UNL     1     -10.989   8.833  68.374  1.00  0.00     0.000 HD 
ENDBRANCH  13  15
ENDBRANCH  12  13
ENDBRANCH  11  12
TORSDOF 3
ENDMDL
MODEL       81
REMARK 921   NORMALIZED FREE ENERGY PREDICTED BY IDOCK:   -4.66 KCAL/MOL
REMARK 922        TOTAL FREE ENERGY PREDICTED BY IDOCK:   -6.14 KCAL/MOL
REMARK 923 INTER-LIGAND FREE ENERGY PREDICTED BY IDOCK:   -6.25 KCAL/MOL
REMARK 924 INTRA-LIGAND FREE ENERGY PREDICTED BY IDOCK:    0.11 KCAL/MOL
REMARK 927      BINDING AFFINITY PREDICTED BY RF-SCORE:    0.00 PKD
ROOT
HETATM    1  N   UNL     1     -11.965  16.024  70.394  1.00  0.00    -0.423 NA 
HETATM    2  H2  UNL     1     -11.434  16.407  71.177  1.00  0.00     0.000 HD 
HETATM    3  C   UNL     1     -12.223  14.660  70.653  1.00  0.00    -0.325 A  
HETATM    4  H1  UNL     1     -11.504  16.300  69.526  1.00  0.00     0.000 HD 
HETATM    5  C   UNL     1     -12.861  14.279  71.855  1.00  0.00    -0.348 A  
HETATM    6  C   UNL     1     -13.046  12.937  72.197  1.00  0.00    -0.466 A  
HETATM    7 BR   UNL     1     -13.528  15.589  73.068  1.00  0.00    -0.606 Br 
HETATM    8  C   UNL     1     -12.554  11.953  71.350  1.00  0.00    -0.240 A  
HETATM    9  C   UNL     1     -11.862  12.297  70.193  1.00  0.00    -0.352 A  
HETATM   10 BR   UNL     1     -12.789  10.130  71.794  1.00  0.00    -0.557 Br 
HETATM   11  C   UNL     1     -11.666  13.649  69.838  1.00  0.00    -0.346 A  
ENDROOT
BRANCH  11  12
HETATM   12  C   UNL     1     -10.806  13.937  68.622  1.00  0.00    -0.262 C  
BRANCH  12  13
HETATM   13  N   UNL     1      -9.535  14.590  68.975  1.00  0.00    -0.369 NA 
HETATM   14  H   UNL     1      -8.752  14.177  68.467  1.00  0.00     0.000 HD 
BRANCH  13  15
HETATM   15  C   UNL     1      -9.594  16.053  68.774  1.00  0.00    -0.221 C  
HETATM   16  C   UNL     1      -8.186  16.666  68.915  1.00  0.00    -0.231 C  
HETATM   17  C   UNL     1      -7.239  16.283  67.773  1.00  0.00    -0.152 C  
HETATM   18  C   UNL     1      -7.849  16.535  66.392  1.00  0.00    -0.289 C  
HETATM   19  C   UNL     1      -9.255  15.951  66.261  1.00  0.00    -0.372 C  
HETATM   20  O   UNL     1      -7.927  17.942  66.157  1.00  0.00    -0.409 OA 
HETATM   21  C   UNL     1     -10.163  16.431  67.396  1.00  0.00    -0.281 C  
HETATM   22  H   UNL     1      -8.306  18.099  65.300  1.00  0.00     0.000 HD 
ENDBRANCH  13  15
ENDBRANCH  12  13
ENDBRANCH  11  12
TORSDOF 3
ENDMDL
MODEL       82
REMARK 921   NORMALIZED FREE ENERGY PREDICTED BY IDOCK:   -4.64 KCAL/MOL
REMARK 922        TOTAL FREE ENERGY PREDICTED BY IDOCK:   -6.12 KCAL/MOL
REMARK 923 INTER-LIGAND FREE ENERGY PREDICTED BY IDOCK:   -5.58 KCAL/MOL
REMARK 924 INTRA-LIGAND FREE ENERGY PREDICTED BY IDOCK:   -0.53 KCAL/MOL
REMARK 927      BINDING AFFINITY PREDICTED BY RF-SCORE:    0.00 PKD
ROOT
HETATM    1  N   UNL     1      -9.467  14.459  65.862  1.00  0.00    -0.515 NA 
HETATM    2  H2  UNL     1      -8.522  14.283  66.202  1.00  0.00     0.000 HD 
HETATM    3  C   UNL     1     -10.299  14.724  66.972  1.00  0.00    -0.255 A  
HETATM    4  H1  UNL     1      -9.716  13.720  65.204  1.00  0.00     0.000 HD 
HETATM    5  C   UNL     1      -9.954  15.747  67.884  1.00  0.00    -0.227 A  
HETATM    6  C   UNL     1     -10.693  15.977  69.047  1.00  0.00    -0.274 A  
HETATM    7 BR   UNL     1      -8.464  16.890  67.555  1.00  0.00    -0.210 Br 
HETATM    8  C   UNL     1     -11.772  15.152  69.332  1.00  0.00    -0.332 A  
HETATM    9  C   UNL     1     -12.096  14.094  68.490  1.00  0.00    -0.312 A  
HETATM   10 BR   UNL     1     -12.784  15.441  70.903  1.00  0.00    -0.544 Br 
HETATM   11  C   UNL     1     -11.355  13.849  67.313  1.00  0.00    -0.344 A  
ENDROOT
BRANCH  11  12
HETATM   12  C   UNL     1     -11.704  12.610  66.509  1.00  0.00    -0.400 C  
BRANCH  12  13
HETATM   13  N   UNL     1     -11.648  11.382  67.318  1.00  0.00    -0.560 NA 
HETATM   14  H   UNL     1     -12.112  10.606  66.846  1.00  0.00     0.000 HD 
BRANCH  13  15
HETATM   15  C   UNL     1     -10.261  11.033  67.692  1.00  0.00    -0.182 C  
HETATM   16  C   UNL     1     -10.240   9.708  68.479  1.00  0.00    -0.216 C  
HETATM   17  C   UNL     1     -10.595   8.487  67.623  1.00  0.00    -0.268 C  
HETATM   18  C   UNL     1      -9.775   8.413  66.333  1.00  0.00    -0.242 C  
HETATM   19  C   UNL     1      -9.773   9.735  65.567  1.00  0.00    -0.382 C  
HETATM   20  O   UNL     1      -8.422   8.080  66.649  1.00  0.00    -0.124 OA 
HETATM   21  C   UNL     1      -9.343  10.896  66.466  1.00  0.00    -0.195 C  
HETATM   22  H   UNL     1      -7.913   8.033  65.849  1.00  0.00     0.000 HD 
ENDBRANCH  13  15
ENDBRANCH  12  13
ENDBRANCH  11  12
TORSDOF 3
ENDMDL
MODEL       83
REMARK 921   NORMALIZED FREE ENERGY PREDICTED BY IDOCK:   -4.64 KCAL/MOL
REMARK 922        TOTAL FREE ENERGY PREDICTED BY IDOCK:   -6.11 KCAL/MOL
REMARK 923 INTER-LIGAND FREE ENERGY PREDICTED BY IDOCK:   -5.54 KCAL/MOL
REMARK 924 INTRA-LIGAND FREE ENERGY PREDICTED BY IDOCK:   -0.57 KCAL/MOL
REMARK 927      BINDING AFFINITY PREDICTED BY RF-SCORE:    0.00 PKD
ROOT
HETATM    1  N   UNL     1      -8.516  16.081  66.495  1.00  0.00    -0.287 NA 
HETATM    2  H2  UNL     1      -7.639  16.507  66.793  1.00  0.00     0.000 HD 
HETATM    3  C   UNL     1      -9.402  16.062  67.595  1.00  0.00    -0.214 A  
HETATM    4  H1  UNL     1      -8.303  15.214  65.999  1.00  0.00     0.000 HD 
HETATM    5  C   UNL     1      -9.697  17.262  68.282  1.00  0.00    -0.294 A  
HETATM    6  C   UNL     1     -10.487  17.275  69.433  1.00  0.00    -0.142 A  
HETATM    7 BR   UNL     1      -9.047  18.938  67.650  1.00  0.00    -0.322 Br 
HETATM    8  C   UNL     1     -10.962  16.072  69.938  1.00  0.00    -0.353 A  
HETATM    9  C   UNL     1     -10.633  14.869  69.323  1.00  0.00    -0.248 A  
HETATM   10 BR   UNL     1     -12.029  16.065  71.498  1.00  0.00    -0.519 Br 
HETATM   11  C   UNL     1      -9.832  14.841  68.160  1.00  0.00    -0.221 A  
ENDROOT
BRANCH  11  12
HETATM   12  C   UNL     1      -9.428  13.483  67.619  1.00  0.00    -0.222 C  
BRANCH  12  13
HETATM   13  N   UNL     1      -9.522  12.422  68.635  1.00  0.00    -0.398 NA 
HETATM   14  H   UNL     1      -9.821  12.796  69.535  1.00  0.00     0.000 HD 
BRANCH  13  15
HETATM   15  C   UNL     1     -10.396  11.315  68.194  1.00  0.00    -0.186 C  
HETATM   16  C   UNL     1      -9.893   9.978  68.773  1.00  0.00    -0.173 C  
HETATM   17  C   UNL     1     -10.074   9.866  70.290  1.00  0.00    -0.295 C  
HETATM   18  C   UNL     1     -11.499  10.197  70.740  1.00  0.00    -0.357 C  
HETATM   19  C   UNL     1     -12.008  11.508  70.144  1.00  0.00    -0.452 C  
HETATM   20  O   UNL     1     -12.381   9.150  70.331  1.00  0.00    -0.476 OA 
HETATM   21  C   UNL     1     -11.859  11.521  68.621  1.00  0.00    -0.382 C  
HETATM   22  H   UNL     1     -13.265   9.355  70.610  1.00  0.00     0.000 HD 
ENDBRANCH  13  15
ENDBRANCH  12  13
ENDBRANCH  11  12
TORSDOF 3
ENDMDL
MODEL       84
REMARK 921   NORMALIZED FREE ENERGY PREDICTED BY IDOCK:   -4.62 KCAL/MOL
REMARK 922        TOTAL FREE ENERGY PREDICTED BY IDOCK:   -6.09 KCAL/MOL
REMARK 923 INTER-LIGAND FREE ENERGY PREDICTED BY IDOCK:   -5.37 KCAL/MOL
REMARK 924 INTRA-LIGAND FREE ENERGY PREDICTED BY IDOCK:   -0.72 KCAL/MOL
REMARK 927      BINDING AFFINITY PREDICTED BY RF-SCORE:    0.00 PKD
ROOT
HETATM    1  N   UNL     1      -9.548  10.487  69.847  1.00  0.00    -0.395 NA 
HETATM    2  H2  UNL     1      -8.840  11.124  70.213  1.00  0.00     0.000 HD 
HETATM    3  C   UNL     1      -9.999  10.986  68.606  1.00  0.00    -0.199 A  
HETATM    4  H1  UNL     1     -10.219  10.288  70.590  1.00  0.00     0.000 HD 
HETATM    5  C   UNL     1      -9.070  11.262  67.577  1.00  0.00    -0.151 A  
HETATM    6  C   UNL     1      -9.460  11.849  66.371  1.00  0.00    -0.238 A  
HETATM    7 BR   UNL     1      -7.227  10.820  67.777  1.00  0.00    -0.089 Br 
HETATM    8  C   UNL     1     -10.790  12.206  66.195  1.00  0.00    -0.282 A  
HETATM    9  C   UNL     1     -11.716  12.009  67.214  1.00  0.00    -0.339 A  
HETATM   10 BR   UNL     1     -11.340  13.005  64.572  1.00  0.00    -0.405 Br 
HETATM   11  C   UNL     1     -11.334  11.420  68.439  1.00  0.00    -0.346 A  
ENDROOT
BRANCH  11  12
HETATM   12  C   UNL     1     -12.378  11.344  69.537  1.00  0.00    -0.145 C  
BRANCH  12  13
HETATM   13  N   UNL     1     -12.085  12.255  70.655  1.00  0.00    -0.484 NA 
HETATM   14  H   UNL     1     -11.104  12.533  70.660  1.00  0.00     0.000 HD 
BRANCH  13  15
HETATM   15  C   UNL     1     -12.978  13.433  70.652  1.00  0.00     0.013 C  
HETATM   16  C   UNL     1     -13.458  13.740  72.084  1.00  0.00    -0.596 C  
HETATM   17  C   UNL     1     -12.344  14.259  73.000  1.00  0.00    -0.100 C  
HETATM   18  C   UNL     1     -11.567  15.424  72.382  1.00  0.00    -0.447 C  
HETATM   19  C   UNL     1     -11.116  15.130  70.953  1.00  0.00    -0.289 C  
HETATM   20  O   UNL     1     -12.396  16.587  72.357  1.00  0.00    -0.483 OA 
HETATM   21  C   UNL     1     -12.291  14.684  70.080  1.00  0.00    -0.390 C  
HETATM   22  H   UNL     1     -11.915  17.310  71.974  1.00  0.00     0.000 HD 
ENDBRANCH  13  15
ENDBRANCH  12  13
ENDBRANCH  11  12
TORSDOF 3
ENDMDL
MODEL       85
REMARK 921   NORMALIZED FREE ENERGY PREDICTED BY IDOCK:   -4.61 KCAL/MOL
REMARK 922        TOTAL FREE ENERGY PREDICTED BY IDOCK:   -6.08 KCAL/MOL
REMARK 923 INTER-LIGAND FREE ENERGY PREDICTED BY IDOCK:   -5.73 KCAL/MOL
REMARK 924 INTRA-LIGAND FREE ENERGY PREDICTED BY IDOCK:   -0.35 KCAL/MOL
REMARK 927      BINDING AFFINITY PREDICTED BY RF-SCORE:    0.00 PKD
ROOT
HETATM    1  N   UNL     1      -9.841   8.667  65.725  1.00  0.00    -0.447 NA 
HETATM    2  H2  UNL     1      -8.939   8.922  65.323  1.00  0.00     0.000 HD 
HETATM    3  C   UNL     1     -10.402   9.815  66.327  1.00  0.00    -0.165 A  
HETATM    4  H1  UNL     1      -9.721   7.814  66.271  1.00  0.00     0.000 HD 
HETATM    5  C   UNL     1     -10.567  10.998  65.571  1.00  0.00    -0.200 A  
HETATM    6  C   UNL     1     -11.025  12.184  66.150  1.00  0.00    -0.335 A  
HETATM    7 BR   UNL     1     -10.194  11.026  63.702  1.00  0.00    -0.420 Br 
HETATM    8  C   UNL     1     -11.287  12.210  67.513  1.00  0.00    -0.326 A  
HETATM    9  C   UNL     1     -11.070  11.081  68.296  1.00  0.00    -0.316 A  
HETATM   10 BR   UNL     1     -11.902  13.805  68.320  1.00  0.00    -0.406 Br 
HETATM   11  C   UNL     1     -10.605   9.877  67.724  1.00  0.00    -0.313 A  
ENDROOT
BRANCH  11  12
HETATM   12  C   UNL     1     -10.288   8.729  68.664  1.00  0.00    -0.205 C  
BRANCH  12  13
HETATM   13  N   UNL     1     -11.230   8.652  69.793  1.00  0.00    -0.447 NA 
HETATM   14  H   UNL     1     -12.144   9.025  69.539  1.00  0.00     0.000 HD 
BRANCH  13  15
HETATM   15  C   UNL     1     -11.339   7.277  70.324  1.00  0.00    -0.238 C  
HETATM   16  C   UNL     1      -9.999   6.842  70.951  1.00  0.00    -0.200 C  
HETATM   17  C   UNL     1      -9.660   7.595  72.242  1.00  0.00    -0.215 C  
HETATM   18  C   UNL     1     -10.809   7.581  73.252  1.00  0.00    -0.355 C  
HETATM   19  C   UNL     1     -12.141   7.985  72.624  1.00  0.00    -0.283 C  
HETATM   20  O   UNL     1     -10.951   6.266  73.791  1.00  0.00    -0.430 OA 
HETATM   21  C   UNL     1     -12.447   7.146  71.382  1.00  0.00    -0.427 C  
HETATM   22  H   UNL     1     -11.664   6.256  74.418  1.00  0.00     0.000 HD 
ENDBRANCH  13  15
ENDBRANCH  12  13
ENDBRANCH  11  12
TORSDOF 3
ENDMDL
MODEL       86
REMARK 921   NORMALIZED FREE ENERGY PREDICTED BY IDOCK:   -4.60 KCAL/MOL
REMARK 922        TOTAL FREE ENERGY PREDICTED BY IDOCK:   -6.07 KCAL/MOL
REMARK 923 INTER-LIGAND FREE ENERGY PREDICTED BY IDOCK:   -5.63 KCAL/MOL
REMARK 924 INTRA-LIGAND FREE ENERGY PREDICTED BY IDOCK:   -0.43 KCAL/MOL
REMARK 927      BINDING AFFINITY PREDICTED BY RF-SCORE:    0.00 PKD
ROOT
HETATM    1  N   UNL     1     -11.933   9.650  70.332  1.00  0.00    -0.444 NA 
HETATM    2  H2  UNL     1     -12.261  10.042  71.214  1.00  0.00     0.000 HD 
HETATM    3  C   UNL     1     -10.537   9.453  70.421  1.00  0.00    -0.261 A  
HETATM    4  H1  UNL     1     -12.321  10.203  69.568  1.00  0.00     0.000 HD 
HETATM    5  C   UNL     1      -9.999   8.687  71.481  1.00  0.00    -0.274 A  
HETATM    6  C   UNL     1      -8.621   8.550  71.664  1.00  0.00    -0.247 A  
HETATM    7 BR   UNL     1     -11.139   7.775  72.706  1.00  0.00    -0.455 Br 
HETATM    8  C   UNL     1      -7.758   9.218  70.806  1.00  0.00    -0.139 A  
HETATM    9  C   UNL     1      -8.257  10.033  69.796  1.00  0.00    -0.191 A  
HETATM   10 BR   UNL     1      -5.889   9.051  71.038  1.00  0.00    -0.053 Br 
HETATM   11  C   UNL     1      -9.647  10.182  69.601  1.00  0.00    -0.237 A  
ENDROOT
BRANCH  11  12
HETATM   12  C   UNL     1     -10.106  11.176  68.550  1.00  0.00    -0.201 C  
BRANCH  12  13
HETATM   13  N   UNL     1     -10.406  12.499  69.122  1.00  0.00    -0.422 NA 
HETATM   14  H   UNL     1      -9.798  13.218  68.731  1.00  0.00     0.000 HD 
BRANCH  13  15
HETATM   15  C   UNL     1     -11.832  12.855  68.963  1.00  0.00    -0.306 C  
HETATM   16  C   UNL     1     -12.521  12.914  70.340  1.00  0.00    -0.247 C  
HETATM   17  C   UNL     1     -12.053  14.090  71.205  1.00  0.00    -0.355 C  
HETATM   18  C   UNL     1     -12.114  15.428  70.464  1.00  0.00    -0.371 C  
HETATM   19  C   UNL     1     -11.455  15.361  69.088  1.00  0.00    -0.344 C  
HETATM   20  O   UNL     1     -13.479  15.810  70.286  1.00  0.00    -0.719 OA 
HETATM   21  C   UNL     1     -12.020  14.208  68.256  1.00  0.00    -0.367 C  
HETATM   22  H   UNL     1     -13.518  16.640  69.827  1.00  0.00     0.000 HD 
ENDBRANCH  13  15
ENDBRANCH  12  13
ENDBRANCH  11  12
TORSDOF 3
ENDMDL
MODEL       87
REMARK 921   NORMALIZED FREE ENERGY PREDICTED BY IDOCK:   -4.58 KCAL/MOL
REMARK 922        TOTAL FREE ENERGY PREDICTED BY IDOCK:   -6.05 KCAL/MOL
REMARK 923 INTER-LIGAND FREE ENERGY PREDICTED BY IDOCK:   -5.33 KCAL/MOL
REMARK 924 INTRA-LIGAND FREE ENERGY PREDICTED BY IDOCK:   -0.72 KCAL/MOL
REMARK 927      BINDING AFFINITY PREDICTED BY RF-SCORE:    0.00 PKD
ROOT
HETATM    1  N   UNL     1     -10.772   9.338  71.480  1.00  0.00    -0.357 NA 
HETATM    2  H2  UNL     1     -10.406   8.851  72.299  1.00  0.00     0.000 HD 
HETATM    3  C   UNL     1     -10.737   8.453  70.381  1.00  0.00    -0.231 A  
HETATM    4  H1  UNL     1     -10.316  10.249  71.415  1.00  0.00     0.000 HD 
HETATM    5  C   UNL     1     -11.368   7.191  70.470  1.00  0.00    -0.297 A  
HETATM    6  C   UNL     1     -11.273   6.246  69.446  1.00  0.00    -0.489 A  
HETATM    7 BR   UNL     1     -12.408   6.723  71.997  1.00  0.00    -0.260 Br 
HETATM    8  C   UNL     1     -10.506   6.541  68.327  1.00  0.00    -0.219 A  
HETATM    9  C   UNL     1      -9.818   7.746  68.239  1.00  0.00    -0.185 A  
HETATM   10 BR   UNL     1     -10.360   5.275  66.931  1.00  0.00    -0.312 Br 
HETATM   11  C   UNL     1      -9.903   8.708  69.269  1.00  0.00    -0.188 A  
ENDROOT
BRANCH  11  12
HETATM   12  C   UNL     1      -9.034   9.946  69.146  1.00  0.00    -0.169 C  
BRANCH  12  13
HETATM   13  N   UNL     1      -9.789  11.188  69.380  1.00  0.00    -0.425 NA 
HETATM   14  H   UNL     1      -9.168  11.995  69.433  1.00  0.00     0.000 HD 
BRANCH  13  15
HETATM   15  C   UNL     1     -10.846  11.388  68.366  1.00  0.00    -0.207 C  
HETATM   16  C   UNL     1     -12.132  11.912  69.035  1.00  0.00    -0.245 C  
HETATM   17  C   UNL     1     -12.002  13.345  69.562  1.00  0.00    -0.377 C  
HETATM   18  C   UNL     1     -11.455  14.313  68.511  1.00  0.00    -0.298 C  
HETATM   19  C   UNL     1     -10.196  13.781  67.829  1.00  0.00    -0.241 C  
HETATM   20  O   UNL     1     -12.446  14.533  67.507  1.00  0.00    -0.590 OA 
HETATM   21  C   UNL     1     -10.421  12.375  67.267  1.00  0.00    -0.237 C  
HETATM   22  H   UNL     1     -12.107  15.134  66.854  1.00  0.00     0.000 HD 
ENDBRANCH  13  15
ENDBRANCH  12  13
ENDBRANCH  11  12
TORSDOF 3
ENDMDL
MODEL       88
REMARK 921   NORMALIZED FREE ENERGY PREDICTED BY IDOCK:   -4.58 KCAL/MOL
REMARK 922        TOTAL FREE ENERGY PREDICTED BY IDOCK:   -6.05 KCAL/MOL
REMARK 923 INTER-LIGAND FREE ENERGY PREDICTED BY IDOCK:   -5.47 KCAL/MOL
REMARK 924 INTRA-LIGAND FREE ENERGY PREDICTED BY IDOCK:   -0.58 KCAL/MOL
REMARK 927      BINDING AFFINITY PREDICTED BY RF-SCORE:    0.00 PKD
ROOT
HETATM    1  N   UNL     1     -12.389  14.000  66.937  1.00  0.00    -0.533 NA 
HETATM    2  H2  UNL     1     -12.707  14.352  67.840  1.00  0.00     0.000 HD 
HETATM    3  C   UNL     1     -11.018  13.675  67.043  1.00  0.00    -0.289 A  
HETATM    4  H1  UNL     1     -12.704  14.643  66.210  1.00  0.00     0.000 HD 
HETATM    5  C   UNL     1     -10.580  12.785  68.050  1.00  0.00    -0.226 A  
HETATM    6  C   UNL     1      -9.226  12.514  68.254  1.00  0.00    -0.186 A  
HETATM    7 BR   UNL     1     -11.830  11.886  69.173  1.00  0.00    -0.359 Br 
HETATM    8  C   UNL     1      -8.283  13.166  67.471  1.00  0.00    -0.183 A  
HETATM    9  C   UNL     1      -8.679  14.097  66.517  1.00  0.00     0.019 A  
HETATM   10 BR   UNL     1      -6.443  12.817  67.732  1.00  0.00    -0.150 Br 
HETATM   11  C   UNL     1     -10.045  14.384  66.303  1.00  0.00    -0.308 A  
ENDROOT
BRANCH  11  12
HETATM   12  C   UNL     1     -10.385  15.492  65.324  1.00  0.00    -0.386 C  
BRANCH  12  13
HETATM   13  N   UNL     1      -9.753  16.772  65.683  1.00  0.00    -0.553 NA 
HETATM   14  H   UNL     1      -9.324  17.214  64.870  1.00  0.00     0.000 HD 
BRANCH  13  15
HETATM   15  C   UNL     1     -10.702  17.684  66.354  1.00  0.00    -0.093 C  
HETATM   16  C   UNL     1     -10.632  17.493  67.882  1.00  0.00    -0.390 C  
HETATM   17  C   UNL     1      -9.318  17.986  68.496  1.00  0.00    -0.312 C  
HETATM   18  C   UNL     1      -8.966  19.413  68.070  1.00  0.00    -0.322 C  
HETATM   19  C   UNL     1      -9.061  19.609  66.558  1.00  0.00    -0.436 C  
HETATM   20  O   UNL     1      -9.863  20.331  68.696  1.00  0.00    -0.215 OA 
HETATM   21  C   UNL     1     -10.424  19.160  66.025  1.00  0.00    -0.546 C  
HETATM   22  H   UNL     1      -9.645  21.216  68.431  1.00  0.00     0.000 HD 
ENDBRANCH  13  15
ENDBRANCH  12  13
ENDBRANCH  11  12
TORSDOF 3
ENDMDL
MODEL       89
REMARK 921   NORMALIZED FREE ENERGY PREDICTED BY IDOCK:   -4.57 KCAL/MOL
REMARK 922        TOTAL FREE ENERGY PREDICTED BY IDOCK:   -6.04 KCAL/MOL
REMARK 923 INTER-LIGAND FREE ENERGY PREDICTED BY IDOCK:   -5.79 KCAL/MOL
REMARK 924 INTRA-LIGAND FREE ENERGY PREDICTED BY IDOCK:   -0.25 KCAL/MOL
REMARK 927      BINDING AFFINITY PREDICTED BY RF-SCORE:    0.00 PKD
ROOT
HETATM    1  N   UNL     1      -6.668  15.307  68.036  1.00  0.00    -0.130 NA 
HETATM    2  H2  UNL     1      -6.020  15.737  68.695  1.00  0.00     0.000 HD 
HETATM    3  C   UNL     1      -7.540  16.307  67.550  1.00  0.00    -0.146 A  
HETATM    4  H1  UNL     1      -7.051  14.462  68.462  1.00  0.00     0.000 HD 
HETATM    5  C   UNL     1      -7.010  17.477  66.960  1.00  0.00    -0.175 A  
HETATM    6  C   UNL     1      -7.830  18.533  66.557  1.00  0.00    -0.279 A  
HETATM    7 BR   UNL     1      -5.137  17.661  66.659  1.00  0.00    -0.206 Br 
HETATM    8  C   UNL     1      -9.198  18.446  66.778  1.00  0.00    -0.293 A  
HETATM    9  C   UNL     1      -9.741  17.338  67.418  1.00  0.00    -0.258 A  
HETATM   10 BR   UNL     1     -10.327  19.867  66.245  1.00  0.00    -0.599 Br 
HETATM   11  C   UNL     1      -8.923  16.264  67.833  1.00  0.00    -0.187 A  
ENDROOT
BRANCH  11  12
HETATM   12  C   UNL     1      -9.579  15.146  68.622  1.00  0.00    -0.213 C  
BRANCH  12  13
HETATM   13  N   UNL     1     -10.849  14.705  68.022  1.00  0.00    -0.252 NA 
HETATM   14  H   UNL     1     -11.354  15.488  67.607  1.00  0.00     0.000 HD 
BRANCH  13  15
HETATM   15  C   UNL     1     -10.645  13.616  67.043  1.00  0.00    -0.274 C  
HETATM   16  C   UNL     1     -12.000  12.995  66.651  1.00  0.00    -0.453 C  
HETATM   17  C   UNL     1     -12.880  13.933  65.818  1.00  0.00    -0.437 C  
HETATM   18  C   UNL     1     -12.140  14.525  64.617  1.00  0.00    -0.473 C  
HETATM   19  C   UNL     1     -10.785  15.116  65.002  1.00  0.00    -0.451 C  
HETATM   20  O   UNL     1     -11.919  13.502  63.644  1.00  0.00    -0.635 OA 
HETATM   21  C   UNL     1      -9.934  14.102  65.769  1.00  0.00    -0.331 C  
HETATM   22  H   UNL     1     -11.460  13.869  62.899  1.00  0.00     0.000 HD 
ENDBRANCH  13  15
ENDBRANCH  12  13
ENDBRANCH  11  12
TORSDOF 3
ENDMDL
MODEL       90
REMARK 921   NORMALIZED FREE ENERGY PREDICTED BY IDOCK:   -4.57 KCAL/MOL
REMARK 922        TOTAL FREE ENERGY PREDICTED BY IDOCK:   -6.04 KCAL/MOL
REMARK 923 INTER-LIGAND FREE ENERGY PREDICTED BY IDOCK:   -5.53 KCAL/MOL
REMARK 924 INTRA-LIGAND FREE ENERGY PREDICTED BY IDOCK:   -0.51 KCAL/MOL
REMARK 927      BINDING AFFINITY PREDICTED BY RF-SCORE:    0.00 PKD
ROOT
HETATM    1  N   UNL     1     -12.671  13.943  66.797  1.00  0.00    -0.374 NA 
HETATM    2  H2  UNL     1     -12.290  13.263  66.140  1.00  0.00     0.000 HD 
HETATM    3  C   UNL     1     -11.609  14.732  67.290  1.00  0.00    -0.369 A  
HETATM    4  H1  UNL     1     -13.286  13.455  67.449  1.00  0.00     0.000 HD 
HETATM    5  C   UNL     1     -10.756  15.409  66.388  1.00  0.00    -0.311 A  
HETATM    6  C   UNL     1      -9.635  16.119  66.825  1.00  0.00    -0.256 A  
HETATM    7 BR   UNL     1     -11.113  15.408  64.516  1.00  0.00    -0.166 Br 
HETATM    8  C   UNL     1      -9.330  16.125  68.180  1.00  0.00    -0.201 A  
HETATM    9  C   UNL     1     -10.110  15.413  69.084  1.00  0.00    -0.235 A  
HETATM   10 BR   UNL     1      -7.815  17.075  68.795  1.00  0.00    -0.233 Br 
HETATM   11  C   UNL     1     -11.244  14.690  68.654  1.00  0.00    -0.293 A  
ENDROOT
BRANCH  11  12
HETATM   12  C   UNL     1     -11.974  13.851  69.687  1.00  0.00    -0.342 C  
BRANCH  12  13
HETATM   13  N   UNL     1     -11.295  12.572  69.953  1.00  0.00    -0.509 NA 
HETATM   14  H   UNL     1     -10.979  12.515  70.921  1.00  0.00     0.000 HD 
BRANCH  13  15
HETATM   15  C   UNL     1     -12.143  11.415  69.594  1.00  0.00    -0.305 C  
HETATM   16  C   UNL     1     -11.724  10.857  68.220  1.00  0.00    -0.259 C  
HETATM   17  C   UNL     1     -10.349  10.179  68.233  1.00  0.00    -0.215 C  
HETATM   18  C   UNL     1     -10.213   9.143  69.351  1.00  0.00    -0.210 C  
HETATM   19  C   UNL     1     -10.654   9.689  70.707  1.00  0.00    -0.392 C  
HETATM   20  O   UNL     1     -11.020   8.005  69.044  1.00  0.00    -0.424 OA 
HETATM   21  C   UNL     1     -12.061  10.287  70.635  1.00  0.00    -0.433 C  
HETATM   22  H   UNL     1     -10.936   7.362  69.738  1.00  0.00     0.000 HD 
ENDBRANCH  13  15
ENDBRANCH  12  13
ENDBRANCH  11  12
TORSDOF 3
ENDMDL
MODEL       91
REMARK 921   NORMALIZED FREE ENERGY PREDICTED BY IDOCK:   -4.53 KCAL/MOL
REMARK 922        TOTAL FREE ENERGY PREDICTED BY IDOCK:   -5.99 KCAL/MOL
REMARK 923 INTER-LIGAND FREE ENERGY PREDICTED BY IDOCK:   -5.40 KCAL/MOL
REMARK 924 INTRA-LIGAND FREE ENERGY PREDICTED BY IDOCK:   -0.59 KCAL/MOL
REMARK 927      BINDING AFFINITY PREDICTED BY RF-SCORE:    0.00 PKD
ROOT
HETATM    1  N   UNL     1      -8.694  10.684  69.573  1.00  0.00    -0.388 NA 
HETATM    2  H2  UNL     1      -8.166  11.419  70.044  1.00  0.00     0.000 HD 
HETATM    3  C   UNL     1      -9.546  11.286  68.621  1.00  0.00    -0.190 A  
HETATM    4  H1  UNL     1      -9.083  10.061  70.281  1.00  0.00     0.000 HD 
HETATM    5  C   UNL     1      -9.007  12.150  67.640  1.00  0.00    -0.178 A  
HETATM    6  C   UNL     1      -9.823  12.843  66.742  1.00  0.00    -0.241 A  
HETATM    7 BR   UNL     1      -7.124  12.393  67.477  1.00  0.00    -0.152 Br 
HETATM    8  C   UNL     1     -11.201  12.709  66.843  1.00  0.00    -0.300 A  
HETATM    9  C   UNL     1     -11.763  11.920  67.841  1.00  0.00    -0.368 A  
HETATM   10 BR   UNL     1     -12.324  13.642  65.642  1.00  0.00    -0.535 Br 
HETATM   11  C   UNL     1     -10.950  11.216  68.756  1.00  0.00    -0.268 A  
ENDROOT
BRANCH  11  12
HETATM   12  C   UNL     1     -11.644  10.469  69.880  1.00  0.00    -0.307 C  
BRANCH  12  13
HETATM   13  N   UNL     1     -11.317   9.034  69.886  1.00  0.00    -0.434 NA 
HETATM   14  H   UNL     1     -10.309   8.883  69.887  1.00  0.00     0.000 HD 
BRANCH  13  15
HETATM   15  C   UNL     1     -11.969   8.326  71.008  1.00  0.00    -0.241 C  
HETATM   16  C   UNL     1     -11.851   6.802  70.815  1.00  0.00    -0.446 C  
HETATM   17  C   UNL     1     -10.419   6.278  70.972  1.00  0.00    -0.274 C  
HETATM   18  C   UNL     1      -9.756   6.755  72.266  1.00  0.00    -0.147 C  
HETATM   19  C   UNL     1      -9.897   8.262  72.471  1.00  0.00    -0.368 C  
HETATM   20  O   UNL     1     -10.359   6.096  73.380  1.00  0.00    -0.207 OA 
HETATM   21  C   UNL     1     -11.359   8.703  72.368  1.00  0.00    -0.353 C  
HETATM   22  H   UNL     1      -9.948   6.392  74.183  1.00  0.00     0.000 HD 
ENDBRANCH  13  15
ENDBRANCH  12  13
ENDBRANCH  11  12
TORSDOF 3
ENDMDL
MODEL       92
REMARK 921   NORMALIZED FREE ENERGY PREDICTED BY IDOCK:   -4.52 KCAL/MOL
REMARK 922        TOTAL FREE ENERGY PREDICTED BY IDOCK:   -5.98 KCAL/MOL
REMARK 923 INTER-LIGAND FREE ENERGY PREDICTED BY IDOCK:   -5.41 KCAL/MOL
REMARK 924 INTRA-LIGAND FREE ENERGY PREDICTED BY IDOCK:   -0.57 KCAL/MOL
REMARK 927      BINDING AFFINITY PREDICTED BY RF-SCORE:    0.00 PKD
ROOT
HETATM    1  N   UNL     1     -11.468   5.428  73.660  1.00  0.00    -0.392 NA 
HETATM    2  H2  UNL     1     -10.625   5.516  74.227  1.00  0.00     0.000 HD 
HETATM    3  C   UNL     1     -11.085   5.250  72.313  1.00  0.00    -0.153 A  
HETATM    4  H1  UNL     1     -12.107   6.182  73.912  1.00  0.00     0.000 HD 
HETATM    5  C   UNL     1     -10.199   4.205  71.964  1.00  0.00    -0.129 A  
HETATM    6  C   UNL     1      -9.716   4.053  70.662  1.00  0.00    -0.266 A  
HETATM    7 BR   UNL     1      -9.636   2.925  73.259  1.00  0.00    -0.147 Br 
HETATM    8  C   UNL     1     -10.086   4.978  69.695  1.00  0.00    -0.251 A  
HETATM    9  C   UNL     1     -10.901   6.056  70.023  1.00  0.00    -0.429 A  
HETATM   10 BR   UNL     1      -9.440   4.796  67.927  1.00  0.00    -0.196 Br 
HETATM   11  C   UNL     1     -11.394   6.222  71.335  1.00  0.00    -0.353 A  
ENDROOT
BRANCH  11  12
HETATM   12  C   UNL     1     -12.184   7.483  71.634  1.00  0.00    -0.322 C  
BRANCH  12  13
HETATM   13  N   UNL     1     -12.004   8.516  70.602  1.00  0.00    -0.486 NA 
HETATM   14  H   UNL     1     -12.901   8.846  70.246  1.00  0.00     0.000 HD 
BRANCH  13  15
HETATM   15  C   UNL     1     -11.172   9.638  71.087  1.00  0.00    -0.384 C  
HETATM   16  C   UNL     1      -9.709   9.445  70.643  1.00  0.00    -0.336 C  
HETATM   17  C   UNL     1      -9.506   9.604  69.132  1.00  0.00    -0.172 C  
HETATM   18  C   UNL     1     -10.115  10.898  68.588  1.00  0.00    -0.191 C  
HETATM   19  C   UNL     1     -11.557  11.102  69.050  1.00  0.00    -0.392 C  
HETATM   20  O   UNL     1      -9.341  12.012  69.036  1.00  0.00    -0.394 OA 
HETATM   21  C   UNL     1     -11.671  10.999  70.573  1.00  0.00    -0.416 C  
HETATM   22  H   UNL     1      -9.719  12.815  68.699  1.00  0.00     0.000 HD 
ENDBRANCH  13  15
ENDBRANCH  12  13
ENDBRANCH  11  12
TORSDOF 3
ENDMDL
MODEL       93
REMARK 921   NORMALIZED FREE ENERGY PREDICTED BY IDOCK:   -4.50 KCAL/MOL
REMARK 922        TOTAL FREE ENERGY PREDICTED BY IDOCK:   -5.96 KCAL/MOL
REMARK 923 INTER-LIGAND FREE ENERGY PREDICTED BY IDOCK:   -5.27 KCAL/MOL
REMARK 924 INTRA-LIGAND FREE ENERGY PREDICTED BY IDOCK:   -0.68 KCAL/MOL
REMARK 927      BINDING AFFINITY PREDICTED BY RF-SCORE:    0.00 PKD
ROOT
HETATM    1  N   UNL     1      -7.889  12.824  67.953  1.00  0.00    -0.141 NA 
HETATM    2  H2  UNL     1      -7.000  12.885  67.457  1.00  0.00     0.000 HD 
HETATM    3  C   UNL     1      -8.923  12.678  67.003  1.00  0.00    -0.216 A  
HETATM    4  H1  UNL     1      -7.929  13.580  68.637  1.00  0.00     0.000 HD 
HETATM    5  C   UNL     1      -8.867  11.630  66.055  1.00  0.00    -0.105 A  
HETATM    6  C   UNL     1      -9.814  11.508  65.036  1.00  0.00    -0.294 A  
HETATM    7 BR   UNL     1      -7.497  10.308  66.138  1.00  0.00    -0.127 Br 
HETATM    8  C   UNL     1     -10.815  12.464  64.930  1.00  0.00    -0.297 A  
HETATM    9  C   UNL     1     -10.858  13.543  65.805  1.00  0.00    -0.280 A  
HETATM   10 BR   UNL     1     -12.106  12.321  63.555  1.00  0.00    -0.655 Br 
HETATM   11  C   UNL     1      -9.904  13.681  66.837  1.00  0.00    -0.261 A  
ENDROOT
BRANCH  11  12
HETATM   12  C   UNL     1      -9.956  14.944  67.677  1.00  0.00    -0.226 C  
BRANCH  12  13
HETATM   13  N   UNL     1      -8.762  15.786  67.497  1.00  0.00    -0.172 NA 
HETATM   14  H   UNL     1      -7.912  15.224  67.467  1.00  0.00     0.000 HD 
BRANCH  13  15
HETATM   15  C   UNL     1      -8.877  16.653  66.305  1.00  0.00    -0.312 C  
HETATM   16  C   UNL     1     -10.229  17.392  66.313  1.00  0.00    -0.344 C  
HETATM   17  C   UNL     1     -10.337  18.450  67.417  1.00  0.00    -0.415 C  
HETATM   18  C   UNL     1      -9.147  19.412  67.430  1.00  0.00    -0.299 C  
HETATM   19  C   UNL     1      -7.807  18.680  67.395  1.00  0.00    -0.242 C  
HETATM   20  O   UNL     1      -9.217  20.269  66.290  1.00  0.00    -0.566 OA 
HETATM   21  C   UNL     1      -7.745  17.691  66.228  1.00  0.00    -0.324 C  
HETATM   22  H   UNL     1      -8.478  20.866  66.298  1.00  0.00     0.000 HD 
ENDBRANCH  13  15
ENDBRANCH  12  13
ENDBRANCH  11  12
TORSDOF 3
ENDMDL
MODEL       94
REMARK 921   NORMALIZED FREE ENERGY PREDICTED BY IDOCK:   -4.49 KCAL/MOL
REMARK 922        TOTAL FREE ENERGY PREDICTED BY IDOCK:   -5.95 KCAL/MOL
REMARK 923 INTER-LIGAND FREE ENERGY PREDICTED BY IDOCK:   -5.59 KCAL/MOL
REMARK 924 INTRA-LIGAND FREE ENERGY PREDICTED BY IDOCK:   -0.36 KCAL/MOL
REMARK 927      BINDING AFFINITY PREDICTED BY RF-SCORE:    0.00 PKD
ROOT
HETATM    1  N   UNL     1     -11.727  11.886  66.465  1.00  0.00    -0.562 NA 
HETATM    2  H2  UNL     1     -10.814  11.969  66.019  1.00  0.00     0.000 HD 
HETATM    3  C   UNL     1     -11.786  12.802  67.538  1.00  0.00    -0.364 A  
HETATM    4  H1  UNL     1     -11.917  10.897  66.630  1.00  0.00     0.000 HD 
HETATM    5  C   UNL     1     -11.522  14.172  67.311  1.00  0.00    -0.350 A  
HETATM    6  C   UNL     1     -11.471  15.096  68.357  1.00  0.00    -0.347 A  
HETATM    7 BR   UNL     1     -11.246  14.836  65.545  1.00  0.00    -0.352 Br 
HETATM    8  C   UNL     1     -11.646  14.648  69.659  1.00  0.00    -0.307 A  
HETATM    9  C   UNL     1     -11.839  13.296  69.922  1.00  0.00    -0.380 A  
HETATM   10 BR   UNL     1     -11.576  15.879  71.092  1.00  0.00    -0.504 Br 
HETATM   11  C   UNL     1     -11.890  12.351  68.874  1.00  0.00    -0.350 A  
ENDROOT
BRANCH  11  12
HETATM   12  C   UNL     1     -11.992  10.886  69.253  1.00  0.00    -0.310 C  
BRANCH  12  13
HETATM   13  N   UNL     1     -11.106  10.533  70.374  1.00  0.00    -0.409 NA 
HETATM   14  H   UNL     1     -11.301  11.105  71.196  1.00  0.00     0.000 HD 
BRANCH  13  15
HETATM   15  C   UNL     1     -11.172   9.091  70.694  1.00  0.00    -0.270 C  
HETATM   16  C   UNL     1     -10.958   8.254  69.418  1.00  0.00    -0.013 C  
HETATM   17  C   UNL     1      -9.528   8.334  68.871  1.00  0.00    -0.151 C  
HETATM   18  C   UNL     1      -8.471   8.050  69.941  1.00  0.00    -0.126 C  
HETATM   19  C   UNL     1      -8.700   8.860  71.215  1.00  0.00    -0.279 C  
HETATM   20  O   UNL     1      -8.503   6.664  70.282  1.00  0.00    -0.132 OA 
HETATM   21  C   UNL     1     -10.126   8.677  71.741  1.00  0.00    -0.380 C  
HETATM   22  H   UNL     1      -7.847   6.487  70.946  1.00  0.00     0.000 HD 
ENDBRANCH  13  15
ENDBRANCH  12  13
ENDBRANCH  11  12
TORSDOF 3
ENDMDL
MODEL       95
REMARK 921   NORMALIZED FREE ENERGY PREDICTED BY IDOCK:   -4.48 KCAL/MOL
REMARK 922        TOTAL FREE ENERGY PREDICTED BY IDOCK:   -5.93 KCAL/MOL
REMARK 923 INTER-LIGAND FREE ENERGY PREDICTED BY IDOCK:   -5.34 KCAL/MOL
REMARK 924 INTRA-LIGAND FREE ENERGY PREDICTED BY IDOCK:   -0.59 KCAL/MOL
REMARK 927      BINDING AFFINITY PREDICTED BY RF-SCORE:    0.00 PKD
ROOT
HETATM    1  N   UNL     1     -10.293  10.753  63.507  1.00  0.00    -0.521 NA 
HETATM    2  H2  UNL     1      -9.799  11.546  63.098  1.00  0.00     0.000 HD 
HETATM    3  C   UNL     1     -10.718  11.111  64.805  1.00  0.00    -0.264 A  
HETATM    4  H1  UNL     1      -9.728   9.915  63.370  1.00  0.00     0.000 HD 
HETATM    5  C   UNL     1     -11.502  12.273  64.995  1.00  0.00    -0.336 A  
HETATM    6  C   UNL     1     -11.860  12.719  66.269  1.00  0.00    -0.485 A  
HETATM    7 BR   UNL     1     -12.133  13.282  63.506  1.00  0.00    -0.453 Br 
HETATM    8  C   UNL     1     -11.401  12.023  67.379  1.00  0.00    -0.327 A  
HETATM    9  C   UNL     1     -10.573  10.917  67.227  1.00  0.00    -0.296 A  
HETATM   10 BR   UNL     1     -11.869  12.612  69.114  1.00  0.00    -0.324 Br 
HETATM   11  C   UNL     1     -10.201  10.457  65.945  1.00  0.00    -0.302 A  
ENDROOT
BRANCH  11  12
HETATM   12  C   UNL     1      -9.207   9.313  65.871  1.00  0.00    -0.219 C  
BRANCH  12  13
HETATM   13  N   UNL     1      -9.820   8.015  66.192  1.00  0.00    -0.467 NA 
HETATM   14  H   UNL     1     -10.053   7.494  65.347  1.00  0.00     0.000 HD 
BRANCH  13  15
HETATM   15  C   UNL     1      -8.968   7.214  67.098  1.00  0.00    -0.125 C  
HETATM   16  C   UNL     1      -8.817   7.931  68.455  1.00  0.00    -0.130 C  
HETATM   17  C   UNL     1     -10.111   7.963  69.274  1.00  0.00    -0.197 C  
HETATM   18  C   UNL     1     -10.756   6.581  69.412  1.00  0.00    -0.277 C  
HETATM   19  C   UNL     1     -10.881   5.861  68.071  1.00  0.00    -0.321 C  
HETATM   20  O   UNL     1      -9.961   5.772  70.280  1.00  0.00    -0.178 OA 
HETATM   21  C   UNL     1      -9.537   5.807  67.342  1.00  0.00    -0.119 C  
HETATM   22  H   UNL     1     -10.361   4.914  70.366  1.00  0.00     0.000 HD 
ENDBRANCH  13  15
ENDBRANCH  12  13
ENDBRANCH  11  12
TORSDOF 3
ENDMDL
MODEL       96
REMARK 921   NORMALIZED FREE ENERGY PREDICTED BY IDOCK:   -4.44 KCAL/MOL
REMARK 922        TOTAL FREE ENERGY PREDICTED BY IDOCK:   -5.89 KCAL/MOL
REMARK 923 INTER-LIGAND FREE ENERGY PREDICTED BY IDOCK:   -5.28 KCAL/MOL
REMARK 924 INTRA-LIGAND FREE ENERGY PREDICTED BY IDOCK:   -0.61 KCAL/MOL
REMARK 927      BINDING AFFINITY PREDICTED BY RF-SCORE:    0.00 PKD
ROOT
HETATM    1  N   UNL     1      -9.705  11.489  68.244  1.00  0.00    -0.192 NA 
HETATM    2  H2  UNL     1      -9.818  10.948  67.387  1.00  0.00     0.000 HD 
HETATM    3  C   UNL     1     -10.533  10.927  69.241  1.00  0.00    -0.202 A  
HETATM    4  H1  UNL     1      -9.787  12.480  68.014  1.00  0.00     0.000 HD 
HETATM    5  C   UNL     1     -10.420   9.554  69.559  1.00  0.00    -0.220 A  
HETATM    6  C   UNL     1     -11.285   8.935  70.465  1.00  0.00    -0.287 A  
HETATM    7 BR   UNL     1      -9.054   8.477  68.780  1.00  0.00    -0.142 Br 
HETATM    8  C   UNL     1     -12.306   9.680  71.037  1.00  0.00    -0.310 A  
HETATM    9  C   UNL     1     -12.485  11.016  70.693  1.00  0.00    -0.465 A  
HETATM   10 BR   UNL     1     -13.492   8.862  72.262  1.00  0.00    -0.526 Br 
HETATM   11  C   UNL     1     -11.621  11.653  69.776  1.00  0.00    -0.389 A  
ENDROOT
BRANCH  11  12
HETATM   12  C   UNL     1     -11.953  13.077  69.371  1.00  0.00    -0.281 C  
BRANCH  12  13
HETATM   13  N   UNL     1     -10.783  13.967  69.438  1.00  0.00    -0.433 NA 
HETATM   14  H   UNL     1      -9.946  13.507  69.081  1.00  0.00     0.000 HD 
BRANCH  13  15
HETATM   15  C   UNL     1     -11.029  15.251  68.747  1.00  0.00    -0.260 C  
HETATM   16  C   UNL     1      -9.923  16.264  69.101  1.00  0.00    -0.260 C  
HETATM   17  C   UNL     1      -8.556  15.905  68.507  1.00  0.00    -0.190 C  
HETATM   18  C   UNL     1      -8.624  15.615  67.006  1.00  0.00    -0.224 C  
HETATM   19  C   UNL     1      -9.737  14.631  66.653  1.00  0.00    -0.283 C  
HETATM   20  O   UNL     1      -8.863  16.832  66.297  1.00  0.00    -0.279 OA 
HETATM   21  C   UNL     1     -11.083  15.089  67.219  1.00  0.00    -0.334 C  
HETATM   22  H   UNL     1      -8.905  16.652  65.366  1.00  0.00     0.000 HD 
ENDBRANCH  13  15
ENDBRANCH  12  13
ENDBRANCH  11  12
TORSDOF 3
ENDMDL
MODEL       97
REMARK 921   NORMALIZED FREE ENERGY PREDICTED BY IDOCK:   -4.44 KCAL/MOL
REMARK 922        TOTAL FREE ENERGY PREDICTED BY IDOCK:   -5.88 KCAL/MOL
REMARK 923 INTER-LIGAND FREE ENERGY PREDICTED BY IDOCK:   -5.92 KCAL/MOL
REMARK 924 INTRA-LIGAND FREE ENERGY PREDICTED BY IDOCK:    0.04 KCAL/MOL
REMARK 927      BINDING AFFINITY PREDICTED BY RF-SCORE:    0.00 PKD
ROOT
HETATM    1  N   UNL     1     -11.068   9.457  67.572  1.00  0.00    -0.415 NA 
HETATM    2  H2  UNL     1     -11.813   9.624  66.896  1.00  0.00     0.000 HD 
HETATM    3  C   UNL     1     -10.128   8.576  66.993  1.00  0.00    -0.277 A  
HETATM    4  H1  UNL     1     -11.492   9.228  68.472  1.00  0.00     0.000 HD 
HETATM    5  C   UNL     1      -9.541   8.892  65.747  1.00  0.00    -0.174 A  
HETATM    6  C   UNL     1      -8.684   8.005  65.091  1.00  0.00    -0.015 A  
HETATM    7 BR   UNL     1      -9.872  10.569  64.905  1.00  0.00    -0.404 Br 
HETATM    8  C   UNL     1      -8.435   6.764  65.661  1.00  0.00    -0.138 A  
HETATM    9  C   UNL     1      -9.051   6.397  66.852  1.00  0.00    -0.138 A  
HETATM   10 BR   UNL     1      -7.282   5.545  64.789  1.00  0.00    -0.064 Br 
HETATM   11  C   UNL     1      -9.922   7.283  67.524  1.00  0.00    -0.218 A  
ENDROOT
BRANCH  11  12
HETATM   12  C   UNL     1     -10.638   6.763  68.757  1.00  0.00    -0.226 C  
BRANCH  12  13
HETATM   13  N   UNL     1     -11.494   7.785  69.381  1.00  0.00    -0.274 NA 
HETATM   14  H   UNL     1     -12.471   7.661  69.118  1.00  0.00     0.000 HD 
BRANCH  13  15
HETATM   15  C   UNL     1     -11.332   7.814  70.850  1.00  0.00    -0.275 C  
HETATM   16  C   UNL     1     -11.521   9.251  71.377  1.00  0.00    -0.439 C  
HETATM   17  C   UNL     1     -12.964   9.754  71.263  1.00  0.00    -0.470 C  
HETATM   18  C   UNL     1     -13.979   8.775  71.859  1.00  0.00    -0.436 C  
HETATM   19  C   UNL     1     -13.773   7.347  71.358  1.00  0.00    -0.419 C  
HETATM   20  O   UNL     1     -13.854   8.770  73.282  1.00  0.00    -1.115 OA 
HETATM   21  C   UNL     1     -12.328   6.888  71.566  1.00  0.00    -0.420 C  
HETATM   22  H   UNL     1     -14.484   8.163  73.652  1.00  0.00     0.000 HD 
ENDBRANCH  13  15
ENDBRANCH  12  13
ENDBRANCH  11  12
TORSDOF 3
ENDMDL
MODEL       98
REMARK 921   NORMALIZED FREE ENERGY PREDICTED BY IDOCK:   -4.41 KCAL/MOL
REMARK 922        TOTAL FREE ENERGY PREDICTED BY IDOCK:   -5.85 KCAL/MOL
REMARK 923 INTER-LIGAND FREE ENERGY PREDICTED BY IDOCK:   -5.21 KCAL/MOL
REMARK 924 INTRA-LIGAND FREE ENERGY PREDICTED BY IDOCK:   -0.64 KCAL/MOL
REMARK 927      BINDING AFFINITY PREDICTED BY RF-SCORE:    0.00 PKD
ROOT
HETATM    1  N   UNL     1      -9.237  10.505  69.484  1.00  0.00    -0.396 NA 
HETATM    2  H2  UNL     1      -8.934  11.340  69.985  1.00  0.00     0.000 HD 
HETATM    3  C   UNL     1     -10.439  10.045  70.066  1.00  0.00    -0.287 A  
HETATM    4  H1  UNL     1      -8.441   9.873  69.396  1.00  0.00     0.000 HD 
HETATM    5  C   UNL     1     -11.543  10.920  70.187  1.00  0.00    -0.338 A  
HETATM    6  C   UNL     1     -12.715  10.540  70.845  1.00  0.00    -0.495 A  
HETATM    7 BR   UNL     1     -11.494  12.669  69.431  1.00  0.00    -0.303 Br 
HETATM    8  C   UNL     1     -12.781   9.282  71.428  1.00  0.00    -0.330 A  
HETATM    9  C   UNL     1     -11.688   8.423  71.384  1.00  0.00    -0.332 A  
HETATM   10 BR   UNL     1     -14.356   8.747  72.327  1.00  0.00    -0.372 Br 
HETATM   11  C   UNL     1     -10.496   8.797  70.725  1.00  0.00    -0.270 A  
ENDROOT
BRANCH  11  12
HETATM   12  C   UNL     1      -9.315   7.849  70.820  1.00  0.00    -0.157 C  
BRANCH  12  13
HETATM   13  N   UNL     1      -8.977   7.242  69.522  1.00  0.00    -0.144 NA 
HETATM   14  H   UNL     1      -7.969   7.229  69.370  1.00  0.00     0.000 HD 
BRANCH  13  15
HETATM   15  C   UNL     1      -9.560   5.891  69.380  1.00  0.00    -0.138 C  
HETATM   16  C   UNL     1     -10.962   5.982  68.746  1.00  0.00    -0.384 C  
HETATM   17  C   UNL     1     -10.938   6.412  67.276  1.00  0.00    -0.474 C  
HETATM   18  C   UNL     1      -9.970   5.579  66.433  1.00  0.00    -0.172 C  
HETATM   19  C   UNL     1      -8.588   5.467  67.075  1.00  0.00    -0.109 C  
HETATM   20  O   UNL     1     -10.495   4.260  66.272  1.00  0.00    -0.403 OA 
HETATM   21  C   UNL     1      -8.685   4.966  68.518  1.00  0.00    -0.106 C  
HETATM   22  H   UNL     1      -9.894   3.743  65.749  1.00  0.00     0.000 HD 
ENDBRANCH  13  15
ENDBRANCH  12  13
ENDBRANCH  11  12
TORSDOF 3
ENDMDL
MODEL       99
REMARK 921   NORMALIZED FREE ENERGY PREDICTED BY IDOCK:   -4.40 KCAL/MOL
REMARK 922        TOTAL FREE ENERGY PREDICTED BY IDOCK:   -5.83 KCAL/MOL
REMARK 923 INTER-LIGAND FREE ENERGY PREDICTED BY IDOCK:   -5.44 KCAL/MOL
REMARK 924 INTRA-LIGAND FREE ENERGY PREDICTED BY IDOCK:   -0.39 KCAL/MOL
REMARK 927      BINDING AFFINITY PREDICTED BY RF-SCORE:    0.00 PKD
ROOT
HETATM    1  N   UNL     1     -11.174  14.331  67.280  1.00  0.00    -0.306 NA 
HETATM    2  H2  UNL     1     -10.178  14.527  67.185  1.00  0.00     0.000 HD 
HETATM    3  C   UNL     1     -11.570  14.654  68.596  1.00  0.00    -0.314 A  
HETATM    4  H1  UNL     1     -11.358  13.399  66.907  1.00  0.00     0.000 HD 
HETATM    5  C   UNL     1     -11.316  15.945  69.113  1.00  0.00    -0.366 A  
HETATM    6  C   UNL     1     -11.600  16.276  70.440  1.00  0.00    -0.193 A  
HETATM    7 BR   UNL     1     -10.591  17.317  68.007  1.00  0.00    -0.374 Br 
HETATM    8  C   UNL     1     -12.109  15.297  71.283  1.00  0.00    -0.349 A  
HETATM    9  C   UNL     1     -12.306  14.000  70.823  1.00  0.00    -0.443 A  
HETATM   10 BR   UNL     1     -12.496  15.721  73.085  1.00  0.00    -0.667 Br 
HETATM   11  C   UNL     1     -12.021  13.652  69.485  1.00  0.00    -0.397 A  
ENDROOT
BRANCH  11  12
HETATM   12  C   UNL     1     -12.158  12.192  69.095  1.00  0.00    -0.168 C  
BRANCH  12  13
HETATM   13  N   UNL     1     -11.347  11.305  69.944  1.00  0.00    -0.415 NA 
HETATM   14  H   UNL     1     -11.833  11.074  70.810  1.00  0.00     0.000 HD 
BRANCH  13  15
HETATM   15  C   UNL     1     -10.926  10.086  69.221  1.00  0.00    -0.228 C  
HETATM   16  C   UNL     1      -9.553  10.310  68.557  1.00  0.00    -0.165 C  
HETATM   17  C   UNL     1      -8.403  10.427  69.563  1.00  0.00    -0.126 C  
HETATM   18  C   UNL     1      -8.383   9.276  70.571  1.00  0.00    -0.205 C  
HETATM   19  C   UNL     1      -9.749   9.037  71.209  1.00  0.00    -0.371 C  
HETATM   20  O   UNL     1      -7.982   8.074  69.912  1.00  0.00    -0.106 OA 
HETATM   21  C   UNL     1     -10.836   8.861  70.146  1.00  0.00    -0.251 C  
HETATM   22  H   UNL     1      -7.969   7.360  70.538  1.00  0.00     0.000 HD 
ENDBRANCH  13  15
ENDBRANCH  12  13
ENDBRANCH  11  12
TORSDOF 3
ENDMDL
MODEL      100
REMARK 921   NORMALIZED FREE ENERGY PREDICTED BY IDOCK:   -4.39 KCAL/MOL
REMARK 922        TOTAL FREE ENERGY PREDICTED BY IDOCK:   -5.83 KCAL/MOL
REMARK 923 INTER-LIGAND FREE ENERGY PREDICTED BY IDOCK:   -5.39 KCAL/MOL
REMARK 924 INTRA-LIGAND FREE ENERGY PREDICTED BY IDOCK:   -0.44 KCAL/MOL
REMARK 927      BINDING AFFINITY PREDICTED BY RF-SCORE:    0.00 PKD
ROOT
HETATM    1  N   UNL     1      -8.029  14.600  69.601  1.00  0.00    -0.404 NA 
HETATM    2  H2  UNL     1      -7.490  14.753  70.453  1.00  0.00     0.000 HD 
HETATM    3  C   UNL     1      -8.382  15.858  69.064  1.00  0.00    -0.239 A  
HETATM    4  H1  UNL     1      -8.753  13.908  69.795  1.00  0.00     0.000 HD 
HETATM    5  C   UNL     1      -7.380  16.817  68.796  1.00  0.00    -0.227 A  
HETATM    6  C   UNL     1      -7.692  18.107  68.360  1.00  0.00    -0.303 A  
HETATM    7 BR   UNL     1      -5.534  16.385  68.993  1.00  0.00    -0.121 Br 
HETATM    8  C   UNL     1      -9.026  18.466  68.225  1.00  0.00    -0.312 A  
HETATM    9  C   UNL     1     -10.037  17.567  68.546  1.00  0.00    -0.363 A  
HETATM   10 BR   UNL     1      -9.474  20.208  67.641  1.00  0.00    -0.511 Br 
HETATM   11  C   UNL     1      -9.735  16.261  68.991  1.00  0.00    -0.252 A  
ENDROOT
BRANCH  11  12
HETATM   12  C   UNL     1     -10.892  15.382  69.426  1.00  0.00    -0.263 C  
BRANCH  12  13
HETATM   13  N   UNL     1     -10.574  13.948  69.334  1.00  0.00    -0.444 NA 
HETATM   14  H   UNL     1     -10.572  13.509  70.255  1.00  0.00     0.000 HD 
BRANCH  13  15
HETATM   15  C   UNL     1     -11.479  13.243  68.403  1.00  0.00    -0.314 C  
HETATM   16  C   UNL     1     -11.366  13.850  66.990  1.00  0.00    -0.343 C  
HETATM   17  C   UNL     1     -10.021  13.565  66.313  1.00  0.00    -0.302 C  
HETATM   18  C   UNL     1      -9.648  12.081  66.342  1.00  0.00    -0.228 C  
HETATM   19  C   UNL     1      -9.787  11.474  67.737  1.00  0.00    -0.186 C  
HETATM   20  O   UNL     1     -10.504  11.359  65.455  1.00  0.00    -0.264 OA 
HETATM   21  C   UNL     1     -11.176  11.738  68.322  1.00  0.00    -0.313 C  
HETATM   22  H   UNL     1     -10.273  10.438  65.473  1.00  0.00     0.000 HD 
ENDBRANCH  13  15
ENDBRANCH  12  13
ENDBRANCH  11  12
TORSDOF 3
ENDMDL
MODEL      101
REMARK 921   NORMALIZED FREE ENERGY PREDICTED BY IDOCK:   -4.39 KCAL/MOL
REMARK 922        TOTAL FREE ENERGY PREDICTED BY IDOCK:   -5.82 KCAL/MOL
REMARK 923 INTER-LIGAND FREE ENERGY PREDICTED BY IDOCK:   -5.21 KCAL/MOL
REMARK 924 INTRA-LIGAND FREE ENERGY PREDICTED BY IDOCK:   -0.60 KCAL/MOL
REMARK 927      BINDING AFFINITY PREDICTED BY RF-SCORE:    0.00 PKD
ROOT
HETATM    1  N   UNL     1      -8.336  11.860  66.559  1.00  0.00    -0.350 NA 
HETATM    2  H2  UNL     1      -7.792  11.068  66.218  1.00  0.00     0.000 HD 
HETATM    3  C   UNL     1      -9.166  11.413  67.610  1.00  0.00    -0.158 A  
HETATM    4  H1  UNL     1      -8.744  12.341  65.757  1.00  0.00     0.000 HD 
HETATM    5  C   UNL     1      -8.601  10.747  68.721  1.00  0.00    -0.156 A  
HETATM    6  C   UNL     1      -9.393  10.201  69.734  1.00  0.00    -0.183 A  
HETATM    7 BR   UNL     1      -6.711  10.582  68.906  1.00  0.00    -0.065 Br 
HETATM    8  C   UNL     1     -10.774  10.281  69.624  1.00  0.00    -0.264 A  
HETATM    9  C   UNL     1     -11.362  10.871  68.511  1.00  0.00    -0.367 A  
HETATM   10 BR   UNL     1     -11.867   9.545  70.980  1.00  0.00    -0.435 Br 
HETATM   11  C   UNL     1     -10.573  11.424  67.479  1.00  0.00    -0.252 A  
ENDROOT
BRANCH  11  12
HETATM   12  C   UNL     1     -11.292  11.947  66.249  1.00  0.00    -0.334 C  
BRANCH  12  13
HETATM   13  N   UNL     1     -10.671  13.169  65.713  1.00  0.00    -0.276 NA 
HETATM   14  H   UNL     1     -10.376  13.042  64.745  1.00  0.00     0.000 HD 
BRANCH  13  15
HETATM   15  C   UNL     1     -11.557  14.343  65.856  1.00  0.00    -0.361 C  
HETATM   16  C   UNL     1     -11.806  14.642  67.347  1.00  0.00    -0.374 C  
HETATM   17  C   UNL     1     -10.564  15.162  68.079  1.00  0.00    -0.258 C  
HETATM   18  C   UNL     1      -9.899  16.333  67.352  1.00  0.00    -0.242 C  
HETATM   19  C   UNL     1      -9.676  16.046  65.869  1.00  0.00    -0.378 C  
HETATM   20  O   UNL     1     -10.725  17.492  67.464  1.00  0.00    -0.349 OA 
HETATM   21  C   UNL     1     -10.973  15.600  65.189  1.00  0.00    -0.411 C  
HETATM   22  H   UNL     1     -10.313  18.219  67.013  1.00  0.00     0.000 HD 
ENDBRANCH  13  15
ENDBRANCH  12  13
ENDBRANCH  11  12
TORSDOF 3
ENDMDL
MODEL      102
REMARK 921   NORMALIZED FREE ENERGY PREDICTED BY IDOCK:   -4.33 KCAL/MOL
REMARK 922        TOTAL FREE ENERGY PREDICTED BY IDOCK:   -5.75 KCAL/MOL
REMARK 923 INTER-LIGAND FREE ENERGY PREDICTED BY IDOCK:   -5.18 KCAL/MOL
REMARK 924 INTRA-LIGAND FREE ENERGY PREDICTED BY IDOCK:   -0.57 KCAL/MOL
REMARK 927      BINDING AFFINITY PREDICTED BY RF-SCORE:    0.00 PKD
ROOT
HETATM    1  N   UNL     1      -9.270   7.983  65.733  1.00  0.00    -0.396 NA 
HETATM    2  H2  UNL     1      -9.970   7.707  65.044  1.00  0.00     0.000 HD 
HETATM    3  C   UNL     1      -9.823   7.817  67.022  1.00  0.00    -0.219 A  
HETATM    4  H1  UNL     1      -8.885   8.887  65.457  1.00  0.00     0.000 HD 
HETATM    5  C   UNL     1     -10.358   6.566  67.404  1.00  0.00    -0.208 A  
HETATM    6  C   UNL     1     -11.002   6.384  68.630  1.00  0.00    -0.404 A  
HETATM    7 BR   UNL     1     -10.201   5.045  66.265  1.00  0.00    -0.323 Br 
HETATM    8  C   UNL     1     -11.156   7.472  69.477  1.00  0.00    -0.046 A  
HETATM    9  C   UNL     1     -10.700   8.731  69.101  1.00  0.00    -0.150 A  
HETATM   10 BR   UNL     1     -12.029   7.251  71.140  1.00  0.00    -0.372 Br 
HETATM   11  C   UNL     1     -10.050   8.929  67.864  1.00  0.00    -0.255 A  
ENDROOT
BRANCH  11  12
HETATM   12  C   UNL     1      -9.685  10.352  67.482  1.00  0.00    -0.169 C  
BRANCH  12  13
HETATM   13  N   UNL     1     -10.153  10.709  66.133  1.00  0.00    -0.240 NA 
HETATM   14  H   UNL     1     -10.409   9.880  65.598  1.00  0.00     0.000 HD 
BRANCH  13  15
HETATM   15  C   UNL     1     -11.261  11.686  66.176  1.00  0.00    -0.254 C  
HETATM   16  C   UNL     1     -10.776  13.012  66.794  1.00  0.00    -0.273 C  
HETATM   17  C   UNL     1      -9.791  13.774  65.902  1.00  0.00    -0.279 C  
HETATM   18  C   UNL     1     -10.307  13.951  64.471  1.00  0.00    -0.232 C  
HETATM   19  C   UNL     1     -10.812  12.641  63.869  1.00  0.00    -0.468 C  
HETATM   20  O   UNL     1     -11.384  14.888  64.468  1.00  0.00    -0.566 OA 
HETATM   21  C   UNL     1     -11.842  11.972  64.782  1.00  0.00    -0.325 C  
HETATM   22  H   UNL     1     -11.705  14.998  63.580  1.00  0.00     0.000 HD 
ENDBRANCH  13  15
ENDBRANCH  12  13
ENDBRANCH  11  12
TORSDOF 3
ENDMDL
MODEL      103
REMARK 921   NORMALIZED FREE ENERGY PREDICTED BY IDOCK:   -4.32 KCAL/MOL
REMARK 922        TOTAL FREE ENERGY PREDICTED BY IDOCK:   -5.74 KCAL/MOL
REMARK 923 INTER-LIGAND FREE ENERGY PREDICTED BY IDOCK:   -5.12 KCAL/MOL
REMARK 924 INTRA-LIGAND FREE ENERGY PREDICTED BY IDOCK:   -0.62 KCAL/MOL
REMARK 927      BINDING AFFINITY PREDICTED BY RF-SCORE:    0.00 PKD
ROOT
HETATM    1  N   UNL     1      -7.264  14.994  66.894  1.00  0.00    -0.309 NA 
HETATM    2  H2  UNL     1      -7.150  14.697  67.863  1.00  0.00     0.000 HD 
HETATM    3  C   UNL     1      -7.872  16.269  66.885  1.00  0.00    -0.243 A  
HETATM    4  H1  UNL     1      -7.684  14.227  66.367  1.00  0.00     0.000 HD 
HETATM    5  C   UNL     1      -7.291  17.332  67.615  1.00  0.00    -0.166 A  
HETATM    6  C   UNL     1      -7.910  18.580  67.716  1.00  0.00    -0.257 A  
HETATM    7 BR   UNL     1      -5.607  17.119  68.483  1.00  0.00    -0.139 Br 
HETATM    8  C   UNL     1      -9.147  18.768  67.116  1.00  0.00    -0.284 A  
HETATM    9  C   UNL     1      -9.776  17.722  66.449  1.00  0.00    -0.315 A  
HETATM   10 BR   UNL     1     -10.006  20.448  67.244  1.00  0.00    -0.504 Br 
HETATM   11  C   UNL     1      -9.163  16.455  66.342  1.00  0.00    -0.335 A  
ENDROOT
BRANCH  11  12
HETATM   12  C   UNL     1      -9.964  15.340  65.696  1.00  0.00    -0.364 C  
BRANCH  12  13
HETATM   13  N   UNL     1     -10.353  14.297  66.659  1.00  0.00    -0.275 NA 
HETATM   14  H   UNL     1     -11.162  14.584  67.209  1.00  0.00     0.000 HD 
BRANCH  13  15
HETATM   15  C   UNL     1     -10.586  12.996  65.996  1.00  0.00    -0.279 C  
HETATM   16  C   UNL     1      -9.393  12.052  66.244  1.00  0.00    -0.228 C  
HETATM   17  C   UNL     1      -9.279  11.587  67.700  1.00  0.00    -0.171 C  
HETATM   18  C   UNL     1     -10.593  11.022  68.243  1.00  0.00    -0.187 C  
HETATM   19  C   UNL     1     -11.780  11.945  67.973  1.00  0.00    -0.382 C  
HETATM   20  O   UNL     1     -10.860   9.762  67.625  1.00  0.00    -0.304 OA 
HETATM   21  C   UNL     1     -11.871  12.312  66.490  1.00  0.00    -0.378 C  
HETATM   22  H   UNL     1     -11.675   9.411  67.962  1.00  0.00     0.000 HD 
ENDBRANCH  13  15
ENDBRANCH  12  13
ENDBRANCH  11  12
TORSDOF 3
ENDMDL
MODEL      104
REMARK 921   NORMALIZED FREE ENERGY PREDICTED BY IDOCK:   -4.32 KCAL/MOL
REMARK 922        TOTAL FREE ENERGY PREDICTED BY IDOCK:   -5.74 KCAL/MOL
REMARK 923 INTER-LIGAND FREE ENERGY PREDICTED BY IDOCK:   -5.36 KCAL/MOL
REMARK 924 INTRA-LIGAND FREE ENERGY PREDICTED BY IDOCK:   -0.38 KCAL/MOL
REMARK 927      BINDING AFFINITY PREDICTED BY RF-SCORE:    0.00 PKD
ROOT
HETATM    1  N   UNL     1     -10.243  12.555  67.683  1.00  0.00    -0.216 NA 
HETATM    2  H2  UNL     1      -9.421  13.140  67.832  1.00  0.00     0.000 HD 
HETATM    3  C   UNL     1     -11.188  12.845  68.692  1.00  0.00    -0.281 A  
HETATM    4  H1  UNL     1      -9.934  11.594  67.537  1.00  0.00     0.000 HD 
HETATM    5  C   UNL     1     -11.617  14.177  68.895  1.00  0.00    -0.310 A  
HETATM    6  C   UNL     1     -12.471  14.524  69.943  1.00  0.00    -0.300 A  
HETATM    7 BR   UNL     1     -11.064  15.573  67.720  1.00  0.00    -0.299 Br 
HETATM    8  C   UNL     1     -12.879  13.539  70.833  1.00  0.00    -0.226 A  
HETATM    9  C   UNL     1     -12.420  12.233  70.700  1.00  0.00    -0.323 A  
HETATM   10 BR   UNL     1     -14.032  13.986  72.263  1.00  0.00    -0.647 Br 
HETATM   11  C   UNL     1     -11.553  11.870  69.647  1.00  0.00    -0.387 A  
ENDROOT
BRANCH  11  12
HETATM   12  C   UNL     1     -11.012  10.452  69.639  1.00  0.00    -0.277 C  
BRANCH  12  13
HETATM   13  N   UNL     1     -11.173   9.796  68.332  1.00  0.00    -0.512 NA 
HETATM   14  H   UNL     1     -11.484  10.458  67.621  1.00  0.00     0.000 HD 
BRANCH  13  15
HETATM   15  C   UNL     1      -9.941   9.096  67.913  1.00  0.00    -0.186 C  
HETATM   16  C   UNL     1      -9.259   8.446  69.133  1.00  0.00    -0.150 C  
HETATM   17  C   UNL     1     -10.046   7.265  69.712  1.00  0.00    -0.196 C  
HETATM   18  C   UNL     1     -10.438   6.239  68.646  1.00  0.00    -0.231 C  
HETATM   19  C   UNL     1     -11.089   6.887  67.426  1.00  0.00    -0.322 C  
HETATM   20  O   UNL     1      -9.272   5.538  68.210  1.00  0.00    -0.108 OA 
HETATM   21  C   UNL     1     -10.216   8.009  66.861  1.00  0.00    -0.385 C  
HETATM   22  H   UNL     1      -9.515   4.901  67.549  1.00  0.00     0.000 HD 
ENDBRANCH  13  15
ENDBRANCH  12  13
ENDBRANCH  11  12
TORSDOF 3
ENDMDL
MODEL      105
REMARK 921   NORMALIZED FREE ENERGY PREDICTED BY IDOCK:   -4.30 KCAL/MOL
REMARK 922        TOTAL FREE ENERGY PREDICTED BY IDOCK:   -5.71 KCAL/MOL
REMARK 923 INTER-LIGAND FREE ENERGY PREDICTED BY IDOCK:   -5.12 KCAL/MOL
REMARK 924 INTRA-LIGAND FREE ENERGY PREDICTED BY IDOCK:   -0.59 KCAL/MOL
REMARK 927      BINDING AFFINITY PREDICTED BY RF-SCORE:    0.00 PKD
ROOT
HETATM    1  N   UNL     1     -11.957  13.697  68.500  1.00  0.00    -0.369 NA 
HETATM    2  H2  UNL     1     -11.266  13.601  69.244  1.00  0.00     0.000 HD 
HETATM    3  C   UNL     1     -11.472  13.034  67.352  1.00  0.00    -0.332 A  
HETATM    4  H1  UNL     1     -12.236  14.677  68.443  1.00  0.00     0.000 HD 
HETATM    5  C   UNL     1     -11.086  11.677  67.431  1.00  0.00    -0.281 A  
HETATM    6  C   UNL     1     -10.509  11.011  66.348  1.00  0.00    -0.312 A  
HETATM    7 BR   UNL     1     -11.358  10.673  69.029  1.00  0.00    -0.350 Br 
HETATM    8  C   UNL     1     -10.274  11.713  65.174  1.00  0.00    -0.274 A  
HETATM    9  C   UNL     1     -10.581  13.066  65.086  1.00  0.00    -0.327 A  
HETATM   10 BR   UNL     1      -9.490  10.833  63.695  1.00  0.00    -0.361 Br 
HETATM   11  C   UNL     1     -11.162  13.752  66.175  1.00  0.00    -0.301 A  
ENDROOT
BRANCH  11  12
HETATM   12  C   UNL     1     -11.362  15.250  66.036  1.00  0.00    -0.162 C  
BRANCH  12  13
HETATM   13  N   UNL     1     -10.108  15.958  65.734  1.00  0.00    -0.337 NA 
HETATM   14  H   UNL     1     -10.014  16.138  64.735  1.00  0.00     0.000 HD 
BRANCH  13  15
HETATM   15  C   UNL     1      -9.978  17.204  66.519  1.00  0.00    -0.302 C  
HETATM   16  C   UNL     1     -10.022  16.888  68.027  1.00  0.00    -0.279 C  
HETATM   17  C   UNL     1      -8.784  16.135  68.526  1.00  0.00    -0.200 C  
HETATM   18  C   UNL     1      -7.475  16.809  68.109  1.00  0.00    -0.171 C  
HETATM   19  C   UNL     1      -7.443  17.146  66.620  1.00  0.00    -0.293 C  
HETATM   20  O   UNL     1      -7.311  18.023  68.844  1.00  0.00    -0.274 OA 
HETATM   21  C   UNL     1      -8.674  17.957  66.208  1.00  0.00    -0.197 C  
HETATM   22  H   UNL     1      -6.498  18.441  68.586  1.00  0.00     0.000 HD 
ENDBRANCH  13  15
ENDBRANCH  12  13
ENDBRANCH  11  12
TORSDOF 3
ENDMDL
MODEL      106
REMARK 921   NORMALIZED FREE ENERGY PREDICTED BY IDOCK:   -4.30 KCAL/MOL
REMARK 922        TOTAL FREE ENERGY PREDICTED BY IDOCK:   -5.71 KCAL/MOL
REMARK 923 INTER-LIGAND FREE ENERGY PREDICTED BY IDOCK:   -4.99 KCAL/MOL
REMARK 924 INTRA-LIGAND FREE ENERGY PREDICTED BY IDOCK:   -0.72 KCAL/MOL
REMARK 927      BINDING AFFINITY PREDICTED BY RF-SCORE:    0.00 PKD
ROOT
HETATM    1  N   UNL     1      -8.406   7.585  69.279  1.00  0.00    -0.130 NA 
HETATM    2  H2  UNL     1      -8.697   7.029  68.474  1.00  0.00     0.000 HD 
HETATM    3  C   UNL     1      -9.554   7.910  70.035  1.00  0.00    -0.168 A  
HETATM    4  H1  UNL     1      -7.785   8.325  68.953  1.00  0.00     0.000 HD 
HETATM    5  C   UNL     1     -10.415   6.885  70.486  1.00  0.00    -0.211 A  
HETATM    6  C   UNL     1     -11.611   7.167  71.150  1.00  0.00    -0.336 A  
HETATM    7 BR   UNL     1      -9.970   5.049  70.231  1.00  0.00    -0.339 Br 
HETATM    8  C   UNL     1     -11.981   8.492  71.336  1.00  0.00    -0.300 A  
HETATM    9  C   UNL     1     -11.189   9.523  70.844  1.00  0.00    -0.411 A  
HETATM   10 BR   UNL     1     -13.598   8.898  72.228  1.00  0.00    -0.534 Br 
HETATM   11  C   UNL     1      -9.979   9.251  70.168  1.00  0.00    -0.251 A  
ENDROOT
BRANCH  11  12
HETATM   12  C   UNL     1      -9.232  10.427  69.566  1.00  0.00    -0.120 C  
BRANCH  12  13
HETATM   13  N   UNL     1      -9.049  10.290  68.112  1.00  0.00    -0.135 NA 
HETATM   14  H   UNL     1      -8.435   9.508  67.887  1.00  0.00     0.000 HD 
BRANCH  13  15
HETATM   15  C   UNL     1     -10.341  10.181  67.403  1.00  0.00    -0.238 C  
HETATM   16  C   UNL     1     -10.870  11.584  67.044  1.00  0.00    -0.320 C  
HETATM   17  C   UNL     1     -10.040  12.288  65.965  1.00  0.00    -0.269 C  
HETATM   18  C   UNL     1      -9.815  11.414  64.729  1.00  0.00    -0.259 C  
HETATM   19  C   UNL     1      -9.317  10.016  65.088  1.00  0.00    -0.302 C  
HETATM   20  O   UNL     1     -11.044  11.280  64.014  1.00  0.00    -0.404 OA 
HETATM   21  C   UNL     1     -10.233   9.347  66.116  1.00  0.00    -0.264 C  
HETATM   22  H   UNL     1     -10.906  10.738  63.246  1.00  0.00     0.000 HD 
ENDBRANCH  13  15
ENDBRANCH  12  13
ENDBRANCH  11  12
TORSDOF 3
ENDMDL
MODEL      107
REMARK 921   NORMALIZED FREE ENERGY PREDICTED BY IDOCK:   -4.30 KCAL/MOL
REMARK 922        TOTAL FREE ENERGY PREDICTED BY IDOCK:   -5.71 KCAL/MOL
REMARK 923 INTER-LIGAND FREE ENERGY PREDICTED BY IDOCK:   -5.23 KCAL/MOL
REMARK 924 INTRA-LIGAND FREE ENERGY PREDICTED BY IDOCK:   -0.48 KCAL/MOL
REMARK 927      BINDING AFFINITY PREDICTED BY RF-SCORE:    0.00 PKD
ROOT
HETATM    1  N   UNL     1     -10.917  16.461  67.685  1.00  0.00    -0.275 NA 
HETATM    2  H2  UNL     1     -11.551  16.764  66.945  1.00  0.00     0.000 HD 
HETATM    3  C   UNL     1      -9.603  16.836  67.330  1.00  0.00    -0.234 A  
HETATM    4  H1  UNL     1     -11.125  15.488  67.911  1.00  0.00     0.000 HD 
HETATM    5  C   UNL     1      -9.315  18.184  67.016  1.00  0.00    -0.270 A  
HETATM    6  C   UNL     1      -8.054  18.581  66.564  1.00  0.00    -0.299 A  
HETATM    7 BR   UNL     1     -10.637  19.541  67.221  1.00  0.00    -0.609 Br 
HETATM    8  C   UNL     1      -7.071  17.619  66.380  1.00  0.00    -0.275 A  
HETATM    9  C   UNL     1      -7.344  16.276  66.616  1.00  0.00    -0.204 A  
HETATM   10 BR   UNL     1      -5.359  18.133  65.764  1.00  0.00    -0.238 Br 
HETATM   11  C   UNL     1      -8.615  15.860  67.070  1.00  0.00    -0.245 A  
ENDROOT
BRANCH  11  12
HETATM   12  C   UNL     1      -8.863  14.369  67.195  1.00  0.00    -0.229 C  
BRANCH  12  13
HETATM   13  N   UNL     1      -9.571  13.818  66.028  1.00  0.00    -0.468 NA 
HETATM   14  H   UNL     1      -8.917  13.467  65.329  1.00  0.00     0.000 HD 
BRANCH  13  15
HETATM   15  C   UNL     1     -10.550  12.781  66.419  1.00  0.00    -0.255 C  
HETATM   16  C   UNL     1     -11.194  12.160  65.164  1.00  0.00    -0.378 C  
HETATM   17  C   UNL     1     -10.223  11.306  64.342  1.00  0.00    -0.377 C  
HETATM   18  C   UNL     1      -9.483  10.270  65.192  1.00  0.00    -0.252 C  
HETATM   19  C   UNL     1      -8.868  10.882  66.449  1.00  0.00    -0.178 C  
HETATM   20  O   UNL     1     -10.396   9.247  65.594  1.00  0.00    -0.244 OA 
HETATM   21  C   UNL     1      -9.910  11.660  67.255  1.00  0.00    -0.203 C  
HETATM   22  H   UNL     1      -9.937   8.604  66.122  1.00  0.00     0.000 HD 
ENDBRANCH  13  15
ENDBRANCH  12  13
ENDBRANCH  11  12
TORSDOF 3
ENDMDL
MODEL      108
REMARK 921   NORMALIZED FREE ENERGY PREDICTED BY IDOCK:   -4.30 KCAL/MOL
REMARK 922        TOTAL FREE ENERGY PREDICTED BY IDOCK:   -5.71 KCAL/MOL
REMARK 923 INTER-LIGAND FREE ENERGY PREDICTED BY IDOCK:   -4.92 KCAL/MOL
REMARK 924 INTRA-LIGAND FREE ENERGY PREDICTED BY IDOCK:   -0.80 KCAL/MOL
REMARK 927      BINDING AFFINITY PREDICTED BY RF-SCORE:    0.00 PKD
ROOT
HETATM    1  N   UNL     1     -10.715   7.752  72.001  1.00  0.00    -0.220 NA 
HETATM    2  H2  UNL     1     -11.438   7.083  71.734  1.00  0.00     0.000 HD 
HETATM    3  C   UNL     1     -10.905   8.937  71.256  1.00  0.00    -0.290 A  
HETATM    4  H1  UNL     1      -9.812   7.277  71.980  1.00  0.00     0.000 HD 
HETATM    5  C   UNL     1     -12.156   9.594  71.285  1.00  0.00    -0.371 A  
HETATM    6  C   UNL     1     -12.420  10.711  70.488  1.00  0.00    -0.445 A  
HETATM    7 BR   UNL     1     -13.549   8.999  72.442  1.00  0.00    -0.516 Br 
HETATM    8  C   UNL     1     -11.438  11.162  69.616  1.00  0.00    -0.310 A  
HETATM    9  C   UNL     1     -10.222  10.496  69.516  1.00  0.00    -0.230 A  
HETATM   10 BR   UNL     1     -11.774  12.668  68.524  1.00  0.00    -0.368 Br 
HETATM   11  C   UNL     1      -9.944   9.364  70.313  1.00  0.00    -0.284 A  
ENDROOT
BRANCH  11  12
HETATM   12  C   UNL     1      -8.639   8.631  70.062  1.00  0.00    -0.132 C  
BRANCH  12  13
HETATM   13  N   UNL     1      -8.849   7.225  69.681  1.00  0.00    -0.141 NA 
HETATM   14  H   UNL     1      -9.837   6.974  69.720  1.00  0.00     0.000 HD 
BRANCH  13  15
HETATM   15  C   UNL     1      -8.269   6.922  68.356  1.00  0.00    -0.120 C  
HETATM   16  C   UNL     1      -8.292   5.402  68.101  1.00  0.00    -0.098 C  
HETATM   17  C   UNL     1      -9.704   4.841  67.902  1.00  0.00    -0.200 C  
HETATM   18  C   UNL     1     -10.506   5.620  66.857  1.00  0.00    -0.288 C  
HETATM   19  C   UNL     1     -10.460   7.128  67.095  1.00  0.00    -0.389 C  
HETATM   20  O   UNL     1      -9.975   5.357  65.558  1.00  0.00    -0.379 OA 
HETATM   21  C   UNL     1      -9.019   7.628  67.215  1.00  0.00    -0.134 C  
HETATM   22  H   UNL     1     -10.473   5.840  64.909  1.00  0.00     0.000 HD 
ENDBRANCH  13  15
ENDBRANCH  12  13
ENDBRANCH  11  12
TORSDOF 3
ENDMDL
MODEL      109
REMARK 921   NORMALIZED FREE ENERGY PREDICTED BY IDOCK:   -4.30 KCAL/MOL
REMARK 922        TOTAL FREE ENERGY PREDICTED BY IDOCK:   -5.71 KCAL/MOL
REMARK 923 INTER-LIGAND FREE ENERGY PREDICTED BY IDOCK:   -5.32 KCAL/MOL
REMARK 924 INTRA-LIGAND FREE ENERGY PREDICTED BY IDOCK:   -0.40 KCAL/MOL
REMARK 927      BINDING AFFINITY PREDICTED BY RF-SCORE:    0.00 PKD
ROOT
HETATM    1  N   UNL     1      -8.451  16.424  68.779  1.00  0.00    -0.238 NA 
HETATM    2  H2  UNL     1      -7.861  17.051  68.233  1.00  0.00     0.000 HD 
HETATM    3  C   UNL     1      -7.779  15.190  68.922  1.00  0.00    -0.159 A  
HETATM    4  H1  UNL     1      -9.394  16.447  68.391  1.00  0.00     0.000 HD 
HETATM    5  C   UNL     1      -6.472  15.156  69.460  1.00  0.00    -0.151 A  
HETATM    6  C   UNL     1      -5.734  13.972  69.527  1.00  0.00    -0.092 A  
HETATM    7 BR   UNL     1      -5.656  16.735  70.148  1.00  0.00    -0.202 Br 
HETATM    8  C   UNL     1      -6.285  12.806  69.016  1.00  0.00    -0.095 A  
HETATM    9  C   UNL     1      -7.541  12.819  68.420  1.00  0.00    -0.133 A  
HETATM   10 BR   UNL     1      -5.302  11.192  69.092  1.00  0.00    -0.040 Br 
HETATM   11  C   UNL     1      -8.297  14.009  68.343  1.00  0.00    -0.162 A  
ENDROOT
BRANCH  11  12
HETATM   12  C   UNL     1      -9.607  13.961  67.578  1.00  0.00    -0.229 C  
BRANCH  12  13
HETATM   13  N   UNL     1      -9.481  13.257  66.292  1.00  0.00    -0.414 NA 
HETATM   14  H   UNL     1      -8.538  12.893  66.159  1.00  0.00     0.000 HD 
BRANCH  13  15
HETATM   15  C   UNL     1     -10.494  12.190  66.149  1.00  0.00    -0.248 C  
HETATM   16  C   UNL     1     -11.881  12.806  65.880  1.00  0.00    -0.490 C  
HETATM   17  C   UNL     1     -11.996  13.462  64.499  1.00  0.00    -0.452 C  
HETATM   18  C   UNL     1     -11.537  12.540  63.368  1.00  0.00    -0.473 C  
HETATM   19  C   UNL     1     -10.175  11.908  63.648  1.00  0.00    -0.466 C  
HETATM   20  O   UNL     1     -12.490  11.489  63.197  1.00  0.00    -0.936 OA 
HETATM   21  C   UNL     1     -10.156  11.213  65.011  1.00  0.00    -0.338 C  
HETATM   22  H   UNL     1     -12.205  10.916  62.494  1.00  0.00     0.000 HD 
ENDBRANCH  13  15
ENDBRANCH  12  13
ENDBRANCH  11  12
TORSDOF 3
ENDMDL
MODEL      110
REMARK 921   NORMALIZED FREE ENERGY PREDICTED BY IDOCK:   -4.29 KCAL/MOL
REMARK 922        TOTAL FREE ENERGY PREDICTED BY IDOCK:   -5.70 KCAL/MOL
REMARK 923 INTER-LIGAND FREE ENERGY PREDICTED BY IDOCK:   -5.29 KCAL/MOL
REMARK 924 INTRA-LIGAND FREE ENERGY PREDICTED BY IDOCK:   -0.42 KCAL/MOL
REMARK 927      BINDING AFFINITY PREDICTED BY RF-SCORE:    0.00 PKD
ROOT
HETATM    1  N   UNL     1     -12.400  14.149  68.693  1.00  0.00    -0.543 NA 
HETATM    2  H2  UNL     1     -12.034  14.571  69.546  1.00  0.00     0.000 HD 
HETATM    3  C   UNL     1     -11.717  12.933  68.467  1.00  0.00    -0.339 A  
HETATM    4  H1  UNL     1     -12.423  14.862  67.964  1.00  0.00     0.000 HD 
HETATM    5  C   UNL     1     -11.684  11.945  69.477  1.00  0.00    -0.345 A  
HETATM    6  C   UNL     1     -10.939  10.772  69.335  1.00  0.00    -0.305 A  
HETATM    7 BR   UNL     1     -12.684  12.155  71.086  1.00  0.00    -0.252 Br 
HETATM    8  C   UNL     1     -10.180  10.592  68.187  1.00  0.00    -0.162 A  
HETATM    9  C   UNL     1     -10.138  11.576  67.205  1.00  0.00    -0.223 A  
HETATM   10 BR   UNL     1      -9.160   9.014  67.975  1.00  0.00    -0.143 Br 
HETATM   11  C   UNL     1     -10.884  12.767  67.338  1.00  0.00    -0.265 A  
ENDROOT
BRANCH  11  12
HETATM   12  C   UNL     1     -10.696  13.835  66.276  1.00  0.00    -0.285 C  
BRANCH  12  13
HETATM   13  N   UNL     1      -9.357  14.444  66.324  1.00  0.00    -0.449 NA 
HETATM   14  H   UNL     1      -8.690  13.917  65.760  1.00  0.00     0.000 HD 
BRANCH  13  15
HETATM   15  C   UNL     1      -9.386  15.869  65.931  1.00  0.00    -0.318 C  
HETATM   16  C   UNL     1     -10.534  16.596  66.659  1.00  0.00    -0.258 C  
HETATM   17  C   UNL     1     -10.299  16.745  68.166  1.00  0.00    -0.318 C  
HETATM   18  C   UNL     1      -8.929  17.343  68.494  1.00  0.00    -0.276 C  
HETATM   19  C   UNL     1      -7.795  16.639  67.751  1.00  0.00    -0.175 C  
HETATM   20  O   UNL     1      -8.913  18.723  68.127  1.00  0.00    -0.291 OA 
HETATM   21  C   UNL     1      -8.064  16.588  66.245  1.00  0.00    -0.341 C  
HETATM   22  H   UNL     1      -8.062  19.094  68.330  1.00  0.00     0.000 HD 
ENDBRANCH  13  15
ENDBRANCH  12  13
ENDBRANCH  11  12
TORSDOF 3
ENDMDL
MODEL      111
REMARK 921   NORMALIZED FREE ENERGY PREDICTED BY IDOCK:   -4.27 KCAL/MOL
REMARK 922        TOTAL FREE ENERGY PREDICTED BY IDOCK:   -5.68 KCAL/MOL
REMARK 923 INTER-LIGAND FREE ENERGY PREDICTED BY IDOCK:   -4.97 KCAL/MOL
REMARK 924 INTRA-LIGAND FREE ENERGY PREDICTED BY IDOCK:   -0.71 KCAL/MOL
REMARK 927      BINDING AFFINITY PREDICTED BY RF-SCORE:    0.00 PKD
ROOT
HETATM    1  N   UNL     1     -12.552  12.572  65.808  1.00  0.00    -0.454 NA 
HETATM    2  H2  UNL     1     -11.957  12.286  65.030  1.00  0.00     0.000 HD 
HETATM    3  C   UNL     1     -11.831  13.482  66.611  1.00  0.00    -0.407 A  
HETATM    4  H1  UNL     1     -12.960  11.736  66.227  1.00  0.00     0.000 HD 
HETATM    5  C   UNL     1     -11.265  14.640  66.031  1.00  0.00    -0.342 A  
HETATM    6  C   UNL     1     -10.461  15.515  66.766  1.00  0.00    -0.295 A  
HETATM    7 BR   UNL     1     -11.595  15.082  64.206  1.00  0.00    -0.102 Br 
HETATM    8  C   UNL     1     -10.180  15.216  68.092  1.00  0.00    -0.227 A  
HETATM    9  C   UNL     1     -10.666  14.050  68.672  1.00  0.00    -0.269 A  
HETATM   10 BR   UNL     1      -9.090  16.383  69.105  1.00  0.00    -0.148 Br 
HETATM   11  C   UNL     1     -11.477  13.156  67.940  1.00  0.00    -0.346 A  
ENDROOT
BRANCH  11  12
HETATM   12  C   UNL     1     -11.872  11.854  68.612  1.00  0.00    -0.308 C  
BRANCH  12  13
HETATM   13  N   UNL     1     -11.464  10.674  67.834  1.00  0.00    -0.601 NA 
HETATM   14  H   UNL     1     -11.494  10.861  66.832  1.00  0.00     0.000 HD 
BRANCH  13  15
HETATM   15  C   UNL     1     -10.135  10.175  68.248  1.00  0.00    -0.156 C  
HETATM   16  C   UNL     1     -10.237   8.704  68.696  1.00  0.00    -0.214 C  
HETATM   17  C   UNL     1     -10.531   7.736  67.545  1.00  0.00    -0.338 C  
HETATM   18  C   UNL     1      -9.580   7.921  66.361  1.00  0.00    -0.181 C  
HETATM   19  C   UNL     1      -9.459   9.383  65.934  1.00  0.00    -0.315 C  
HETATM   20  O   UNL     1      -8.279   7.452  66.720  1.00  0.00    -0.116 OA 
HETATM   21  C   UNL     1      -9.095  10.279  67.120  1.00  0.00    -0.156 C  
HETATM   22  H   UNL     1      -7.688   7.567  65.986  1.00  0.00     0.000 HD 
ENDBRANCH  13  15
ENDBRANCH  12  13
ENDBRANCH  11  12
TORSDOF 3
ENDMDL
MODEL      112
REMARK 921   NORMALIZED FREE ENERGY PREDICTED BY IDOCK:   -4.26 KCAL/MOL
REMARK 922        TOTAL FREE ENERGY PREDICTED BY IDOCK:   -5.68 KCAL/MOL
REMARK 923 INTER-LIGAND FREE ENERGY PREDICTED BY IDOCK:   -5.08 KCAL/MOL
REMARK 924 INTRA-LIGAND FREE ENERGY PREDICTED BY IDOCK:   -0.60 KCAL/MOL
REMARK 927      BINDING AFFINITY PREDICTED BY RF-SCORE:    0.00 PKD
ROOT
HETATM    1  N   UNL     1     -10.903  13.665  69.720  1.00  0.00    -0.436 NA 
HETATM    2  H2  UNL     1     -11.738  14.196  69.969  1.00  0.00     0.000 HD 
HETATM    3  C   UNL     1     -10.982  13.327  68.351  1.00  0.00    -0.264 A  
HETATM    4  H1  UNL     1     -10.765  12.934  70.417  1.00  0.00     0.000 HD 
HETATM    5  C   UNL     1     -11.174  14.341  67.384  1.00  0.00    -0.316 A  
HETATM    6  C   UNL     1     -11.357  14.043  66.032  1.00  0.00    -0.328 A  
HETATM    7 BR   UNL     1     -11.169  16.181  67.881  1.00  0.00    -0.180 Br 
HETATM    8  C   UNL     1     -11.389  12.714  65.634  1.00  0.00    -0.322 A  
HETATM    9  C   UNL     1     -11.270  11.692  66.570  1.00  0.00    -0.356 A  
HETATM   10 BR   UNL     1     -11.640  12.287  63.809  1.00  0.00    -0.601 Br 
HETATM   11  C   UNL     1     -11.088  11.980  67.940  1.00  0.00    -0.289 A  
ENDROOT
BRANCH  11  12
HETATM   12  C   UNL     1     -11.079  10.810  68.907  1.00  0.00    -0.253 C  
BRANCH  12  13
HETATM   13  N   UNL     1     -11.255   9.517  68.227  1.00  0.00    -0.505 NA 
HETATM   14  H   UNL     1     -11.329   9.637  67.217  1.00  0.00     0.000 HD 
BRANCH  13  15
HETATM   15  C   UNL     1     -10.183   8.562  68.578  1.00  0.00    -0.198 C  
HETATM   16  C   UNL     1     -10.717   7.117  68.512  1.00  0.00    -0.191 C  
HETATM   17  C   UNL     1     -11.027   6.649  67.086  1.00  0.00    -0.478 C  
HETATM   18  C   UNL     1      -9.863   6.885  66.122  1.00  0.00     0.173 C  
HETATM   19  C   UNL     1      -9.317   8.309  66.207  1.00  0.00    -0.267 C  
HETATM   20  O   UNL     1      -8.801   5.981  66.429  1.00  0.00    -0.127 OA 
HETATM   21  C   UNL     1      -8.965   8.683  67.649  1.00  0.00    -0.141 C  
HETATM   22  H   UNL     1      -8.078   6.128  65.830  1.00  0.00     0.000 HD 
ENDBRANCH  13  15
ENDBRANCH  12  13
ENDBRANCH  11  12
TORSDOF 3
ENDMDL
MODEL      113
REMARK 921   NORMALIZED FREE ENERGY PREDICTED BY IDOCK:   -4.25 KCAL/MOL
REMARK 922        TOTAL FREE ENERGY PREDICTED BY IDOCK:   -5.66 KCAL/MOL
REMARK 923 INTER-LIGAND FREE ENERGY PREDICTED BY IDOCK:   -5.16 KCAL/MOL
REMARK 924 INTRA-LIGAND FREE ENERGY PREDICTED BY IDOCK:   -0.50 KCAL/MOL
REMARK 927      BINDING AFFINITY PREDICTED BY RF-SCORE:    0.00 PKD
ROOT
HETATM    1  N   UNL     1     -12.265  10.870  68.953  1.00  0.00    -0.764 NA 
HETATM    2  H2  UNL     1     -12.174  11.496  69.753  1.00  0.00     0.000 HD 
HETATM    3  C   UNL     1     -10.992  10.332  68.660  1.00  0.00    -0.244 A  
HETATM    4  H1  UNL     1     -12.794  11.350  68.224  1.00  0.00     0.000 HD 
HETATM    5  C   UNL     1     -10.259   9.667  69.669  1.00  0.00    -0.222 A  
HETATM    6  C   UNL     1      -8.958   9.207  69.452  1.00  0.00    -0.147 A  
HETATM    7 BR   UNL     1     -11.027   9.339  71.383  1.00  0.00    -0.440 Br 
HETATM    8  C   UNL     1      -8.356   9.446  68.225  1.00  0.00    -0.119 A  
HETATM    9  C   UNL     1      -9.026  10.157  67.235  1.00  0.00    -0.144 A  
HETATM   10 BR   UNL     1      -6.594   8.838  67.910  1.00  0.00    -0.062 Br 
HETATM   11  C   UNL     1     -10.340  10.629  67.442  1.00  0.00    -0.262 A  
ENDROOT
BRANCH  11  12
HETATM   12  C   UNL     1     -10.957  11.491  66.356  1.00  0.00    -0.284 C  
BRANCH  12  13
HETATM   13  N   UNL     1     -10.359  12.834  66.297  1.00  0.00    -0.254 NA 
HETATM   14  H   UNL     1      -9.715  12.920  65.511  1.00  0.00     0.000 HD 
BRANCH  13  15
HETATM   15  C   UNL     1     -11.390  13.893  66.266  1.00  0.00    -0.324 C  
HETATM   16  C   UNL     1     -11.748  14.328  67.701  1.00  0.00    -0.421 C  
HETATM   17  C   UNL     1     -10.618  15.084  68.407  1.00  0.00    -0.239 C  
HETATM   18  C   UNL     1     -10.067  16.239  67.568  1.00  0.00    -0.258 C  
HETATM   19  C   UNL     1      -9.737  15.815  66.139  1.00  0.00    -0.351 C  
HETATM   20  O   UNL     1     -11.036  17.287  67.510  1.00  0.00    -0.256 OA 
HETATM   21  C   UNL     1     -10.933  15.129  65.473  1.00  0.00    -0.370 C  
HETATM   22  H   UNL     1     -10.694  18.005  66.989  1.00  0.00     0.000 HD 
ENDBRANCH  13  15
ENDBRANCH  12  13
ENDBRANCH  11  12
TORSDOF 3
ENDMDL
MODEL      114
REMARK 921   NORMALIZED FREE ENERGY PREDICTED BY IDOCK:   -4.25 KCAL/MOL
REMARK 922        TOTAL FREE ENERGY PREDICTED BY IDOCK:   -5.66 KCAL/MOL
REMARK 923 INTER-LIGAND FREE ENERGY PREDICTED BY IDOCK:   -5.14 KCAL/MOL
REMARK 924 INTRA-LIGAND FREE ENERGY PREDICTED BY IDOCK:   -0.52 KCAL/MOL
REMARK 927      BINDING AFFINITY PREDICTED BY RF-SCORE:    0.00 PKD
ROOT
HETATM    1  N   UNL     1     -10.707  15.684  66.237  1.00  0.00    -0.309 NA 
HETATM    2  H2  UNL     1      -9.755  15.961  66.474  1.00  0.00     0.000 HD 
HETATM    3  C   UNL     1     -11.152  14.749  67.197  1.00  0.00    -0.333 A  
HETATM    4  H1  UNL     1     -10.738  15.448  65.245  1.00  0.00     0.000 HD 
HETATM    5  C   UNL     1     -11.110  15.075  68.572  1.00  0.00    -0.272 A  
HETATM    6  C   UNL     1     -11.446  14.146  69.560  1.00  0.00    -0.334 A  
HETATM    7 BR   UNL     1     -10.611  16.822  69.149  1.00  0.00    -0.327 Br 
HETATM    8  C   UNL     1     -11.793  12.857  69.181  1.00  0.00    -0.303 A  
HETATM    9  C   UNL     1     -11.779  12.486  67.841  1.00  0.00    -0.416 A  
HETATM   10 BR   UNL     1     -12.247  11.582  70.501  1.00  0.00    -0.441 Br 
HETATM   11  C   UNL     1     -11.438  13.414  66.833  1.00  0.00    -0.376 A  
ENDROOT
BRANCH  11  12
HETATM   12  C   UNL     1     -11.339  12.899  65.409  1.00  0.00    -0.303 C  
BRANCH  12  13
HETATM   13  N   UNL     1     -10.092  12.157  65.166  1.00  0.00    -0.264 NA 
HETATM   14  H   UNL     1      -9.433  12.276  65.936  1.00  0.00     0.000 HD 
BRANCH  13  15
HETATM   15  C   UNL     1     -10.347  10.727  64.892  1.00  0.00    -0.299 C  
HETATM   16  C   UNL     1      -9.426  10.229  63.761  1.00  0.00    -0.352 C  
HETATM   17  C   UNL     1      -7.950  10.158  64.167  1.00  0.00    -0.154 C  
HETATM   18  C   UNL     1      -7.734   9.392  65.474  1.00  0.00    -0.099 C  
HETATM   19  C   UNL     1      -8.666   9.867  66.587  1.00  0.00    -0.138 C  
HETATM   20  O   UNL     1      -7.974   8.001  65.255  1.00  0.00    -0.109 OA 
HETATM   21  C   UNL     1     -10.128   9.847  66.134  1.00  0.00    -0.315 C  
HETATM   22  H   UNL     1      -7.840   7.526  66.067  1.00  0.00     0.000 HD 
ENDBRANCH  13  15
ENDBRANCH  12  13
ENDBRANCH  11  12
TORSDOF 3
ENDMDL
MODEL      115
REMARK 921   NORMALIZED FREE ENERGY PREDICTED BY IDOCK:   -4.25 KCAL/MOL
REMARK 922        TOTAL FREE ENERGY PREDICTED BY IDOCK:   -5.65 KCAL/MOL
REMARK 923 INTER-LIGAND FREE ENERGY PREDICTED BY IDOCK:   -5.01 KCAL/MOL
REMARK 924 INTRA-LIGAND FREE ENERGY PREDICTED BY IDOCK:   -0.64 KCAL/MOL
REMARK 927      BINDING AFFINITY PREDICTED BY RF-SCORE:    0.00 PKD
ROOT
HETATM    1  N   UNL     1      -8.534  16.562  67.740  1.00  0.00    -0.174 NA 
HETATM    2  H2  UNL     1      -9.203  17.025  68.355  1.00  0.00     0.000 HD 
HETATM    3  C   UNL     1      -9.252  15.837  66.764  1.00  0.00    -0.243 A  
HETATM    4  H1  UNL     1      -7.839  16.088  68.317  1.00  0.00     0.000 HD 
HETATM    5  C   UNL     1     -10.215  16.493  65.965  1.00  0.00    -0.356 A  
HETATM    6  C   UNL     1     -11.018  15.796  65.058  1.00  0.00    -0.431 A  
HETATM    7 BR   UNL     1     -10.452  18.381  66.068  1.00  0.00    -0.288 Br 
HETATM    8  C   UNL     1     -10.891  14.417  64.969  1.00  0.00    -0.407 A  
HETATM    9  C   UNL     1     -10.000  13.734  65.790  1.00  0.00    -0.293 A  
HETATM   10 BR   UNL     1     -11.969  13.452  63.752  1.00  0.00    -0.472 Br 
HETATM   11  C   UNL     1      -9.185  14.426  66.713  1.00  0.00    -0.287 A  
ENDROOT
BRANCH  11  12
HETATM   12  C   UNL     1      -8.323  13.598  67.647  1.00  0.00    -0.182 C  
BRANCH  12  13
HETATM   13  N   UNL     1      -8.282  12.178  67.262  1.00  0.00    -0.172 NA 
HETATM   14  H   UNL     1      -7.385  11.932  66.844  1.00  0.00     0.000 HD 
BRANCH  13  15
HETATM   15  C   UNL     1      -8.607  11.291  68.399  1.00  0.00    -0.155 C  
HETATM   16  C   UNL     1     -10.099  11.421  68.765  1.00  0.00    -0.199 C  
HETATM   17  C   UNL     1     -11.038  10.839  67.703  1.00  0.00    -0.384 C  
HETATM   18  C   UNL     1     -10.658   9.412  67.298  1.00  0.00    -0.244 C  
HETATM   19  C   UNL     1      -9.174   9.278  66.962  1.00  0.00    -0.169 C  
HETATM   20  O   UNL     1     -10.954   8.519  68.373  1.00  0.00    -0.444 OA 
HETATM   21  C   UNL     1      -8.297   9.816  68.095  1.00  0.00    -0.110 C  
HETATM   22  H   UNL     1     -10.719   7.634  68.122  1.00  0.00     0.000 HD 
ENDBRANCH  13  15
ENDBRANCH  12  13
ENDBRANCH  11  12
TORSDOF 3
ENDMDL
MODEL      116
REMARK 921   NORMALIZED FREE ENERGY PREDICTED BY IDOCK:   -4.24 KCAL/MOL
REMARK 922        TOTAL FREE ENERGY PREDICTED BY IDOCK:   -5.65 KCAL/MOL
REMARK 923 INTER-LIGAND FREE ENERGY PREDICTED BY IDOCK:   -5.24 KCAL/MOL
REMARK 924 INTRA-LIGAND FREE ENERGY PREDICTED BY IDOCK:   -0.41 KCAL/MOL
REMARK 927      BINDING AFFINITY PREDICTED BY RF-SCORE:    0.00 PKD
ROOT
HETATM    1  N   UNL     1     -11.873  13.473  70.358  1.00  0.00    -0.511 NA 
HETATM    2  H2  UNL     1     -12.688  14.086  70.382  1.00  0.00     0.000 HD 
HETATM    3  C   UNL     1     -11.602  13.142  69.012  1.00  0.00    -0.312 A  
HETATM    4  H1  UNL     1     -12.006  12.732  71.047  1.00  0.00     0.000 HD 
HETATM    5  C   UNL     1     -11.418  14.169  68.057  1.00  0.00    -0.312 A  
HETATM    6  C   UNL     1     -11.247  13.889  66.700  1.00  0.00    -0.328 A  
HETATM    7 BR   UNL     1     -11.370  16.000  68.585  1.00  0.00    -0.365 Br 
HETATM    8  C   UNL     1     -11.298  12.569  66.273  1.00  0.00    -0.338 A  
HETATM    9  C   UNL     1     -11.545  11.542  67.178  1.00  0.00    -0.249 A  
HETATM   10 BR   UNL     1     -11.074  12.167  64.439  1.00  0.00    -0.419 Br 
HETATM   11  C   UNL     1     -11.722  11.812  68.553  1.00  0.00    -0.390 A  
ENDROOT
BRANCH  11  12
HETATM   12  C   UNL     1     -12.097  10.649  69.453  1.00  0.00    -0.178 C  
BRANCH  12  13
HETATM   13  N   UNL     1     -11.226   9.480  69.253  1.00  0.00    -0.440 NA 
HETATM   14  H   UNL     1     -10.354   9.742  68.792  1.00  0.00     0.000 HD 
BRANCH  13  15
HETATM   15  C   UNL     1     -10.969   8.763  70.520  1.00  0.00    -0.239 C  
HETATM   16  C   UNL     1     -10.726   7.266  70.242  1.00  0.00    -0.252 C  
HETATM   17  C   UNL     1      -9.406   6.990  69.514  1.00  0.00    -0.148 C  
HETATM   18  C   UNL     1      -8.208   7.661  70.190  1.00  0.00    -0.124 C  
HETATM   19  C   UNL     1      -8.460   9.137  70.489  1.00  0.00    -0.236 C  
HETATM   20  O   UNL     1      -7.926   6.998  71.424  1.00  0.00    -0.102 OA 
HETATM   21  C   UNL     1      -9.758   9.331  71.277  1.00  0.00    -0.299 C  
HETATM   22  H   UNL     1      -7.183   7.414  71.844  1.00  0.00     0.000 HD 
ENDBRANCH  13  15
ENDBRANCH  12  13
ENDBRANCH  11  12
TORSDOF 3
ENDMDL
MODEL      117
REMARK 921   NORMALIZED FREE ENERGY PREDICTED BY IDOCK:   -4.22 KCAL/MOL
REMARK 922        TOTAL FREE ENERGY PREDICTED BY IDOCK:   -5.62 KCAL/MOL
REMARK 923 INTER-LIGAND FREE ENERGY PREDICTED BY IDOCK:   -5.00 KCAL/MOL
REMARK 924 INTRA-LIGAND FREE ENERGY PREDICTED BY IDOCK:   -0.62 KCAL/MOL
REMARK 927      BINDING AFFINITY PREDICTED BY RF-SCORE:    0.00 PKD
ROOT
HETATM    1  N   UNL     1     -10.744   7.954  69.771  1.00  0.00    -0.257 NA 
HETATM    2  H2  UNL     1      -9.762   8.194  69.640  1.00  0.00     0.000 HD 
HETATM    3  C   UNL     1     -11.433   9.107  70.207  1.00  0.00    -0.146 A  
HETATM    4  H1  UNL     1     -10.796   7.094  70.317  1.00  0.00     0.000 HD 
HETATM    5  C   UNL     1     -11.360  10.300  69.450  1.00  0.00    -0.221 A  
HETATM    6  C   UNL     1     -11.942  11.489  69.894  1.00  0.00    -0.426 A  
HETATM    7 BR   UNL     1     -10.478  10.335  67.761  1.00  0.00    -0.292 Br 
HETATM    8  C   UNL     1     -12.574  11.509  71.129  1.00  0.00    -0.359 A  
HETATM    9  C   UNL     1     -12.604  10.371  71.927  1.00  0.00    -0.387 A  
HETATM   10 BR   UNL     1     -13.365  13.110  71.753  1.00  0.00    -0.420 Br 
HETATM   11  C   UNL     1     -12.017   9.163  71.492  1.00  0.00    -0.422 A  
ENDROOT
BRANCH  11  12
HETATM   12  C   UNL     1     -11.995   8.001  72.468  1.00  0.00    -0.327 C  
BRANCH  12  13
HETATM   13  N   UNL     1     -10.648   7.738  72.999  1.00  0.00    -0.367 NA 
HETATM   14  H   UNL     1     -10.311   8.521  73.559  1.00  0.00     0.000 HD 
BRANCH  13  15
HETATM   15  C   UNL     1     -10.594   6.470  73.757  1.00  0.00    -0.266 C  
HETATM   16  C   UNL     1     -11.126   5.311  72.892  1.00  0.00    -0.365 C  
HETATM   17  C   UNL     1     -10.204   4.954  71.721  1.00  0.00    -0.268 C  
HETATM   18  C   UNL     1      -8.753   4.739  72.157  1.00  0.00    -0.124 C  
HETATM   19  C   UNL     1      -8.235   5.875  73.037  1.00  0.00    -0.117 C  
HETATM   20  O   UNL     1      -8.655   3.522  72.898  1.00  0.00    -0.084 OA 
HETATM   21  C   UNL     1      -9.169   6.129  74.222  1.00  0.00    -0.156 C  
HETATM   22  H   UNL     1      -7.755   3.388  73.168  1.00  0.00     0.000 HD 
ENDBRANCH  13  15
ENDBRANCH  12  13
ENDBRANCH  11  12
TORSDOF 3
ENDMDL
MODEL      118
REMARK 921   NORMALIZED FREE ENERGY PREDICTED BY IDOCK:   -4.21 KCAL/MOL
REMARK 922        TOTAL FREE ENERGY PREDICTED BY IDOCK:   -5.61 KCAL/MOL
REMARK 923 INTER-LIGAND FREE ENERGY PREDICTED BY IDOCK:   -5.49 KCAL/MOL
REMARK 924 INTRA-LIGAND FREE ENERGY PREDICTED BY IDOCK:   -0.12 KCAL/MOL
REMARK 927      BINDING AFFINITY PREDICTED BY RF-SCORE:    0.00 PKD
ROOT
HETATM    1  N   UNL     1      -8.329   9.705  67.595  1.00  0.00    -0.121 NA 
HETATM    2  H2  UNL     1      -7.403  10.026  67.315  1.00  0.00     0.000 HD 
HETATM    3  C   UNL     1      -9.279  10.249  66.703  1.00  0.00    -0.155 A  
HETATM    4  H1  UNL     1      -8.433   9.851  68.599  1.00  0.00     0.000 HD 
HETATM    5  C   UNL     1      -9.136  10.047  65.311  1.00  0.00    -0.200 A  
HETATM    6  C   UNL     1      -9.994  10.649  64.388  1.00  0.00    -0.415 A  
HETATM    7 BR   UNL     1      -7.768   8.913  64.622  1.00  0.00    -0.123 Br 
HETATM    8  C   UNL     1     -10.990  11.499  64.849  1.00  0.00    -0.254 A  
HETATM    9  C   UNL     1     -11.114  11.772  66.207  1.00  0.00    -0.364 A  
HETATM   10 BR   UNL     1     -12.160  12.329  63.617  1.00  0.00    -0.673 Br 
HETATM   11  C   UNL     1     -10.251  11.172  67.151  1.00  0.00    -0.235 A  
ENDROOT
BRANCH  11  12
HETATM   12  C   UNL     1     -10.382  11.608  68.598  1.00  0.00    -0.215 C  
BRANCH  12  13
HETATM   13  N   UNL     1     -10.125  13.047  68.776  1.00  0.00    -0.423 NA 
HETATM   14  H   UNL     1      -9.346  13.359  68.197  1.00  0.00     0.000 HD 
BRANCH  13  15
HETATM   15  C   UNL     1     -11.337  13.856  68.531  1.00  0.00    -0.280 C  
HETATM   16  C   UNL     1     -12.475  13.406  69.468  1.00  0.00    -0.018 C  
HETATM   17  C   UNL     1     -12.223  13.753  70.939  1.00  0.00    -0.427 C  
HETATM   18  C   UNL     1     -11.846  15.222  71.142  1.00  0.00    -0.348 C  
HETATM   19  C   UNL     1     -10.737  15.675  70.195  1.00  0.00    -0.355 C  
HETATM   20  O   UNL     1     -12.992  16.043  70.911  1.00  0.00    -0.596 OA 
HETATM   21  C   UNL     1     -11.088  15.359  68.739  1.00  0.00    -0.284 C  
HETATM   22  H   UNL     1     -12.759  16.955  71.037  1.00  0.00     0.000 HD 
ENDBRANCH  13  15
ENDBRANCH  12  13
ENDBRANCH  11  12
TORSDOF 3
ENDMDL
MODEL      119
REMARK 921   NORMALIZED FREE ENERGY PREDICTED BY IDOCK:   -4.20 KCAL/MOL
REMARK 922        TOTAL FREE ENERGY PREDICTED BY IDOCK:   -5.60 KCAL/MOL
REMARK 923 INTER-LIGAND FREE ENERGY PREDICTED BY IDOCK:   -5.03 KCAL/MOL
REMARK 924 INTRA-LIGAND FREE ENERGY PREDICTED BY IDOCK:   -0.58 KCAL/MOL
REMARK 927      BINDING AFFINITY PREDICTED BY RF-SCORE:    0.00 PKD
ROOT
HETATM    1  N   UNL     1     -12.187  10.779  68.851  1.00  0.00    -0.795 NA 
HETATM    2  H2  UNL     1     -11.726  10.946  69.746  1.00  0.00     0.000 HD 
HETATM    3  C   UNL     1     -11.194  10.594  67.865  1.00  0.00    -0.308 A  
HETATM    4  H1  UNL     1     -12.907  11.489  68.721  1.00  0.00     0.000 HD 
HETATM    5  C   UNL     1     -10.195   9.609  68.045  1.00  0.00    -0.194 A  
HETATM    6  C   UNL     1      -9.138   9.460  67.145  1.00  0.00    -0.148 A  
HETATM    7 BR   UNL     1     -10.257   8.412  69.526  1.00  0.00    -0.210 Br 
HETATM    8  C   UNL     1      -9.046  10.327  66.065  1.00  0.00    -0.161 A  
HETATM    9  C   UNL     1      -9.974  11.349  65.897  1.00  0.00    -0.274 A  
HETATM   10 BR   UNL     1      -7.621  10.146  64.835  1.00  0.00    -0.120 Br 
HETATM   11  C   UNL     1     -11.046  11.513  66.802  1.00  0.00    -0.361 A  
ENDROOT
BRANCH  11  12
HETATM   12  C   UNL     1     -11.948  12.718  66.610  1.00  0.00    -0.341 C  
BRANCH  12  13
HETATM   13  N   UNL     1     -11.197  13.983  66.583  1.00  0.00    -0.316 NA 
HETATM   14  H   UNL     1     -11.733  14.724  66.131  1.00  0.00     0.000 HD 
BRANCH  13  15
HETATM   15  C   UNL     1     -10.754  14.388  67.935  1.00  0.00    -0.244 C  
HETATM   16  C   UNL     1      -9.218  14.305  68.037  1.00  0.00    -0.192 C  
HETATM   17  C   UNL     1      -8.495  15.363  67.198  1.00  0.00    -0.241 C  
HETATM   18  C   UNL     1      -9.021  16.778  67.451  1.00  0.00    -0.204 C  
HETATM   19  C   UNL     1     -10.544  16.854  67.376  1.00  0.00    -0.294 C  
HETATM   20  O   UNL     1      -8.617  17.208  68.751  1.00  0.00    -0.268 OA 
HETATM   21  C   UNL     1     -11.198  15.816  68.291  1.00  0.00    -0.356 C  
HETATM   22  H   UNL     1      -8.943  18.086  68.909  1.00  0.00     0.000 HD 
ENDBRANCH  13  15
ENDBRANCH  12  13
ENDBRANCH  11  12
TORSDOF 3
ENDMDL
MODEL      120
REMARK 921   NORMALIZED FREE ENERGY PREDICTED BY IDOCK:   -4.20 KCAL/MOL
REMARK 922        TOTAL FREE ENERGY PREDICTED BY IDOCK:   -5.60 KCAL/MOL
REMARK 923 INTER-LIGAND FREE ENERGY PREDICTED BY IDOCK:   -4.87 KCAL/MOL
REMARK 924 INTRA-LIGAND FREE ENERGY PREDICTED BY IDOCK:   -0.73 KCAL/MOL
REMARK 927      BINDING AFFINITY PREDICTED BY RF-SCORE:    0.00 PKD
ROOT
HETATM    1  N   UNL     1     -12.069   6.697  69.948  1.00  0.00    -0.579 NA 
HETATM    2  H2  UNL     1     -12.231   7.342  70.721  1.00  0.00     0.000 HD 
HETATM    3  C   UNL     1     -10.693   6.383  69.908  1.00  0.00    -0.274 A  
HETATM    4  H1  UNL     1     -12.530   7.067  69.116  1.00  0.00     0.000 HD 
HETATM    5  C   UNL     1     -10.053   5.871  71.060  1.00  0.00    -0.200 A  
HETATM    6  C   UNL     1      -8.676   5.641  71.096  1.00  0.00    -0.137 A  
HETATM    7 BR   UNL     1     -11.051   5.443  72.626  1.00  0.00    -0.332 Br 
HETATM    8  C   UNL     1      -7.911   5.960  69.983  1.00  0.00    -0.100 A  
HETATM    9  C   UNL     1      -8.500   6.528  68.859  1.00  0.00    -0.122 A  
HETATM   10 BR   UNL     1      -6.044   5.662  70.011  1.00  0.00    -0.027 Br 
HETATM   11  C   UNL     1      -9.891   6.769  68.811  1.00  0.00    -0.143 A  
ENDROOT
BRANCH  11  12
HETATM   12  C   UNL     1     -10.436   7.493  67.594  1.00  0.00    -0.250 C  
BRANCH  12  13
HETATM   13  N   UNL     1     -11.143   8.734  67.948  1.00  0.00    -0.435 NA 
HETATM   14  H   UNL     1     -11.991   8.539  68.480  1.00  0.00     0.000 HD 
BRANCH  13  15
HETATM   15  C   UNL     1     -10.265   9.681  68.666  1.00  0.00    -0.189 C  
HETATM   16  C   UNL     1     -10.056  10.955  67.823  1.00  0.00    -0.203 C  
HETATM   17  C   UNL     1     -11.319  11.814  67.698  1.00  0.00    -0.370 C  
HETATM   18  C   UNL     1     -11.968  12.110  69.052  1.00  0.00    -0.247 C  
HETATM   19  C   UNL     1     -12.150  10.851  69.897  1.00  0.00    -0.428 C  
HETATM   20  O   UNL     1     -11.147  13.023  69.782  1.00  0.00    -0.480 OA 
HETATM   21  C   UNL     1     -10.834  10.082  70.037  1.00  0.00    -0.352 C  
HETATM   22  H   UNL     1     -11.550  13.207  70.622  1.00  0.00     0.000 HD 
ENDBRANCH  13  15
ENDBRANCH  12  13
ENDBRANCH  11  12
TORSDOF 3
ENDMDL
MODEL      121
REMARK 921   NORMALIZED FREE ENERGY PREDICTED BY IDOCK:   -4.20 KCAL/MOL
REMARK 922        TOTAL FREE ENERGY PREDICTED BY IDOCK:   -5.59 KCAL/MOL
REMARK 923 INTER-LIGAND FREE ENERGY PREDICTED BY IDOCK:   -5.06 KCAL/MOL
REMARK 924 INTRA-LIGAND FREE ENERGY PREDICTED BY IDOCK:   -0.53 KCAL/MOL
REMARK 927      BINDING AFFINITY PREDICTED BY RF-SCORE:    0.00 PKD
ROOT
HETATM    1  N   UNL     1     -11.240  10.751  70.349  1.00  0.00    -0.448 NA 
HETATM    2  H2  UNL     1     -11.073  10.787  71.355  1.00  0.00     0.000 HD 
HETATM    3  C   UNL     1     -10.226   9.970  69.754  1.00  0.00    -0.250 A  
HETATM    4  H1  UNL     1     -11.413  11.700  70.016  1.00  0.00     0.000 HD 
HETATM    5  C   UNL     1      -9.986   8.655  70.215  1.00  0.00    -0.186 A  
HETATM    6  C   UNL     1      -8.930   7.884  69.725  1.00  0.00    -0.146 A  
HETATM    7 BR   UNL     1     -11.119   7.855  71.522  1.00  0.00    -0.296 Br 
HETATM    8  C   UNL     1      -8.070   8.440  68.787  1.00  0.00    -0.121 A  
HETATM    9  C   UNL     1      -8.238   9.753  68.364  1.00  0.00    -0.105 A  
HETATM   10 BR   UNL     1      -6.630   7.416  68.113  1.00  0.00    -0.051 Br 
HETATM   11  C   UNL     1      -9.300  10.545  68.854  1.00  0.00    -0.192 A  
ENDROOT
BRANCH  11  12
HETATM   12  C   UNL     1      -9.346  12.000  68.427  1.00  0.00    -0.175 C  
BRANCH  12  13
HETATM   13  N   UNL     1      -9.578  12.153  66.982  1.00  0.00    -0.201 NA 
HETATM   14  H   UNL     1      -8.810  11.759  66.439  1.00  0.00     0.000 HD 
BRANCH  13  15
HETATM   15  C   UNL     1     -10.878  11.582  66.570  1.00  0.00    -0.288 C  
HETATM   16  C   UNL     1     -11.750  12.668  65.910  1.00  0.00    -0.470 C  
HETATM   17  C   UNL     1     -11.222  13.126  64.546  1.00  0.00    -0.383 C  
HETATM   18  C   UNL     1     -10.934  11.957  63.602  1.00  0.00    -0.440 C  
HETATM   19  C   UNL     1     -10.092  10.868  64.265  1.00  0.00    -0.413 C  
HETATM   20  O   UNL     1     -12.167  11.372  63.181  1.00  0.00    -0.904 OA 
HETATM   21  C   UNL     1     -10.715  10.412  65.586  1.00  0.00     0.005 C  
HETATM   22  H   UNL     1     -11.988  10.646  62.595  1.00  0.00     0.000 HD 
ENDBRANCH  13  15
ENDBRANCH  12  13
ENDBRANCH  11  12
TORSDOF 3
ENDMDL
MODEL      122
REMARK 921   NORMALIZED FREE ENERGY PREDICTED BY IDOCK:   -4.20 KCAL/MOL
REMARK 922        TOTAL FREE ENERGY PREDICTED BY IDOCK:   -5.59 KCAL/MOL
REMARK 923 INTER-LIGAND FREE ENERGY PREDICTED BY IDOCK:   -5.11 KCAL/MOL
REMARK 924 INTRA-LIGAND FREE ENERGY PREDICTED BY IDOCK:   -0.48 KCAL/MOL
REMARK 927      BINDING AFFINITY PREDICTED BY RF-SCORE:    0.00 PKD
ROOT
HETATM    1  N   UNL     1     -11.907  12.982  65.538  1.00  0.00    -0.371 NA 
HETATM    2  H2  UNL     1     -12.620  12.585  64.927  1.00  0.00     0.000 HD 
HETATM    3  C   UNL     1     -11.090  11.932  66.013  1.00  0.00    -0.322 A  
HETATM    4  H1  UNL     1     -12.362  13.612  66.200  1.00  0.00     0.000 HD 
HETATM    5  C   UNL     1     -10.460  11.060  65.096  1.00  0.00    -0.262 A  
HETATM    6  C   UNL     1      -9.726   9.950  65.522  1.00  0.00    -0.370 A  
HETATM    7 BR   UNL     1     -10.561  11.372  63.219  1.00  0.00    -0.302 Br 
HETATM    8  C   UNL     1      -9.647   9.677  66.881  1.00  0.00    -0.167 A  
HETATM    9  C   UNL     1     -10.312  10.477  67.803  1.00  0.00    -0.248 A  
HETATM   10 BR   UNL     1      -8.663   8.178  67.480  1.00  0.00    -0.130 Br 
HETATM   11  C   UNL     1     -11.060  11.600  67.386  1.00  0.00    -0.337 A  
ENDROOT
BRANCH  11  12
HETATM   12  C   UNL     1     -11.845  12.353  68.443  1.00  0.00    -0.309 C  
BRANCH  12  13
HETATM   13  N   UNL     1     -10.996  13.258  69.234  1.00  0.00    -0.429 NA 
HETATM   14  H   UNL     1     -10.071  13.359  68.816  1.00  0.00     0.000 HD 
BRANCH  13  15
HETATM   15  C   UNL     1     -11.639  14.573  69.442  1.00  0.00    -0.303 C  
HETATM   16  C   UNL     1     -10.734  15.477  70.302  1.00  0.00    -0.352 C  
HETATM   17  C   UNL     1      -9.457  15.922  69.580  1.00  0.00    -0.219 C  
HETATM   18  C   UNL     1      -9.738  16.521  68.200  1.00  0.00    -0.234 C  
HETATM   19  C   UNL     1     -10.657  15.638  67.358  1.00  0.00    -0.301 C  
HETATM   20  O   UNL     1     -10.364  17.796  68.354  1.00  0.00    -0.356 OA 
HETATM   21  C   UNL     1     -11.941  15.291  68.116  1.00  0.00    -0.099 C  
HETATM   22  H   UNL     1     -10.538  18.168  67.498  1.00  0.00     0.000 HD 
ENDBRANCH  13  15
ENDBRANCH  12  13
ENDBRANCH  11  12
TORSDOF 3
ENDMDL
MODEL      123
REMARK 921   NORMALIZED FREE ENERGY PREDICTED BY IDOCK:   -4.19 KCAL/MOL
REMARK 922        TOTAL FREE ENERGY PREDICTED BY IDOCK:   -5.59 KCAL/MOL
REMARK 923 INTER-LIGAND FREE ENERGY PREDICTED BY IDOCK:   -5.08 KCAL/MOL
REMARK 924 INTRA-LIGAND FREE ENERGY PREDICTED BY IDOCK:   -0.50 KCAL/MOL
REMARK 927      BINDING AFFINITY PREDICTED BY RF-SCORE:    0.00 PKD
ROOT
HETATM    1  N   UNL     1      -7.924  11.834  69.143  1.00  0.00    -0.351 NA 
HETATM    2  H2  UNL     1      -7.205  12.044  68.451  1.00  0.00     0.000 HD 
HETATM    3  C   UNL     1      -8.520  10.598  68.809  1.00  0.00    -0.149 A  
HETATM    4  H1  UNL     1      -8.507  12.663  69.265  1.00  0.00     0.000 HD 
HETATM    5  C   UNL     1      -7.713   9.450  68.640  1.00  0.00    -0.084 A  
HETATM    6  C   UNL     1      -8.246   8.232  68.213  1.00  0.00    -0.128 A  
HETATM    7 BR   UNL     1      -5.845   9.502  69.013  1.00  0.00    -0.035 Br 
HETATM    8  C   UNL     1      -9.599   8.159  67.910  1.00  0.00    -0.155 A  
HETATM    9  C   UNL     1     -10.406   9.288  68.002  1.00  0.00    -0.270 A  
HETATM   10 BR   UNL     1     -10.343   6.521  67.326  1.00  0.00    -0.327 Br 
HETATM   11  C   UNL     1      -9.879  10.526  68.429  1.00  0.00    -0.171 A  
ENDROOT
BRANCH  11  12
HETATM   12  C   UNL     1     -10.800  11.731  68.393  1.00  0.00    -0.223 C  
BRANCH  12  13
HETATM   13  N   UNL     1     -11.579  11.806  67.147  1.00  0.00    -0.544 NA 
HETATM   14  H   UNL     1     -12.444  12.330  67.282  1.00  0.00     0.000 HD 
BRANCH  13  15
HETATM   15  C   UNL     1     -10.782  12.360  66.033  1.00  0.00    -0.261 C  
HETATM   16  C   UNL     1     -11.533  12.175  64.700  1.00  0.00    -0.388 C  
HETATM   17  C   UNL     1     -12.787  13.049  64.583  1.00  0.00    -0.279 C  
HETATM   18  C   UNL     1     -12.512  14.521  64.899  1.00  0.00    -0.311 C  
HETATM   19  C   UNL     1     -11.744  14.701  66.207  1.00  0.00    -0.325 C  
HETATM   20  O   UNL     1     -11.739  15.096  63.845  1.00  0.00    -0.795 OA 
HETATM   21  C   UNL     1     -10.470  13.853  66.224  1.00  0.00    -0.287 C  
HETATM   22  H   UNL     1     -11.568  16.010  64.041  1.00  0.00     0.000 HD 
ENDBRANCH  13  15
ENDBRANCH  12  13
ENDBRANCH  11  12
TORSDOF 3
ENDMDL
MODEL      124
REMARK 921   NORMALIZED FREE ENERGY PREDICTED BY IDOCK:   -4.19 KCAL/MOL
REMARK 922        TOTAL FREE ENERGY PREDICTED BY IDOCK:   -5.58 KCAL/MOL
REMARK 923 INTER-LIGAND FREE ENERGY PREDICTED BY IDOCK:   -4.82 KCAL/MOL
REMARK 924 INTRA-LIGAND FREE ENERGY PREDICTED BY IDOCK:   -0.77 KCAL/MOL
REMARK 927      BINDING AFFINITY PREDICTED BY RF-SCORE:    0.00 PKD
ROOT
HETATM    1  N   UNL     1      -9.359  11.265  69.167  1.00  0.00    -0.407 NA 
HETATM    2  H2  UNL     1      -8.508  11.800  69.337  1.00  0.00     0.000 HD 
HETATM    3  C   UNL     1      -9.513  11.098  67.774  1.00  0.00    -0.168 A  
HETATM    4  H1  UNL     1     -10.114  11.676  69.717  1.00  0.00     0.000 HD 
HETATM    5  C   UNL     1      -8.466  10.529  67.012  1.00  0.00    -0.128 A  
HETATM    6  C   UNL     1      -8.535  10.437  65.620  1.00  0.00    -0.169 A  
HETATM    7 BR   UNL     1      -6.908   9.830  67.858  1.00  0.00    -0.073 Br 
HETATM    8  C   UNL     1      -9.644  10.955  64.965  1.00  0.00    -0.251 A  
HETATM    9  C   UNL     1     -10.658  11.581  65.680  1.00  0.00    -0.326 A  
HETATM   10 BR   UNL     1      -9.756  10.846  63.081  1.00  0.00    -0.409 Br 
HETATM   11  C   UNL     1     -10.600  11.684  67.087  1.00  0.00    -0.269 A  
ENDROOT
BRANCH  11  12
HETATM   12  C   UNL     1     -11.691  12.479  67.779  1.00  0.00    -0.359 C  
BRANCH  12  13
HETATM   13  N   UNL     1     -11.162  13.648  68.502  1.00  0.00    -0.264 NA 
HETATM   14  H   UNL     1     -10.154  13.576  68.635  1.00  0.00     0.000 HD 
BRANCH  13  15
HETATM   15  C   UNL     1     -11.528  14.916  67.837  1.00  0.00    -0.340 C  
HETATM   16  C   UNL     1     -11.339  16.098  68.809  1.00  0.00    -0.359 C  
HETATM   17  C   UNL     1      -9.870  16.388  69.134  1.00  0.00    -0.272 C  
HETATM   18  C   UNL     1      -9.003  16.519  67.879  1.00  0.00    -0.205 C  
HETATM   19  C   UNL     1      -9.211  15.361  66.905  1.00  0.00    -0.254 C  
HETATM   20  O   UNL     1      -9.327  17.735  67.203  1.00  0.00    -0.254 OA 
HETATM   21  C   UNL     1     -10.693  15.175  66.573  1.00  0.00    -0.310 C  
HETATM   22  H   UNL     1      -8.789  17.816  66.425  1.00  0.00     0.000 HD 
ENDBRANCH  13  15
ENDBRANCH  12  13
ENDBRANCH  11  12
TORSDOF 3
ENDMDL
MODEL      125
REMARK 921   NORMALIZED FREE ENERGY PREDICTED BY IDOCK:   -4.18 KCAL/MOL
REMARK 922        TOTAL FREE ENERGY PREDICTED BY IDOCK:   -5.58 KCAL/MOL
REMARK 923 INTER-LIGAND FREE ENERGY PREDICTED BY IDOCK:   -4.85 KCAL/MOL
REMARK 924 INTRA-LIGAND FREE ENERGY PREDICTED BY IDOCK:   -0.73 KCAL/MOL
REMARK 927      BINDING AFFINITY PREDICTED BY RF-SCORE:    0.00 PKD
ROOT
HETATM    1  N   UNL     1     -12.065   6.754  69.835  1.00  0.00    -0.625 NA 
HETATM    2  H2  UNL     1     -11.759   7.534  70.416  1.00  0.00     0.000 HD 
HETATM    3  C   UNL     1     -10.993   5.843  69.710  1.00  0.00    -0.382 A  
HETATM    4  H1  UNL     1     -12.513   7.130  68.999  1.00  0.00     0.000 HD 
HETATM    5  C   UNL     1     -10.372   5.322  70.868  1.00  0.00    -0.232 A  
HETATM    6  C   UNL     1      -9.247   4.497  70.792  1.00  0.00    -0.202 A  
HETATM    7 BR   UNL     1     -11.060   5.703  72.604  1.00  0.00    -0.347 Br 
HETATM    8  C   UNL     1      -8.703   4.214  69.546  1.00  0.00    -0.083 A  
HETATM    9  C   UNL     1      -9.251   4.766  68.393  1.00  0.00    -0.162 A  
HETATM   10 BR   UNL     1      -7.178   3.104  69.419  1.00  0.00    -0.045 Br 
HETATM   11  C   UNL     1     -10.386   5.604  68.456  1.00  0.00    -0.265 A  
ENDROOT
BRANCH  11  12
HETATM   12  C   UNL     1     -10.852   6.253  67.167  1.00  0.00    -0.381 C  
BRANCH  12  13
HETATM   13  N   UNL     1     -10.939   7.718  67.275  1.00  0.00    -0.524 NA 
HETATM   14  H   UNL     1     -11.559   7.997  68.036  1.00  0.00     0.000 HD 
BRANCH  13  15
HETATM   15  C   UNL     1      -9.605   8.340  67.412  1.00  0.00    -0.160 C  
HETATM   16  C   UNL     1      -9.026   8.665  66.022  1.00  0.00    -0.227 C  
HETATM   17  C   UNL     1      -9.768   9.797  65.303  1.00  0.00    -0.371 C  
HETATM   18  C   UNL     1      -9.928  11.044  66.175  1.00  0.00    -0.231 C  
HETATM   19  C   UNL     1     -10.477  10.718  67.563  1.00  0.00    -0.260 C  
HETATM   20  O   UNL     1      -8.658  11.677  66.336  1.00  0.00    -0.205 OA 
HETATM   21  C   UNL     1      -9.646   9.630  68.247  1.00  0.00    -0.153 C  
HETATM   22  H   UNL     1      -8.756  12.451  66.877  1.00  0.00     0.000 HD 
ENDBRANCH  13  15
ENDBRANCH  12  13
ENDBRANCH  11  12
TORSDOF 3
ENDMDL
MODEL      126
REMARK 921   NORMALIZED FREE ENERGY PREDICTED BY IDOCK:   -4.18 KCAL/MOL
REMARK 922        TOTAL FREE ENERGY PREDICTED BY IDOCK:   -5.57 KCAL/MOL
REMARK 923 INTER-LIGAND FREE ENERGY PREDICTED BY IDOCK:   -5.11 KCAL/MOL
REMARK 924 INTRA-LIGAND FREE ENERGY PREDICTED BY IDOCK:   -0.47 KCAL/MOL
REMARK 927      BINDING AFFINITY PREDICTED BY RF-SCORE:    0.00 PKD
ROOT
HETATM    1  N   UNL     1      -9.338  11.822  67.347  1.00  0.00    -0.171 NA 
HETATM    2  H2  UNL     1      -8.435  12.240  67.569  1.00  0.00     0.000 HD 
HETATM    3  C   UNL     1      -9.177  10.975  66.229  1.00  0.00    -0.182 A  
HETATM    4  H1  UNL     1     -10.041  12.561  67.328  1.00  0.00     0.000 HD 
HETATM    5  C   UNL     1      -8.203   9.951  66.255  1.00  0.00    -0.114 A  
HETATM    6  C   UNL     1      -7.941   9.156  65.136  1.00  0.00    -0.117 A  
HETATM    7 BR   UNL     1      -7.209   9.585  67.839  1.00  0.00    -0.082 Br 
HETATM    8  C   UNL     1      -8.629   9.406  63.957  1.00  0.00    -0.205 A  
HETATM    9  C   UNL     1      -9.545  10.450  63.880  1.00  0.00    -0.370 A  
HETATM   10 BR   UNL     1      -8.288   8.345  62.429  1.00  0.00    -0.149 Br 
HETATM   11  C   UNL     1      -9.816  11.263  65.002  1.00  0.00    -0.307 A  
ENDROOT
BRANCH  11  12
HETATM   12  C   UNL     1     -10.743  12.448  64.803  1.00  0.00    -0.298 C  
BRANCH  12  13
HETATM   13  N   UNL     1     -10.116  13.722  65.189  1.00  0.00    -0.538 NA 
HETATM   14  H   UNL     1      -9.458  14.042  64.478  1.00  0.00     0.000 HD 
BRANCH  13  15
HETATM   15  C   UNL     1     -11.124  14.759  65.496  1.00  0.00    -0.346 C  
HETATM   16  C   UNL     1     -12.266  14.157  66.338  1.00  0.00    -0.473 C  
HETATM   17  C   UNL     1     -11.838  13.780  67.760  1.00  0.00    -0.404 C  
HETATM   18  C   UNL     1     -11.119  14.922  68.483  1.00  0.00    -0.266 C  
HETATM   19  C   UNL     1     -10.006  15.536  67.637  1.00  0.00    -0.233 C  
HETATM   20  O   UNL     1     -12.059  15.951  68.797  1.00  0.00    -0.526 OA 
HETATM   21  C   UNL     1     -10.521  15.951  66.257  1.00  0.00    -0.324 C  
HETATM   22  H   UNL     1     -11.614  16.659  69.245  1.00  0.00     0.000 HD 
ENDBRANCH  13  15
ENDBRANCH  12  13
ENDBRANCH  11  12
TORSDOF 3
ENDMDL
MODEL      127
REMARK 921   NORMALIZED FREE ENERGY PREDICTED BY IDOCK:   -4.16 KCAL/MOL
REMARK 922        TOTAL FREE ENERGY PREDICTED BY IDOCK:   -5.55 KCAL/MOL
REMARK 923 INTER-LIGAND FREE ENERGY PREDICTED BY IDOCK:   -5.19 KCAL/MOL
REMARK 924 INTRA-LIGAND FREE ENERGY PREDICTED BY IDOCK:   -0.36 KCAL/MOL
REMARK 927      BINDING AFFINITY PREDICTED BY RF-SCORE:    0.00 PKD
ROOT
HETATM    1  N   UNL     1     -11.294   8.590  70.009  1.00  0.00    -0.450 NA 
HETATM    2  H2  UNL     1     -10.613   8.784  70.743  1.00  0.00     0.000 HD 
HETATM    3  C   UNL     1     -10.918   7.398  69.353  1.00  0.00    -0.108 A  
HETATM    4  H1  UNL     1     -11.440   9.444  69.470  1.00  0.00     0.000 HD 
HETATM    5  C   UNL     1     -10.715   6.215  70.100  1.00  0.00    -0.302 A  
HETATM    6  C   UNL     1     -10.246   5.041  69.506  1.00  0.00    -0.286 A  
HETATM    7 BR   UNL     1     -11.099   6.158  71.966  1.00  0.00    -0.339 Br 
HETATM    8  C   UNL     1      -9.934   5.049  68.154  1.00  0.00    -0.128 A  
HETATM    9  C   UNL     1     -10.059   6.215  67.406  1.00  0.00    -0.190 A  
HETATM   10 BR   UNL     1      -9.294   3.472  67.330  1.00  0.00    -0.230 Br 
HETATM   11  C   UNL     1     -10.528   7.409  67.994  1.00  0.00    -0.253 A  
ENDROOT
BRANCH  11  12
HETATM   12  C   UNL     1     -10.528   8.661  67.137  1.00  0.00    -0.289 C  
BRANCH  12  13
HETATM   13  N   UNL     1      -9.736   8.500  65.908  1.00  0.00    -0.466 NA 
HETATM   14  H   UNL     1     -10.334   8.320  65.102  1.00  0.00     0.000 HD 
BRANCH  13  15
HETATM   15  C   UNL     1      -8.847   9.657  65.671  1.00  0.00    -0.159 C  
HETATM   16  C   UNL     1      -8.012   9.432  64.395  1.00  0.00    -0.131 C  
HETATM   17  C   UNL     1      -8.844   9.475  63.109  1.00  0.00    -0.239 C  
HETATM   18  C   UNL     1      -9.725  10.722  63.017  1.00  0.00    -0.340 C  
HETATM   19  C   UNL     1     -10.532  10.960  64.292  1.00  0.00    -0.405 C  
HETATM   20  O   UNL     1      -8.903  11.868  62.790  1.00  0.00    -0.607 OA 
HETATM   21  C   UNL     1      -9.628  10.973  65.527  1.00  0.00    -0.263 C  
HETATM   22  H   UNL     1      -9.450  12.643  62.733  1.00  0.00     0.000 HD 
ENDBRANCH  13  15
ENDBRANCH  12  13
ENDBRANCH  11  12
TORSDOF 3
ENDMDL
MODEL      128
REMARK 921   NORMALIZED FREE ENERGY PREDICTED BY IDOCK:   -4.12 KCAL/MOL
REMARK 922        TOTAL FREE ENERGY PREDICTED BY IDOCK:   -5.50 KCAL/MOL
REMARK 923 INTER-LIGAND FREE ENERGY PREDICTED BY IDOCK:   -5.35 KCAL/MOL
REMARK 924 INTRA-LIGAND FREE ENERGY PREDICTED BY IDOCK:   -0.15 KCAL/MOL
REMARK 927      BINDING AFFINITY PREDICTED BY RF-SCORE:    0.00 PKD
ROOT
HETATM    1  N   UNL     1     -10.969  15.326  66.543  1.00  0.00    -0.313 NA 
HETATM    2  H2  UNL     1      -9.971  15.535  66.521  1.00  0.00     0.000 HD 
HETATM    3  C   UNL     1     -11.376  15.228  67.892  1.00  0.00    -0.334 A  
HETATM    4  H1  UNL     1     -11.153  14.556  65.899  1.00  0.00     0.000 HD 
HETATM    5  C   UNL     1     -11.122  16.294  68.784  1.00  0.00    -0.355 A  
HETATM    6  C   UNL     1     -11.416  16.201  70.146  1.00  0.00    -0.309 A  
HETATM    7 BR   UNL     1     -10.381  17.936  68.162  1.00  0.00    -0.390 Br 
HETATM    8  C   UNL     1     -11.937  15.013  70.642  1.00  0.00    -0.318 A  
HETATM    9  C   UNL     1     -12.135  13.923  69.802  1.00  0.00    -0.404 A  
HETATM   10 BR   UNL     1     -12.339  14.861  72.483  1.00  0.00    -0.417 Br 
HETATM   11  C   UNL     1     -11.838  14.003  68.423  1.00  0.00    -0.397 A  
ENDROOT
BRANCH  11  12
HETATM   12  C   UNL     1     -11.978  12.737  67.600  1.00  0.00    -0.273 C  
BRANCH  12  13
HETATM   13  N   UNL     1     -10.714  11.989  67.501  1.00  0.00    -0.220 NA 
HETATM   14  H   UNL     1     -10.881  10.985  67.445  1.00  0.00     0.000 HD 
BRANCH  13  15
HETATM   15  C   UNL     1      -9.884  12.460  66.372  1.00  0.00    -0.240 C  
HETATM   16  C   UNL     1      -8.389  12.330  66.721  1.00  0.00    -0.087 C  
HETATM   17  C   UNL     1      -7.910  10.877  66.809  1.00  0.00    -0.141 C  
HETATM   18  C   UNL     1      -8.296  10.053  65.578  1.00  0.00    -0.148 C  
HETATM   19  C   UNL     1      -9.772  10.204  65.216  1.00  0.00    -0.365 C  
HETATM   20  O   UNL     1      -7.517  10.479  64.459  1.00  0.00    -0.318 OA 
HETATM   21  C   UNL     1     -10.162  11.678  65.078  1.00  0.00    -0.321 C  
HETATM   22  H   UNL     1      -7.756   9.968  63.695  1.00  0.00     0.000 HD 
ENDBRANCH  13  15
ENDBRANCH  12  13
ENDBRANCH  11  12
TORSDOF 3
ENDMDL
MODEL      129
REMARK 921   NORMALIZED FREE ENERGY PREDICTED BY IDOCK:   -4.10 KCAL/MOL
REMARK 922        TOTAL FREE ENERGY PREDICTED BY IDOCK:   -5.49 KCAL/MOL
REMARK 923 INTER-LIGAND FREE ENERGY PREDICTED BY IDOCK:   -4.99 KCAL/MOL
REMARK 924 INTRA-LIGAND FREE ENERGY PREDICTED BY IDOCK:   -0.50 KCAL/MOL
REMARK 927      BINDING AFFINITY PREDICTED BY RF-SCORE:    0.00 PKD
ROOT
HETATM    1  N   UNL     1     -11.467   4.666  65.153  1.00  0.00    -1.107 NA 
HETATM    2  H2  UNL     1     -11.888   3.741  65.236  1.00  0.00     0.000 HD 
HETATM    3  C   UNL     1     -10.214   4.648  65.803  1.00  0.00    -0.258 A  
HETATM    4  H1  UNL     1     -12.165   5.364  65.413  1.00  0.00     0.000 HD 
HETATM    5  C   UNL     1      -9.247   3.681  65.444  1.00  0.00    -0.153 A  
HETATM    6  C   UNL     1      -8.035   3.562  66.127  1.00  0.00    -0.092 A  
HETATM    7 BR   UNL     1      -9.543   2.498  63.979  1.00  0.00    -0.141 Br 
HETATM    8  C   UNL     1      -7.791   4.391  67.214  1.00  0.00    -0.096 A  
HETATM    9  C   UNL     1      -8.750   5.306  67.634  1.00  0.00    -0.106 A  
HETATM   10 BR   UNL     1      -6.159   4.245  68.157  1.00  0.00    -0.032 Br 
HETATM   11  C   UNL     1      -9.981   5.434  66.954  1.00  0.00    -0.209 A  
ENDROOT
BRANCH  11  12
HETATM   12  C   UNL     1     -11.015   6.375  67.544  1.00  0.00    -0.364 C  
BRANCH  12  13
HETATM   13  N   UNL     1     -10.606   6.909  68.853  1.00  0.00    -0.211 NA 
HETATM   14  H   UNL     1     -10.627   7.929  68.860  1.00  0.00     0.000 HD 
BRANCH  13  15
HETATM   15  C   UNL     1     -11.416   6.346  69.954  1.00  0.00    -0.415 C  
HETATM   16  C   UNL     1     -10.509   5.599  70.951  1.00  0.00    -0.323 C  
HETATM   17  C   UNL     1      -9.591   6.529  71.752  1.00  0.00    -0.158 C  
HETATM   18  C   UNL     1     -10.349   7.686  72.406  1.00  0.00    -0.238 C  
HETATM   19  C   UNL     1     -11.269   8.409  71.423  1.00  0.00    -0.316 C  
HETATM   20  O   UNL     1     -11.149   7.184  73.477  1.00  0.00    -0.564 OA 
HETATM   21  C   UNL     1     -12.203   7.427  70.712  1.00  0.00    -0.204 C  
HETATM   22  H   UNL     1     -11.620   7.902  73.884  1.00  0.00     0.000 HD 
ENDBRANCH  13  15
ENDBRANCH  12  13
ENDBRANCH  11  12
TORSDOF 3
ENDMDL
MODEL      130
REMARK 921   NORMALIZED FREE ENERGY PREDICTED BY IDOCK:   -4.10 KCAL/MOL
REMARK 922        TOTAL FREE ENERGY PREDICTED BY IDOCK:   -5.48 KCAL/MOL
REMARK 923 INTER-LIGAND FREE ENERGY PREDICTED BY IDOCK:   -4.87 KCAL/MOL
REMARK 924 INTRA-LIGAND FREE ENERGY PREDICTED BY IDOCK:   -0.61 KCAL/MOL
REMARK 927      BINDING AFFINITY PREDICTED BY RF-SCORE:    0.00 PKD
ROOT
HETATM    1  N   UNL     1     -11.503   4.670  65.109  1.00  0.00    -1.107 NA 
HETATM    2  H2  UNL     1     -11.972   3.765  65.083  1.00  0.00     0.000 HD 
HETATM    3  C   UNL     1     -10.225   4.495  65.685  1.00  0.00    -0.253 A  
HETATM    4  H1  UNL     1     -12.147   5.357  65.501  1.00  0.00     0.000 HD 
HETATM    5  C   UNL     1      -9.332   3.543  65.143  1.00  0.00    -0.156 A  
HETATM    6  C   UNL     1      -8.100   3.266  65.740  1.00  0.00    -0.093 A  
HETATM    7 BR   UNL     1      -9.759   2.600  63.543  1.00  0.00    -0.121 Br 
HETATM    8  C   UNL     1      -7.762   3.916  66.919  1.00  0.00    -0.085 A  
HETATM    9  C   UNL     1      -8.648   4.808  67.513  1.00  0.00    -0.104 A  
HETATM   10 BR   UNL     1      -6.101   3.554  67.747  1.00  0.00    -0.029 Br 
HETATM   11  C   UNL     1      -9.898   5.095  66.922  1.00  0.00    -0.201 A  
ENDROOT
BRANCH  11  12
HETATM   12  C   UNL     1     -10.849   5.992  67.691  1.00  0.00    -0.295 C  
BRANCH  12  13
HETATM   13  N   UNL     1     -10.987   7.322  67.077  1.00  0.00    -0.584 NA 
HETATM   14  H   UNL     1     -11.837   7.790  67.392  1.00  0.00     0.000 HD 
BRANCH  13  15
HETATM   15  C   UNL     1      -9.793   8.161  67.310  1.00  0.00    -0.197 C  
HETATM   16  C   UNL     1     -10.022   9.579  66.749  1.00  0.00    -0.297 C  
HETATM   17  C   UNL     1     -11.063  10.382  67.536  1.00  0.00    -0.336 C  
HETATM   18  C   UNL     1     -10.790  10.388  69.041  1.00  0.00    -0.234 C  
HETATM   19  C   UNL     1     -10.536   8.986  69.592  1.00  0.00    -0.227 C  
HETATM   20  O   UNL     1      -9.638  11.188  69.312  1.00  0.00    -0.407 OA 
HETATM   21  C   UNL     1      -9.438   8.270  68.802  1.00  0.00    -0.148 C  
HETATM   22  H   UNL     1      -9.468  11.192  70.246  1.00  0.00     0.000 HD 
ENDBRANCH  13  15
ENDBRANCH  12  13
ENDBRANCH  11  12
TORSDOF 3
ENDMDL
MODEL      131
REMARK 921   NORMALIZED FREE ENERGY PREDICTED BY IDOCK:   -4.09 KCAL/MOL
REMARK 922        TOTAL FREE ENERGY PREDICTED BY IDOCK:   -5.47 KCAL/MOL
REMARK 923 INTER-LIGAND FREE ENERGY PREDICTED BY IDOCK:   -5.24 KCAL/MOL
REMARK 924 INTRA-LIGAND FREE ENERGY PREDICTED BY IDOCK:   -0.23 KCAL/MOL
REMARK 927      BINDING AFFINITY PREDICTED BY RF-SCORE:    0.00 PKD
ROOT
HETATM    1  N   UNL     1     -10.959   9.426  68.318  1.00  0.00    -0.471 NA 
HETATM    2  H2  UNL     1     -10.966   9.410  69.338  1.00  0.00     0.000 HD 
HETATM    3  C   UNL     1      -9.726   8.902  67.871  1.00  0.00    -0.160 A  
HETATM    4  H1  UNL     1     -11.262  10.349  68.007  1.00  0.00     0.000 HD 
HETATM    5  C   UNL     1      -9.306   7.622  68.302  1.00  0.00    -0.145 A  
HETATM    6  C   UNL     1      -8.052   7.107  67.965  1.00  0.00    -0.120 A  
HETATM    7 BR   UNL     1     -10.451   6.518  69.351  1.00  0.00    -0.292 Br 
HETATM    8  C   UNL     1      -7.181   7.890  67.221  1.00  0.00    -0.090 A  
HETATM    9  C   UNL     1      -7.538   9.179  66.839  1.00  0.00    -0.091 A  
HETATM   10 BR   UNL     1      -5.476   7.216  66.757  1.00  0.00    -0.023 Br 
HETATM   11  C   UNL     1      -8.802   9.713  67.175  1.00  0.00    -0.141 A  
ENDROOT
BRANCH  11  12
HETATM   12  C   UNL     1      -9.069  11.163  66.818  1.00  0.00    -0.166 C  
BRANCH  12  13
HETATM   13  N   UNL     1     -10.502  11.441  66.634  1.00  0.00    -0.234 NA 
HETATM   14  H   UNL     1     -11.043  11.155  67.449  1.00  0.00     0.000 HD 
BRANCH  13  15
HETATM   15  C   UNL     1     -10.747  12.859  66.295  1.00  0.00    -0.274 C  
HETATM   16  C   UNL     1      -9.930  13.257  65.050  1.00  0.00    -0.168 C  
HETATM   17  C   UNL     1     -10.425  12.592  63.761  1.00  0.00    -0.451 C  
HETATM   18  C   UNL     1     -11.931  12.761  63.550  1.00  0.00    -0.555 C  
HETATM   19  C   UNL     1     -12.738  12.393  64.793  1.00  0.00    -0.324 C  
HETATM   20  O   UNL     1     -12.213  14.123  63.222  1.00  0.00    -1.061 OA 
HETATM   21  C   UNL     1     -12.234  13.146  66.026  1.00  0.00    -0.478 C  
HETATM   22  H   UNL     1     -13.148  14.229  63.091  1.00  0.00     0.000 HD 
ENDBRANCH  13  15
ENDBRANCH  12  13
ENDBRANCH  11  12
TORSDOF 3
ENDMDL
MODEL      132
REMARK 921   NORMALIZED FREE ENERGY PREDICTED BY IDOCK:   -4.09 KCAL/MOL
REMARK 922        TOTAL FREE ENERGY PREDICTED BY IDOCK:   -5.47 KCAL/MOL
REMARK 923 INTER-LIGAND FREE ENERGY PREDICTED BY IDOCK:   -5.12 KCAL/MOL
REMARK 924 INTRA-LIGAND FREE ENERGY PREDICTED BY IDOCK:   -0.35 KCAL/MOL
REMARK 927      BINDING AFFINITY PREDICTED BY RF-SCORE:    0.00 PKD
ROOT
HETATM    1  N   UNL     1      -8.523   7.257  70.250  1.00  0.00    -0.136 NA 
HETATM    2  H2  UNL     1      -8.569   6.531  69.535  1.00  0.00     0.000 HD 
HETATM    3  C   UNL     1      -9.838   7.548  70.677  1.00  0.00    -0.179 A  
HETATM    4  H1  UNL     1      -7.921   8.008  69.910  1.00  0.00     0.000 HD 
HETATM    5  C   UNL     1     -10.673   6.508  71.147  1.00  0.00    -0.240 A  
HETATM    6  C   UNL     1     -12.009   6.733  71.484  1.00  0.00    -0.396 A  
HETATM    7 BR   UNL     1     -10.001   4.738  71.368  1.00  0.00    -0.263 Br 
HETATM    8  C   UNL     1     -12.541   8.004  71.316  1.00  0.00    -0.239 A  
HETATM    9  C   UNL     1     -11.764   9.032  70.792  1.00  0.00    -0.286 A  
HETATM   10 BR   UNL     1     -14.349   8.331  71.762  1.00  0.00    -0.594 Br 
HETATM   11  C   UNL     1     -10.413   8.817  70.444  1.00  0.00    -0.240 A  
ENDROOT
BRANCH  11  12
HETATM   12  C   UNL     1      -9.670   9.959  69.776  1.00  0.00    -0.236 C  
BRANCH  12  13
HETATM   13  N   UNL     1     -10.581  10.975  69.224  1.00  0.00    -0.295 NA 
HETATM   14  H   UNL     1     -11.069  11.478  69.965  1.00  0.00     0.000 HD 
BRANCH  13  15
HETATM   15  C   UNL     1      -9.880  11.905  68.314  1.00  0.00    -0.199 C  
HETATM   16  C   UNL     1     -10.324  11.660  66.858  1.00  0.00    -0.253 C  
HETATM   17  C   UNL     1     -11.775  12.074  66.588  1.00  0.00    -0.331 C  
HETATM   18  C   UNL     1     -12.080  13.498  67.059  1.00  0.00    -0.354 C  
HETATM   19  C   UNL     1     -11.615  13.748  68.492  1.00  0.00    -0.373 C  
HETATM   20  O   UNL     1     -11.417  14.432  66.206  1.00  0.00    -0.342 OA 
HETATM   21  C   UNL     1     -10.141  13.378  68.671  1.00  0.00    -0.162 C  
HETATM   22  H   UNL     1     -11.606  15.316  66.498  1.00  0.00     0.000 HD 
ENDBRANCH  13  15
ENDBRANCH  12  13
ENDBRANCH  11  12
TORSDOF 3
ENDMDL
MODEL      133
REMARK 921   NORMALIZED FREE ENERGY PREDICTED BY IDOCK:   -4.07 KCAL/MOL
REMARK 922        TOTAL FREE ENERGY PREDICTED BY IDOCK:   -5.45 KCAL/MOL
REMARK 923 INTER-LIGAND FREE ENERGY PREDICTED BY IDOCK:   -4.99 KCAL/MOL
REMARK 924 INTRA-LIGAND FREE ENERGY PREDICTED BY IDOCK:   -0.46 KCAL/MOL
REMARK 927      BINDING AFFINITY PREDICTED BY RF-SCORE:    0.00 PKD
ROOT
HETATM    1  N   UNL     1      -8.185  11.226  69.223  1.00  0.00    -0.378 NA 
HETATM    2  H2  UNL     1      -7.885  12.196  69.320  1.00  0.00     0.000 HD 
HETATM    3  C   UNL     1      -8.548  11.003  67.877  1.00  0.00    -0.133 A  
HETATM    4  H1  UNL     1      -8.848  11.016  69.970  1.00  0.00     0.000 HD 
HETATM    5  C   UNL     1      -7.631  11.293  66.842  1.00  0.00    -0.148 A  
HETATM    6  C   UNL     1      -7.982  11.182  65.494  1.00  0.00     0.186 A  
HETATM    7 BR   UNL     1      -5.846  11.831  67.238  1.00  0.00    -0.133 Br 
HETATM    8  C   UNL     1      -9.279  10.814  65.165  1.00  0.00    -0.209 A  
HETATM    9  C   UNL     1     -10.224  10.587  66.160  1.00  0.00    -0.299 A  
HETATM   10 BR   UNL     1      -9.778  10.662  63.348  1.00  0.00    -0.382 Br 
HETATM   11  C   UNL     1      -9.883  10.699  67.526  1.00  0.00    -0.194 A  
ENDROOT
BRANCH  11  12
HETATM   12  C   UNL     1     -10.998  10.545  68.542  1.00  0.00    -0.252 C  
BRANCH  12  13
HETATM   13  N   UNL     1     -11.276   9.135  68.862  1.00  0.00    -0.431 NA 
HETATM   14  H   UNL     1     -11.128   8.535  68.051  1.00  0.00     0.000 HD 
BRANCH  13  15
HETATM   15  C   UNL     1     -10.492   8.671  70.026  1.00  0.00    -0.223 C  
HETATM   16  C   UNL     1     -10.759   9.580  71.242  1.00  0.00    -0.386 C  
HETATM   17  C   UNL     1     -12.176   9.437  71.808  1.00  0.00    -0.465 C  
HETATM   18  C   UNL     1     -12.562   7.980  72.072  1.00  0.00    -0.312 C  
HETATM   19  C   UNL     1     -12.273   7.075  70.877  1.00  0.00    -0.388 C  
HETATM   20  O   UNL     1     -11.823   7.489  73.192  1.00  0.00    -0.577 OA 
HETATM   21  C   UNL     1     -10.822   7.219  70.410  1.00  0.00    -0.265 C  
HETATM   22  H   UNL     1     -12.063   6.585  73.357  1.00  0.00     0.000 HD 
ENDBRANCH  13  15
ENDBRANCH  12  13
ENDBRANCH  11  12
TORSDOF 3
ENDMDL
MODEL      134
REMARK 921   NORMALIZED FREE ENERGY PREDICTED BY IDOCK:   -4.07 KCAL/MOL
REMARK 922        TOTAL FREE ENERGY PREDICTED BY IDOCK:   -5.45 KCAL/MOL
REMARK 923 INTER-LIGAND FREE ENERGY PREDICTED BY IDOCK:   -4.78 KCAL/MOL
REMARK 924 INTRA-LIGAND FREE ENERGY PREDICTED BY IDOCK:   -0.67 KCAL/MOL
REMARK 927      BINDING AFFINITY PREDICTED BY RF-SCORE:    0.00 PKD
ROOT
HETATM    1  N   UNL     1      -7.314  10.298  66.623  1.00  0.00    -0.105 NA 
HETATM    2  H2  UNL     1      -6.568   9.723  66.231  1.00  0.00     0.000 HD 
HETATM    3  C   UNL     1      -8.230   9.451  67.284  1.00  0.00    -0.117 A  
HETATM    4  H1  UNL     1      -7.644  10.938  65.899  1.00  0.00     0.000 HD 
HETATM    5  C   UNL     1      -7.774   8.565  68.286  1.00  0.00    -0.102 A  
HETATM    6  C   UNL     1      -8.627   7.641  68.895  1.00  0.00    -0.129 A  
HETATM    7 BR   UNL     1      -5.963   8.604  68.878  1.00  0.00    -0.044 Br 
HETATM    8  C   UNL     1      -9.948   7.566  68.476  1.00  0.00    -0.168 A  
HETATM    9  C   UNL     1     -10.410   8.378  67.446  1.00  0.00    -0.355 A  
HETATM   10 BR   UNL     1     -11.119   6.320  69.283  1.00  0.00    -0.444 Br 
HETATM   11  C   UNL     1      -9.558   9.314  66.820  1.00  0.00    -0.240 A  
ENDROOT
BRANCH  11  12
HETATM   12  C   UNL     1     -10.109  10.080  65.632  1.00  0.00    -0.251 C  
BRANCH  12  13
HETATM   13  N   UNL     1     -10.226  11.522  65.899  1.00  0.00    -0.235 NA 
HETATM   14  H   UNL     1     -10.096  12.069  65.048  1.00  0.00     0.000 HD 
BRANCH  13  15
HETATM   15  C   UNL     1     -11.504  11.857  66.563  1.00  0.00    -0.314 C  
HETATM   16  C   UNL     1     -11.264  12.153  68.057  1.00  0.00    -0.319 C  
HETATM   17  C   UNL     1     -10.495  13.455  68.302  1.00  0.00    -0.256 C  
HETATM   18  C   UNL     1     -11.102  14.648  67.560  1.00  0.00    -0.313 C  
HETATM   19  C   UNL     1     -11.364  14.345  66.086  1.00  0.00    -0.350 C  
HETATM   20  O   UNL     1     -12.344  15.004  68.170  1.00  0.00    -0.544 OA 
HETATM   21  C   UNL     1     -12.195  13.071  65.921  1.00  0.00    -0.493 C  
HETATM   22  H   UNL     1     -12.721  15.744  67.710  1.00  0.00     0.000 HD 
ENDBRANCH  13  15
ENDBRANCH  12  13
ENDBRANCH  11  12
TORSDOF 3
ENDMDL
MODEL      135
REMARK 921   NORMALIZED FREE ENERGY PREDICTED BY IDOCK:   -4.05 KCAL/MOL
REMARK 922        TOTAL FREE ENERGY PREDICTED BY IDOCK:   -5.43 KCAL/MOL
REMARK 923 INTER-LIGAND FREE ENERGY PREDICTED BY IDOCK:   -5.14 KCAL/MOL
REMARK 924 INTRA-LIGAND FREE ENERGY PREDICTED BY IDOCK:   -0.28 KCAL/MOL
REMARK 927      BINDING AFFINITY PREDICTED BY RF-SCORE:    0.00 PKD
ROOT
HETATM    1  N   UNL     1      -6.786  14.603  67.282  1.00  0.00    -0.357 NA 
HETATM    2  H2  UNL     1      -6.284  13.963  66.666  1.00  0.00     0.000 HD 
HETATM    3  C   UNL     1      -8.164  14.517  66.988  1.00  0.00    -0.135 A  
HETATM    4  H1  UNL     1      -6.316  15.508  67.261  1.00  0.00     0.000 HD 
HETATM    5  C   UNL     1      -8.815  13.263  67.017  1.00  0.00    -0.212 A  
HETATM    6  C   UNL     1     -10.151  13.118  66.637  1.00  0.00    -0.264 A  
HETATM    7 BR   UNL     1      -7.900  11.699  67.607  1.00  0.00    -0.144 Br 
HETATM    8  C   UNL     1     -10.846  14.230  66.180  1.00  0.00    -0.310 A  
HETATM    9  C   UNL     1     -10.214  15.464  66.076  1.00  0.00    -0.343 A  
HETATM   10 BR   UNL     1     -12.654  14.057  65.655  1.00  0.00    -0.490 Br 
HETATM   11  C   UNL     1      -8.863  15.624  66.454  1.00  0.00    -0.365 A  
ENDROOT
BRANCH  11  12
HETATM   12  C   UNL     1      -8.218  16.974  66.204  1.00  0.00    -0.249 C  
BRANCH  12  13
HETATM   13  N   UNL     1      -7.143  17.271  67.164  1.00  0.00    -0.162 NA 
HETATM   14  H   UNL     1      -6.491  17.960  66.790  1.00  0.00     0.000 HD 
BRANCH  13  15
HETATM   15  C   UNL     1      -7.679  17.694  68.475  1.00  0.00    -0.281 C  
HETATM   16  C   UNL     1      -6.592  17.564  69.560  1.00  0.00    -0.160 C  
HETATM   17  C   UNL     1      -5.453  18.578  69.404  1.00  0.00    -0.214 C  
HETATM   18  C   UNL     1      -5.959  20.014  69.254  1.00  0.00    -0.293 C  
HETATM   19  C   UNL     1      -7.056  20.137  68.198  1.00  0.00    -0.310 C  
HETATM   20  O   UNL     1      -6.490  20.463  70.502  1.00  0.00    -0.458 OA 
HETATM   21  C   UNL     1      -8.190  19.144  68.457  1.00  0.00    -0.399 C  
HETATM   22  H   UNL     1      -6.804  21.355  70.409  1.00  0.00     0.000 HD 
ENDBRANCH  13  15
ENDBRANCH  12  13
ENDBRANCH  11  12
TORSDOF 3
ENDMDL
MODEL      136
REMARK 921   NORMALIZED FREE ENERGY PREDICTED BY IDOCK:   -4.02 KCAL/MOL
REMARK 922        TOTAL FREE ENERGY PREDICTED BY IDOCK:   -5.39 KCAL/MOL
REMARK 923 INTER-LIGAND FREE ENERGY PREDICTED BY IDOCK:   -4.67 KCAL/MOL
REMARK 924 INTRA-LIGAND FREE ENERGY PREDICTED BY IDOCK:   -0.73 KCAL/MOL
REMARK 927      BINDING AFFINITY PREDICTED BY RF-SCORE:    0.00 PKD
ROOT
HETATM    1  N   UNL     1     -11.411   6.942  70.854  1.00  0.00    -0.303 NA 
HETATM    2  H2  UNL     1     -12.025   6.609  70.111  1.00  0.00     0.000 HD 
HETATM    3  C   UNL     1     -11.819   8.243  71.221  1.00  0.00    -0.288 A  
HETATM    4  H1  UNL     1     -10.445   6.771  70.576  1.00  0.00     0.000 HD 
HETATM    5  C   UNL     1     -13.158   8.480  71.607  1.00  0.00    -0.341 A  
HETATM    6  C   UNL     1     -13.628   9.766  71.882  1.00  0.00    -0.421 A  
HETATM    7 BR   UNL     1     -14.391   7.040  71.798  1.00  0.00    -0.371 Br 
HETATM    8  C   UNL     1     -12.766  10.844  71.733  1.00  0.00    -0.329 A  
HETATM    9  C   UNL     1     -11.462  10.651  71.290  1.00  0.00     0.189 A  
HETATM   10 BR   UNL     1     -13.383  12.595  72.094  1.00  0.00    -0.439 Br 
HETATM   11  C   UNL     1     -10.975   9.356  71.006  1.00  0.00    -0.409 A  
ENDROOT
BRANCH  11  12
HETATM   12  C   UNL     1      -9.579   9.244  70.422  1.00  0.00    -0.244 C  
BRANCH  12  13
HETATM   13  N   UNL     1      -9.593   8.815  69.014  1.00  0.00    -0.160 NA 
HETATM   14  H   UNL     1     -10.518   8.927  68.601  1.00  0.00     0.000 HD 
BRANCH  13  15
HETATM   15  C   UNL     1      -8.560   9.511  68.218  1.00  0.00    -0.120 C  
HETATM   16  C   UNL     1      -8.760   9.220  66.718  1.00  0.00    -0.138 C  
HETATM   17  C   UNL     1     -10.020   9.870  66.136  1.00  0.00    -0.331 C  
HETATM   18  C   UNL     1     -10.117  11.363  66.459  1.00  0.00    -0.215 C  
HETATM   19  C   UNL     1      -9.891  11.653  67.941  1.00  0.00    -0.189 C  
HETATM   20  O   UNL     1      -9.131  12.075  65.710  1.00  0.00    -0.411 OA 
HETATM   21  C   UNL     1      -8.582  11.033  68.435  1.00  0.00    -0.149 C  
HETATM   22  H   UNL     1      -9.191  13.001  65.910  1.00  0.00     0.000 HD 
ENDBRANCH  13  15
ENDBRANCH  12  13
ENDBRANCH  11  12
TORSDOF 3
ENDMDL
MODEL      137
REMARK 921   NORMALIZED FREE ENERGY PREDICTED BY IDOCK:   -4.02 KCAL/MOL
REMARK 922        TOTAL FREE ENERGY PREDICTED BY IDOCK:   -5.39 KCAL/MOL
REMARK 923 INTER-LIGAND FREE ENERGY PREDICTED BY IDOCK:   -5.00 KCAL/MOL
REMARK 924 INTRA-LIGAND FREE ENERGY PREDICTED BY IDOCK:   -0.39 KCAL/MOL
REMARK 927      BINDING AFFINITY PREDICTED BY RF-SCORE:    0.00 PKD
ROOT
HETATM    1  N   UNL     1     -10.105   9.361  65.736  1.00  0.00    -0.353 NA 
HETATM    2  H2  UNL     1     -10.805   8.761  65.300  1.00  0.00     0.000 HD 
HETATM    3  C   UNL     1     -10.302   9.335  67.134  1.00  0.00    -0.260 A  
HETATM    4  H1  UNL     1     -10.089  10.253  65.241  1.00  0.00     0.000 HD 
HETATM    5  C   UNL     1     -10.324   8.099  67.820  1.00  0.00    -0.233 A  
HETATM    6  C   UNL     1     -10.615   8.019  69.184  1.00  0.00    -0.181 A  
HETATM    7 BR   UNL     1      -9.930   6.469  66.914  1.00  0.00    -0.238 Br 
HETATM    8  C   UNL     1     -10.929   9.182  69.874  1.00  0.00    -0.204 A  
HETATM    9  C   UNL     1     -10.982  10.404  69.213  1.00  0.00    -0.287 A  
HETATM   10 BR   UNL     1     -11.330   9.097  71.720  1.00  0.00    -0.418 Br 
HETATM   11  C   UNL     1     -10.693  10.498  67.834  1.00  0.00    -0.305 A  
ENDROOT
BRANCH  11  12
HETATM   12  C   UNL     1     -10.883  11.848  67.168  1.00  0.00    -0.255 C  
BRANCH  12  13
HETATM   13  N   UNL     1     -10.055  12.899  67.783  1.00  0.00    -0.223 NA 
HETATM   14  H   UNL     1      -9.070  12.637  67.793  1.00  0.00     0.000 HD 
BRANCH  13  15
HETATM   15  C   UNL     1     -10.257  14.209  67.130  1.00  0.00    -0.258 C  
HETATM   16  C   UNL     1     -11.634  14.787  67.512  1.00  0.00    -0.379 C  
HETATM   17  C   UNL     1     -11.728  15.211  68.982  1.00  0.00    -0.358 C  
HETATM   18  C   UNL     1     -10.574  16.121  69.408  1.00  0.00    -0.300 C  
HETATM   19  C   UNL     1      -9.212  15.561  69.005  1.00  0.00    -0.238 C  
HETATM   20  O   UNL     1     -10.729  17.402  68.796  1.00  0.00    -0.309 OA 
HETATM   21  C   UNL     1      -9.169  15.226  67.512  1.00  0.00    -0.202 C  
HETATM   22  H   UNL     1     -10.013  17.967  69.060  1.00  0.00     0.000 HD 
ENDBRANCH  13  15
ENDBRANCH  12  13
ENDBRANCH  11  12
TORSDOF 3
ENDMDL
MODEL      138
REMARK 921   NORMALIZED FREE ENERGY PREDICTED BY IDOCK:   -4.01 KCAL/MOL
REMARK 922        TOTAL FREE ENERGY PREDICTED BY IDOCK:   -5.37 KCAL/MOL
REMARK 923 INTER-LIGAND FREE ENERGY PREDICTED BY IDOCK:   -4.81 KCAL/MOL
REMARK 924 INTRA-LIGAND FREE ENERGY PREDICTED BY IDOCK:   -0.57 KCAL/MOL
REMARK 927      BINDING AFFINITY PREDICTED BY RF-SCORE:    0.00 PKD
ROOT
HETATM    1  N   UNL     1     -11.032   9.165  69.711  1.00  0.00    -0.334 NA 
HETATM    2  H2  UNL     1     -10.638   9.164  70.651  1.00  0.00     0.000 HD 
HETATM    3  C   UNL     1     -10.732   7.928  69.099  1.00  0.00    -0.117 A  
HETATM    4  H1  UNL     1     -10.770  10.037  69.251  1.00  0.00     0.000 HD 
HETATM    5  C   UNL     1     -11.094   6.719  69.737  1.00  0.00    -0.316 A  
HETATM    6  C   UNL     1     -10.729   5.475  69.218  1.00  0.00    -0.288 A  
HETATM    7 BR   UNL     1     -12.130   6.729  71.337  1.00  0.00    -0.412 Br 
HETATM    8  C   UNL     1      -9.956   5.427  68.066  1.00  0.00    -0.154 A  
HETATM    9  C   UNL     1      -9.527   6.599  67.453  1.00  0.00    -0.143 A  
HETATM   10 BR   UNL     1      -9.446   3.754  67.347  1.00  0.00    -0.216 Br 
HETATM   11  C   UNL     1      -9.886   7.863  67.969  1.00  0.00    -0.195 A  
ENDROOT
BRANCH  11  12
HETATM   12  C   UNL     1      -9.284   9.089  67.307  1.00  0.00    -0.134 C  
BRANCH  12  13
HETATM   13  N   UNL     1     -10.301  10.091  66.952  1.00  0.00    -0.235 NA 
HETATM   14  H   UNL     1     -11.048  10.124  67.645  1.00  0.00     0.000 HD 
BRANCH  13  15
HETATM   15  C   UNL     1      -9.705  11.428  66.740  1.00  0.00    -0.198 C  
HETATM   16  C   UNL     1     -10.060  11.951  65.334  1.00  0.00    -0.285 C  
HETATM   17  C   UNL     1     -11.543  12.298  65.171  1.00  0.00    -0.402 C  
HETATM   18  C   UNL     1     -12.060  13.215  66.283  1.00  0.00    -0.397 C  
HETATM   19  C   UNL     1     -11.685  12.710  67.675  1.00  0.00    -0.420 C  
HETATM   20  O   UNL     1     -11.504  14.520  66.118  1.00  0.00    -0.347 OA 
HETATM   21  C   UNL     1     -10.181  12.451  67.785  1.00  0.00    -0.212 C  
HETATM   22  H   UNL     1     -11.825  15.090  66.807  1.00  0.00     0.000 HD 
ENDBRANCH  13  15
ENDBRANCH  12  13
ENDBRANCH  11  12
TORSDOF 3
ENDMDL
MODEL      139
REMARK 921   NORMALIZED FREE ENERGY PREDICTED BY IDOCK:   -3.99 KCAL/MOL
REMARK 922        TOTAL FREE ENERGY PREDICTED BY IDOCK:   -5.36 KCAL/MOL
REMARK 923 INTER-LIGAND FREE ENERGY PREDICTED BY IDOCK:   -4.94 KCAL/MOL
REMARK 924 INTRA-LIGAND FREE ENERGY PREDICTED BY IDOCK:   -0.42 KCAL/MOL
REMARK 927      BINDING AFFINITY PREDICTED BY RF-SCORE:    0.00 PKD
ROOT
HETATM    1  N   UNL     1      -8.343   6.900  70.934  1.00  0.00    -0.129 NA 
HETATM    2  H2  UNL     1      -8.517   6.129  70.290  1.00  0.00     0.000 HD 
HETATM    3  C   UNL     1      -9.585   7.445  71.326  1.00  0.00    -0.161 A  
HETATM    4  H1  UNL     1      -7.628   7.504  70.528  1.00  0.00     0.000 HD 
HETATM    5  C   UNL     1     -10.577   6.608  71.887  1.00  0.00    -0.211 A  
HETATM    6  C   UNL     1     -11.853   7.083  72.196  1.00  0.00    -0.314 A  
HETATM    7 BR   UNL     1     -10.208   4.779  72.276  1.00  0.00    -0.256 Br 
HETATM    8  C   UNL     1     -12.167   8.404  71.907  1.00  0.00    -0.343 A  
HETATM    9  C   UNL     1     -11.236   9.234  71.293  1.00  0.00    -0.425 A  
HETATM   10 BR   UNL     1     -13.890   9.069  72.313  1.00  0.00    -0.534 Br 
HETATM   11  C   UNL     1      -9.943   8.765  70.973  1.00  0.00    -0.297 A  
ENDROOT
BRANCH  11  12
HETATM   12  C   UNL     1      -9.028   9.700  70.204  1.00  0.00    -0.236 C  
BRANCH  12  13
HETATM   13  N   UNL     1      -9.772  10.728  69.459  1.00  0.00    -0.435 NA 
HETATM   14  H   UNL     1     -10.240  11.378  70.090  1.00  0.00     0.000 HD 
BRANCH  13  15
HETATM   15  C   UNL     1      -8.908  11.441  68.495  1.00  0.00    -0.151 C  
HETATM   16  C   UNL     1      -8.230  10.436  67.543  1.00  0.00    -0.114 C  
HETATM   17  C   UNL     1      -9.208   9.766  66.571  1.00  0.00    -0.194 C  
HETATM   18  C   UNL     1     -10.084  10.775  65.826  1.00  0.00    -0.261 C  
HETATM   19  C   UNL     1     -10.733  11.788  66.767  1.00  0.00    -0.289 C  
HETATM   20  O   UNL     1      -9.285  11.491  64.883  1.00  0.00    -0.391 OA 
HETATM   21  C   UNL     1      -9.690  12.467  67.658  1.00  0.00    -0.195 C  
HETATM   22  H   UNL     1      -9.828  12.118  64.420  1.00  0.00     0.000 HD 
ENDBRANCH  13  15
ENDBRANCH  12  13
ENDBRANCH  11  12
TORSDOF 3
ENDMDL
MODEL      140
REMARK 921   NORMALIZED FREE ENERGY PREDICTED BY IDOCK:   -3.98 KCAL/MOL
REMARK 922        TOTAL FREE ENERGY PREDICTED BY IDOCK:   -5.34 KCAL/MOL
REMARK 923 INTER-LIGAND FREE ENERGY PREDICTED BY IDOCK:   -5.24 KCAL/MOL
REMARK 924 INTRA-LIGAND FREE ENERGY PREDICTED BY IDOCK:   -0.10 KCAL/MOL
REMARK 927      BINDING AFFINITY PREDICTED BY RF-SCORE:    0.00 PKD
ROOT
HETATM    1  N   UNL     1     -10.923   7.111  68.331  1.00  0.00    -0.447 NA 
HETATM    2  H2  UNL     1     -10.511   6.302  68.795  1.00  0.00     0.000 HD 
HETATM    3  C   UNL     1     -10.003   7.593  67.373  1.00  0.00    -0.192 A  
HETATM    4  H1  UNL     1     -11.291   7.741  69.044  1.00  0.00     0.000 HD 
HETATM    5  C   UNL     1      -9.493   6.720  66.385  1.00  0.00    -0.119 A  
HETATM    6  C   UNL     1      -8.508   7.127  65.481  1.00  0.00    -0.114 A  
HETATM    7 BR   UNL     1     -10.146   4.938  66.220  1.00  0.00    -0.313 Br 
HETATM    8  C   UNL     1      -7.991   8.411  65.583  1.00  0.00    -0.115 A  
HETATM    9  C   UNL     1      -8.424   9.271  66.586  1.00  0.00    -0.130 A  
HETATM   10 BR   UNL     1      -6.654   8.982  64.373  1.00  0.00    -0.079 Br 
HETATM   11  C   UNL     1      -9.416   8.871  67.508  1.00  0.00    -0.172 A  
ENDROOT
BRANCH  11  12
HETATM   12  C   UNL     1      -9.751   9.827  68.638  1.00  0.00    -0.155 C  
BRANCH  12  13
HETATM   13  N   UNL     1     -11.016   9.483  69.308  1.00  0.00    -0.373 NA 
HETATM   14  H   UNL     1     -11.204   8.482  69.255  1.00  0.00     0.000 HD 
BRANCH  13  15
HETATM   15  C   UNL     1     -11.045   9.964  70.706  1.00  0.00    -0.347 C  
HETATM   16  C   UNL     1     -12.398  10.638  71.007  1.00  0.00    -0.507 C  
HETATM   17  C   UNL     1     -13.572   9.654  71.044  1.00  0.00    -0.161 C  
HETATM   18  C   UNL     1     -13.305   8.451  71.951  1.00  0.00    -0.357 C  
HETATM   19  C   UNL     1     -11.952   7.800  71.671  1.00  0.00    -0.330 C  
HETATM   20  O   UNL     1     -13.322   8.873  73.316  1.00  0.00    -0.912 OA 
HETATM   21  C   UNL     1     -10.820   8.828  71.718  1.00  0.00    -0.416 C  
HETATM   22  H   UNL     1     -13.156   8.126  73.879  1.00  0.00     0.000 HD 
ENDBRANCH  13  15
ENDBRANCH  12  13
ENDBRANCH  11  12
TORSDOF 3
ENDMDL
MODEL      141
REMARK 921   NORMALIZED FREE ENERGY PREDICTED BY IDOCK:   -3.98 KCAL/MOL
REMARK 922        TOTAL FREE ENERGY PREDICTED BY IDOCK:   -5.34 KCAL/MOL
REMARK 923 INTER-LIGAND FREE ENERGY PREDICTED BY IDOCK:   -4.97 KCAL/MOL
REMARK 924 INTRA-LIGAND FREE ENERGY PREDICTED BY IDOCK:   -0.37 KCAL/MOL
REMARK 927      BINDING AFFINITY PREDICTED BY RF-SCORE:    0.00 PKD
ROOT
HETATM    1  N   UNL     1     -11.229  16.570  67.811  1.00  0.00    -0.176 NA 
HETATM    2  H2  UNL     1     -11.183  17.129  66.960  1.00  0.00     0.000 HD 
HETATM    3  C   UNL     1      -9.915  16.371  68.287  1.00  0.00    -0.243 A  
HETATM    4  H1  UNL     1     -11.834  15.767  67.638  1.00  0.00     0.000 HD 
HETATM    5  C   UNL     1      -9.076  17.483  68.527  1.00  0.00    -0.277 A  
HETATM    6  C   UNL     1      -7.739  17.330  68.902  1.00  0.00    -0.221 A  
HETATM    7 BR   UNL     1      -9.741  19.263  68.373  1.00  0.00    -0.510 Br 
HETATM    8  C   UNL     1      -7.211  16.050  69.004  1.00  0.00    -0.182 A  
HETATM    9  C   UNL     1      -7.992  14.938  68.709  1.00  0.00    -0.156 A  
HETATM   10 BR   UNL     1      -5.403  15.819  69.505  1.00  0.00    -0.111 Br 
HETATM   11  C   UNL     1      -9.343  15.079  68.326  1.00  0.00    -0.192 A  
ENDROOT
BRANCH  11  12
HETATM   12  C   UNL     1     -10.091  13.825  67.914  1.00  0.00    -0.246 C  
BRANCH  12  13
HETATM   13  N   UNL     1      -9.575  12.619  68.582  1.00  0.00    -0.408 NA 
HETATM   14  H   UNL     1      -9.643  12.698  69.596  1.00  0.00     0.000 HD 
BRANCH  13  15
HETATM   15  C   UNL     1     -10.239  11.392  68.092  1.00  0.00    -0.187 C  
HETATM   16  C   UNL     1      -9.526  10.144  68.648  1.00  0.00    -0.164 C  
HETATM   17  C   UNL     1      -9.715   9.958  70.157  1.00  0.00    -0.255 C  
HETATM   18  C   UNL     1     -11.184  10.029  70.581  1.00  0.00    -0.350 C  
HETATM   19  C   UNL     1     -11.897  11.252  70.007  1.00  0.00    -0.448 C  
HETATM   20  O   UNL     1     -11.867   8.860  70.124  1.00  0.00    -0.463 OA 
HETATM   21  C   UNL     1     -11.723  11.334  68.489  1.00  0.00    -0.378 C  
HETATM   22  H   UNL     1     -12.778   8.903  70.387  1.00  0.00     0.000 HD 
ENDBRANCH  13  15
ENDBRANCH  12  13
ENDBRANCH  11  12
TORSDOF 3
ENDMDL
MODEL      142
REMARK 921   NORMALIZED FREE ENERGY PREDICTED BY IDOCK:   -3.95 KCAL/MOL
REMARK 922        TOTAL FREE ENERGY PREDICTED BY IDOCK:   -5.31 KCAL/MOL
REMARK 923 INTER-LIGAND FREE ENERGY PREDICTED BY IDOCK:   -4.75 KCAL/MOL
REMARK 924 INTRA-LIGAND FREE ENERGY PREDICTED BY IDOCK:   -0.56 KCAL/MOL
REMARK 927      BINDING AFFINITY PREDICTED BY RF-SCORE:    0.00 PKD
ROOT
HETATM    1  N   UNL     1      -9.709   8.919  65.721  1.00  0.00    -0.459 NA 
HETATM    2  H2  UNL     1      -8.729   9.069  65.484  1.00  0.00     0.000 HD 
HETATM    3  C   UNL     1     -10.277  10.162  66.080  1.00  0.00    -0.215 A  
HETATM    4  H1  UNL     1      -9.770   8.128  66.363  1.00  0.00     0.000 HD 
HETATM    5  C   UNL     1     -10.193  11.258  65.192  1.00  0.00    -0.289 A  
HETATM    6  C   UNL     1     -10.652  12.529  65.546  1.00  0.00    -0.304 A  
HETATM    7 BR   UNL     1      -9.466  11.048  63.443  1.00  0.00    -0.362 Br 
HETATM    8  C   UNL     1     -11.168  12.728  66.819  1.00  0.00    -0.295 A  
HETATM    9  C   UNL     1     -11.202  11.685  67.739  1.00  0.00    -0.333 A  
HETATM   10 BR   UNL     1     -11.791  14.441  67.323  1.00  0.00    -0.408 Br 
HETATM   11  C   UNL     1     -10.739  10.396  67.395  1.00  0.00    -0.338 A  
ENDROOT
BRANCH  11  12
HETATM   12  C   UNL     1     -10.708   9.346  68.489  1.00  0.00    -0.161 C  
BRANCH  12  13
HETATM   13  N   UNL     1      -9.343   9.074  68.968  1.00  0.00    -0.140 NA 
HETATM   14  H   UNL     1      -8.644   9.396  68.299  1.00  0.00     0.000 HD 
BRANCH  13  15
HETATM   15  C   UNL     1      -9.107   9.648  70.310  1.00  0.00    -0.225 C  
HETATM   16  C   UNL     1     -10.293   9.327  71.241  1.00  0.00    -0.397 C  
HETATM   17  C   UNL     1     -10.394   7.842  71.606  1.00  0.00    -0.250 C  
HETATM   18  C   UNL     1      -9.073   7.271  72.126  1.00  0.00    -0.132 C  
HETATM   19  C   UNL     1      -7.894   7.613  71.217  1.00  0.00    -0.090 C  
HETATM   20  O   UNL     1      -8.804   7.804  73.424  1.00  0.00    -0.188 OA 
HETATM   21  C   UNL     1      -7.815   9.118  70.952  1.00  0.00    -0.163 C  
HETATM   22  H   UNL     1      -7.984   7.449  73.747  1.00  0.00     0.000 HD 
ENDBRANCH  13  15
ENDBRANCH  12  13
ENDBRANCH  11  12
TORSDOF 3
ENDMDL
MODEL      143
REMARK 921   NORMALIZED FREE ENERGY PREDICTED BY IDOCK:   -3.93 KCAL/MOL
REMARK 922        TOTAL FREE ENERGY PREDICTED BY IDOCK:   -5.28 KCAL/MOL
REMARK 923 INTER-LIGAND FREE ENERGY PREDICTED BY IDOCK:   -4.81 KCAL/MOL
REMARK 924 INTRA-LIGAND FREE ENERGY PREDICTED BY IDOCK:   -0.48 KCAL/MOL
REMARK 927      BINDING AFFINITY PREDICTED BY RF-SCORE:    0.00 PKD
ROOT
HETATM    1  N   UNL     1     -11.675  12.701  70.117  1.00  0.00    -0.538 NA 
HETATM    2  H2  UNL     1     -12.529  13.058  70.546  1.00  0.00     0.000 HD 
HETATM    3  C   UNL     1     -11.462  13.390  68.903  1.00  0.00    -0.304 A  
HETATM    4  H1  UNL     1     -11.710  11.682  70.124  1.00  0.00     0.000 HD 
HETATM    5  C   UNL     1     -11.413  14.803  68.894  1.00  0.00    -0.297 A  
HETATM    6  C   UNL     1     -11.304  15.528  67.704  1.00  0.00    -0.260 A  
HETATM    7 BR   UNL     1     -11.467  15.796  70.520  1.00  0.00    -0.440 Br 
HETATM    8  C   UNL     1     -11.284  14.842  66.498  1.00  0.00    -0.342 A  
HETATM    9  C   UNL     1     -11.399  13.456  66.470  1.00  0.00    -0.346 A  
HETATM   10 BR   UNL     1     -11.143  15.802  64.875  1.00  0.00    -0.342 Br 
HETATM   11  C   UNL     1     -11.512  12.712  67.665  1.00  0.00    -0.390 A  
ENDROOT
BRANCH  11  12
HETATM   12  C   UNL     1     -11.746  11.218  67.542  1.00  0.00    -0.082 C  
BRANCH  12  13
HETATM   13  N   UNL     1     -10.524  10.436  67.790  1.00  0.00    -0.209 NA 
HETATM   14  H   UNL     1     -10.570   9.949  68.684  1.00  0.00     0.000 HD 
BRANCH  13  15
HETATM   15  C   UNL     1     -10.235   9.501  66.682  1.00  0.00    -0.240 C  
HETATM   16  C   UNL     1      -8.739   9.556  66.316  1.00  0.00    -0.158 C  
HETATM   17  C   UNL     1      -7.827   8.968  67.398  1.00  0.00    -0.100 C  
HETATM   18  C   UNL     1      -8.267   7.573  67.846  1.00  0.00    -0.123 C  
HETATM   19  C   UNL     1      -9.756   7.512  68.182  1.00  0.00    -0.167 C  
HETATM   20  O   UNL     1      -8.008   6.635  66.801  1.00  0.00    -0.105 OA 
HETATM   21  C   UNL     1     -10.607   8.050  67.031  1.00  0.00    -0.364 C  
HETATM   22  H   UNL     1      -8.281   5.768  67.078  1.00  0.00     0.000 HD 
ENDBRANCH  13  15
ENDBRANCH  12  13
ENDBRANCH  11  12
TORSDOF 3
ENDMDL
MODEL      144
REMARK 921   NORMALIZED FREE ENERGY PREDICTED BY IDOCK:   -3.93 KCAL/MOL
REMARK 922        TOTAL FREE ENERGY PREDICTED BY IDOCK:   -5.28 KCAL/MOL
REMARK 923 INTER-LIGAND FREE ENERGY PREDICTED BY IDOCK:   -4.91 KCAL/MOL
REMARK 924 INTRA-LIGAND FREE ENERGY PREDICTED BY IDOCK:   -0.37 KCAL/MOL
REMARK 927      BINDING AFFINITY PREDICTED BY RF-SCORE:    0.00 PKD
ROOT
HETATM    1  N   UNL     1     -10.293  10.753  63.507  1.00  0.00    -0.521 NA 
HETATM    2  H2  UNL     1      -9.804  11.552  63.102  1.00  0.00     0.000 HD 
HETATM    3  C   UNL     1     -10.712  11.098  64.810  1.00  0.00    -0.264 A  
HETATM    4  H1  UNL     1      -9.726   9.918  63.359  1.00  0.00     0.000 HD 
HETATM    5  C   UNL     1     -11.498  12.255  65.016  1.00  0.00    -0.336 A  
HETATM    6  C   UNL     1     -11.850  12.688  66.296  1.00  0.00    -0.471 A  
HETATM    7 BR   UNL     1     -12.142  13.275  63.540  1.00  0.00    -0.453 Br 
HETATM    8  C   UNL     1     -11.381  11.985  67.397  1.00  0.00    -0.327 A  
HETATM    9  C   UNL     1     -10.551  10.882  67.230  1.00  0.00    -0.296 A  
HETATM   10 BR   UNL     1     -11.841  12.555  69.140  1.00  0.00    -0.322 Br 
HETATM   11  C   UNL     1     -10.185  10.435  65.942  1.00  0.00    -0.302 A  
ENDROOT
BRANCH  11  12
HETATM   12  C   UNL     1      -9.187   9.296  65.851  1.00  0.00    -0.219 C  
BRANCH  12  13
HETATM   13  N   UNL     1      -9.793   7.992  66.165  1.00  0.00    -0.467 NA 
HETATM   14  H   UNL     1     -10.030   7.479  65.316  1.00  0.00     0.000 HD 
BRANCH  13  15
HETATM   15  C   UNL     1      -8.934   7.187  67.058  1.00  0.00    -0.129 C  
HETATM   16  C   UNL     1      -9.717   5.974  67.597  1.00  0.00    -0.120 C  
HETATM   17  C   UNL     1     -10.030   4.927  66.523  1.00  0.00    -0.256 C  
HETATM   18  C   UNL     1      -8.792   4.514  65.723  1.00  0.00    -0.124 C  
HETATM   19  C   UNL     1      -8.002   5.717  65.212  1.00  0.00    -0.114 C  
HETATM   20  O   UNL     1      -7.930   3.733  66.552  1.00  0.00    -0.088 OA 
HETATM   21  C   UNL     1      -7.665   6.684  66.350  1.00  0.00    -0.102 C  
HETATM   22  H   UNL     1      -7.162   3.477  66.057  1.00  0.00     0.000 HD 
ENDBRANCH  13  15
ENDBRANCH  12  13
ENDBRANCH  11  12
TORSDOF 3
ENDMDL
MODEL      145
REMARK 921   NORMALIZED FREE ENERGY PREDICTED BY IDOCK:   -3.92 KCAL/MOL
REMARK 922        TOTAL FREE ENERGY PREDICTED BY IDOCK:   -5.27 KCAL/MOL
REMARK 923 INTER-LIGAND FREE ENERGY PREDICTED BY IDOCK:   -4.72 KCAL/MOL
REMARK 924 INTRA-LIGAND FREE ENERGY PREDICTED BY IDOCK:   -0.55 KCAL/MOL
REMARK 927      BINDING AFFINITY PREDICTED BY RF-SCORE:    0.00 PKD
ROOT
HETATM    1  N   UNL     1     -10.262   9.386  68.784  1.00  0.00    -0.197 NA 
HETATM    2  H2  UNL     1     -11.158   9.034  69.121  1.00  0.00     0.000 HD 
HETATM    3  C   UNL     1     -10.509  10.327  67.760  1.00  0.00    -0.226 A  
HETATM    4  H1  UNL     1      -9.648   8.591  68.607  1.00  0.00     0.000 HD 
HETATM    5  C   UNL     1     -11.361  11.429  68.005  1.00  0.00    -0.303 A  
HETATM    6  C   UNL     1     -11.712  12.327  66.995  1.00  0.00    -0.399 A  
HETATM    7 BR   UNL     1     -12.057  11.758  69.749  1.00  0.00    -0.307 Br 
HETATM    8  C   UNL     1     -11.242  12.108  65.707  1.00  0.00    -0.339 A  
HETATM    9  C   UNL     1     -10.458  10.996  65.420  1.00  0.00    -0.306 A  
HETATM   10 BR   UNL     1     -11.708  13.309  64.323  1.00  0.00    -0.483 Br 
HETATM   11  C   UNL     1     -10.098  10.079  66.431  1.00  0.00    -0.307 A  
ENDROOT
BRANCH  11  12
HETATM   12  C   UNL     1      -9.336   8.836  66.012  1.00  0.00    -0.232 C  
BRANCH  12  13
HETATM   13  N   UNL     1     -10.145   7.612  66.137  1.00  0.00    -0.413 NA 
HETATM   14  H   UNL     1     -10.476   7.292  65.228  1.00  0.00     0.000 HD 
BRANCH  13  15
HETATM   15  C   UNL     1      -9.416   6.543  66.852  1.00  0.00    -0.152 C  
HETATM   16  C   UNL     1     -10.296   5.282  66.961  1.00  0.00    -0.286 C  
HETATM   17  C   UNL     1     -10.530   4.586  65.615  1.00  0.00    -0.261 C  
HETATM   18  C   UNL     1      -9.229   4.325  64.853  1.00  0.00    -0.156 C  
HETATM   19  C   UNL     1      -8.345   5.568  64.769  1.00  0.00    -0.136 C  
HETATM   20  O   UNL     1      -8.490   3.296  65.512  1.00  0.00    -0.101 OA 
HETATM   21  C   UNL     1      -8.098   6.168  66.154  1.00  0.00    -0.115 C  
HETATM   22  H   UNL     1      -7.682   3.134  65.039  1.00  0.00     0.000 HD 
ENDBRANCH  13  15
ENDBRANCH  12  13
ENDBRANCH  11  12
TORSDOF 3
ENDMDL
MODEL      146
REMARK 921   NORMALIZED FREE ENERGY PREDICTED BY IDOCK:   -3.90 KCAL/MOL
REMARK 922        TOTAL FREE ENERGY PREDICTED BY IDOCK:   -5.24 KCAL/MOL
REMARK 923 INTER-LIGAND FREE ENERGY PREDICTED BY IDOCK:   -4.57 KCAL/MOL
REMARK 924 INTRA-LIGAND FREE ENERGY PREDICTED BY IDOCK:   -0.67 KCAL/MOL
REMARK 927      BINDING AFFINITY PREDICTED BY RF-SCORE:    0.00 PKD
ROOT
HETATM    1  N   UNL     1      -8.560   8.760  72.247  1.00  0.00    -0.399 NA 
HETATM    2  H2  UNL     1      -7.694   8.529  72.733  1.00  0.00     0.000 HD 
HETATM    3  C   UNL     1      -8.840   7.733  71.319  1.00  0.00    -0.133 A  
HETATM    4  H1  UNL     1      -8.505   9.729  71.932  1.00  0.00     0.000 HD 
HETATM    5  C   UNL     1      -8.916   6.390  71.755  1.00  0.00    -0.139 A  
HETATM    6  C   UNL     1      -9.091   5.334  70.859  1.00  0.00    -0.168 A  
HETATM    7 BR   UNL     1      -8.806   5.955  73.608  1.00  0.00    -0.124 Br 
HETATM    8  C   UNL     1      -9.154   5.608  69.499  1.00  0.00    -0.125 A  
HETATM    9  C   UNL     1      -9.015   6.911  69.034  1.00  0.00    -0.132 A  
HETATM   10 BR   UNL     1      -9.386   4.193  68.267  1.00  0.00    -0.217 Br 
HETATM   11  C   UNL     1      -8.834   7.988  69.930  1.00  0.00    -0.144 A  
ENDROOT
BRANCH  11  12
HETATM   12  C   UNL     1      -8.579   9.360  69.335  1.00  0.00    -0.148 C  
BRANCH  12  13
HETATM   13  N   UNL     1      -9.600  10.343  69.734  1.00  0.00    -0.413 NA 
HETATM   14  H   UNL     1      -9.258  11.298  69.625  1.00  0.00     0.000 HD 
BRANCH  13  15
HETATM   15  C   UNL     1     -10.871  10.140  69.009  1.00  0.00    -0.224 C  
HETATM   16  C   UNL     1     -11.846  11.295  69.313  1.00  0.00    -0.423 C  
HETATM   17  C   UNL     1     -11.410  12.634  68.707  1.00  0.00    -0.333 C  
HETATM   18  C   UNL     1     -11.079  12.526  67.216  1.00  0.00    -0.274 C  
HETATM   19  C   UNL     1     -10.135  11.365  66.912  1.00  0.00    -0.245 C  
HETATM   20  O   UNL     1     -12.284  12.327  66.476  1.00  0.00    -0.588 OA 
HETATM   21  C   UNL     1     -10.668  10.051  67.487  1.00  0.00    -0.339 C  
HETATM   22  H   UNL     1     -12.079  12.260  65.551  1.00  0.00     0.000 HD 
ENDBRANCH  13  15
ENDBRANCH  12  13
ENDBRANCH  11  12
TORSDOF 3
ENDMDL
MODEL      147
REMARK 921   NORMALIZED FREE ENERGY PREDICTED BY IDOCK:   -3.86 KCAL/MOL
REMARK 922        TOTAL FREE ENERGY PREDICTED BY IDOCK:   -5.20 KCAL/MOL
REMARK 923 INTER-LIGAND FREE ENERGY PREDICTED BY IDOCK:   -4.84 KCAL/MOL
REMARK 924 INTRA-LIGAND FREE ENERGY PREDICTED BY IDOCK:   -0.36 KCAL/MOL
REMARK 927      BINDING AFFINITY PREDICTED BY RF-SCORE:    0.00 PKD
ROOT
HETATM    1  N   UNL     1     -12.364  14.298  68.325  1.00  0.00    -0.580 NA 
HETATM    2  H2  UNL     1     -12.753  13.676  69.033  1.00  0.00     0.000 HD 
HETATM    3  C   UNL     1     -10.968  14.092  68.267  1.00  0.00    -0.251 A  
HETATM    4  H1  UNL     1     -12.734  15.236  68.479  1.00  0.00     0.000 HD 
HETATM    5  C   UNL     1     -10.455  12.792  68.053  1.00  0.00    -0.226 A  
HETATM    6  C   UNL     1      -9.084  12.527  68.088  1.00  0.00    -0.204 A  
HETATM    7 BR   UNL     1     -11.619  11.330  67.678  1.00  0.00    -0.209 Br 
HETATM    8  C   UNL     1      -8.206  13.561  68.380  1.00  0.00    -0.141 A  
HETATM    9  C   UNL     1      -8.684  14.836  68.662  1.00  0.00    -0.178 A  
HETATM   10 BR   UNL     1      -6.346  13.224  68.438  1.00  0.00    -0.099 Br 
HETATM   11  C   UNL     1     -10.067  15.118  68.633  1.00  0.00    -0.222 A  
ENDROOT
BRANCH  11  12
HETATM   12  C   UNL     1     -10.511  16.504  69.061  1.00  0.00    -0.303 C  
BRANCH  12  13
HETATM   13  N   UNL     1      -9.400  17.469  69.079  1.00  0.00    -0.157 NA 
HETATM   14  H   UNL     1      -8.656  17.190  68.438  1.00  0.00     0.000 HD 
BRANCH  13  15
HETATM   15  C   UNL     1      -9.862  18.845  68.801  1.00  0.00    -0.404 C  
HETATM   16  C   UNL     1      -8.674  19.728  68.370  1.00  0.00    -0.296 C  
HETATM   17  C   UNL     1      -8.110  19.359  66.994  1.00  0.00    -0.290 C  
HETATM   18  C   UNL     1      -9.194  19.272  65.917  1.00  0.00     0.044 C  
HETATM   19  C   UNL     1     -10.383  18.420  66.354  1.00  0.00    -0.430 C  
HETATM   20  O   UNL     1      -9.672  20.585  65.618  1.00  0.00    -0.607 OA 
HETATM   21  C   UNL     1     -10.936  18.889  67.702  1.00  0.00    -0.287 C  
HETATM   22  H   UNL     1     -10.344  20.532  64.950  1.00  0.00     0.000 HD 
ENDBRANCH  13  15
ENDBRANCH  12  13
ENDBRANCH  11  12
TORSDOF 3
ENDMDL
MODEL      148
REMARK 921   NORMALIZED FREE ENERGY PREDICTED BY IDOCK:   -3.85 KCAL/MOL
REMARK 922        TOTAL FREE ENERGY PREDICTED BY IDOCK:   -5.19 KCAL/MOL
REMARK 923 INTER-LIGAND FREE ENERGY PREDICTED BY IDOCK:   -4.90 KCAL/MOL
REMARK 924 INTRA-LIGAND FREE ENERGY PREDICTED BY IDOCK:   -0.28 KCAL/MOL
REMARK 927      BINDING AFFINITY PREDICTED BY RF-SCORE:    0.00 PKD
ROOT
HETATM    1  N   UNL     1     -10.075  15.180  67.684  1.00  0.00    -0.230 NA 
HETATM    2  H2  UNL     1      -9.117  15.423  67.938  1.00  0.00     0.000 HD 
HETATM    3  C   UNL     1     -10.854  15.145  68.862  1.00  0.00    -0.241 A  
HETATM    4  H1  UNL     1     -10.050  14.369  67.067  1.00  0.00     0.000 HD 
HETATM    5  C   UNL     1     -10.888  16.270  69.718  1.00  0.00    -0.356 A  
HETATM    6  C   UNL     1     -11.564  16.244  70.941  1.00  0.00    -0.321 A  
HETATM    7 BR   UNL     1     -10.028  17.899  69.230  1.00  0.00     0.015 Br 
HETATM    8  C   UNL     1     -12.184  15.068  71.342  1.00  0.00    -0.328 A  
HETATM    9  C   UNL     1     -12.111  13.925  70.553  1.00  0.00    -0.426 A  
HETATM   10 BR   UNL     1     -13.100  15.008  72.995  1.00  0.00    -0.639 Br 
HETATM   11  C   UNL     1     -11.429  13.937  69.317  1.00  0.00    -0.348 A  
ENDROOT
BRANCH  11  12
HETATM   12  C   UNL     1     -11.301  12.621  68.573  1.00  0.00    -0.296 C  
BRANCH  12  13
HETATM   13  N   UNL     1     -12.020  12.630  67.289  1.00  0.00    -0.467 NA 
HETATM   14  H   UNL     1     -12.094  13.575  66.912  1.00  0.00     0.000 HD 
BRANCH  13  15
HETATM   15  C   UNL     1     -11.407  11.707  66.310  1.00  0.00    -0.227 C  
HETATM   16  C   UNL     1     -12.263  11.647  65.029  1.00  0.00     0.421 C  
HETATM   17  C   UNL     1     -12.232  12.947  64.217  1.00  0.00    -0.481 C  
HETATM   18  C   UNL     1     -10.809  13.440  63.946  1.00  0.00    -0.046 C  
HETATM   19  C   UNL     1      -9.954  13.473  65.211  1.00  0.00    -0.206 C  
HETATM   20  O   UNL     1     -10.178  12.572  63.003  1.00  0.00    -0.463 OA 
HETATM   21  C   UNL     1      -9.976  12.123  65.932  1.00  0.00    -0.267 C  
HETATM   22  H   UNL     1      -9.294  12.877  62.835  1.00  0.00     0.000 HD 
ENDBRANCH  13  15
ENDBRANCH  12  13
ENDBRANCH  11  12
TORSDOF 3
ENDMDL
MODEL      149
REMARK 921   NORMALIZED FREE ENERGY PREDICTED BY IDOCK:   -3.85 KCAL/MOL
REMARK 922        TOTAL FREE ENERGY PREDICTED BY IDOCK:   -5.19 KCAL/MOL
REMARK 923 INTER-LIGAND FREE ENERGY PREDICTED BY IDOCK:   -4.57 KCAL/MOL
REMARK 924 INTRA-LIGAND FREE ENERGY PREDICTED BY IDOCK:   -0.62 KCAL/MOL
REMARK 927      BINDING AFFINITY PREDICTED BY RF-SCORE:    0.00 PKD
ROOT
HETATM    1  N   UNL     1     -10.418  17.245  68.675  1.00  0.00    -0.354 NA 
HETATM    2  H2  UNL     1     -11.110  17.069  67.947  1.00  0.00     0.000 HD 
HETATM    3  C   UNL     1      -9.165  17.459  68.060  1.00  0.00    -0.266 A  
HETATM    4  H1  UNL     1     -10.516  16.528  69.394  1.00  0.00     0.000 HD 
HETATM    5  C   UNL     1      -9.029  18.452  67.064  1.00  0.00    -0.275 A  
HETATM    6  C   UNL     1      -7.836  18.630  66.359  1.00  0.00    -0.305 A  
HETATM    7 BR   UNL     1     -10.473  19.624  66.646  1.00  0.00    -0.628 Br 
HETATM    8  C   UNL     1      -6.768  17.782  66.619  1.00  0.00    -0.205 A  
HETATM    9  C   UNL     1      -6.893  16.752  67.545  1.00  0.00    -0.170 A  
HETATM   10 BR   UNL     1      -5.145  18.002  65.675  1.00  0.00    -0.210 Br 
HETATM   11  C   UNL     1      -8.094  16.559  68.262  1.00  0.00    -0.179 A  
ENDROOT
BRANCH  11  12
HETATM   12  C   UNL     1      -8.183  15.347  69.169  1.00  0.00    -0.243 C  
BRANCH  12  13
HETATM   13  N   UNL     1      -9.424  14.582  68.964  1.00  0.00    -0.369 NA 
HETATM   14  H   UNL     1     -10.247  15.177  69.060  1.00  0.00     0.000 HD 
BRANCH  13  15
HETATM   15  C   UNL     1      -9.423  13.870  67.669  1.00  0.00    -0.212 C  
HETATM   16  C   UNL     1      -8.171  12.977  67.555  1.00  0.00    -0.181 C  
HETATM   17  C   UNL     1      -8.189  11.780  68.511  1.00  0.00    -0.134 C  
HETATM   18  C   UNL     1      -9.489  10.976  68.426  1.00  0.00    -0.182 C  
HETATM   19  C   UNL     1     -10.728  11.864  68.512  1.00  0.00    -0.254 C  
HETATM   20  O   UNL     1      -9.530  10.272  67.184  1.00  0.00    -0.155 OA 
HETATM   21  C   UNL     1     -10.674  12.996  67.483  1.00  0.00    -0.248 C  
HETATM   22  H   UNL     1     -10.336   9.773  67.130  1.00  0.00     0.000 HD 
ENDBRANCH  13  15
ENDBRANCH  12  13
ENDBRANCH  11  12
TORSDOF 3
ENDMDL
MODEL      150
REMARK 921   NORMALIZED FREE ENERGY PREDICTED BY IDOCK:   -3.82 KCAL/MOL
REMARK 922        TOTAL FREE ENERGY PREDICTED BY IDOCK:   -5.16 KCAL/MOL
REMARK 923 INTER-LIGAND FREE ENERGY PREDICTED BY IDOCK:   -4.58 KCAL/MOL
REMARK 924 INTRA-LIGAND FREE ENERGY PREDICTED BY IDOCK:   -0.57 KCAL/MOL
REMARK 927      BINDING AFFINITY PREDICTED BY RF-SCORE:    0.00 PKD
ROOT
HETATM    1  N   UNL     1     -10.112  11.395  66.196  1.00  0.00    -0.223 NA 
HETATM    2  H2  UNL     1     -10.607  11.121  65.347  1.00  0.00     0.000 HD 
HETATM    3  C   UNL     1      -9.964  10.255  67.015  1.00  0.00    -0.201 A  
HETATM    4  H1  UNL     1     -10.552  12.236  66.570  1.00  0.00     0.000 HD 
HETATM    5  C   UNL     1      -9.354   9.089  66.498  1.00  0.00    -0.191 A  
HETATM    6  C   UNL     1      -9.276   7.908  67.239  1.00  0.00    -0.167 A  
HETATM    7 BR   UNL     1      -8.580   9.080  64.756  1.00  0.00    -0.183 Br 
HETATM    8  C   UNL     1      -9.848   7.868  68.503  1.00  0.00    -0.177 A  
HETATM    9  C   UNL     1     -10.514   8.977  69.013  1.00  0.00    -0.235 A  
HETATM   10 BR   UNL     1      -9.760   6.278  69.523  1.00  0.00    -0.178 Br 
HETATM   11  C   UNL     1     -10.602  10.176  68.273  1.00  0.00    -0.262 A  
ENDROOT
BRANCH  11  12
HETATM   12  C   UNL     1     -11.440  11.300  68.854  1.00  0.00    -0.297 C  
BRANCH  12  13
HETATM   13  N   UNL     1     -10.665  12.535  69.049  1.00  0.00    -0.405 NA 
HETATM   14  H   UNL     1      -9.802  12.522  68.506  1.00  0.00     0.000 HD 
BRANCH  13  15
HETATM   15  C   UNL     1     -11.469  13.740  68.752  1.00  0.00    -0.303 C  
HETATM   16  C   UNL     1     -12.510  13.972  69.865  1.00  0.00    -0.301 C  
HETATM   17  C   UNL     1     -11.888  14.395  71.200  1.00  0.00    -0.316 C  
HETATM   18  C   UNL     1     -10.919  15.571  71.054  1.00  0.00    -0.266 C  
HETATM   19  C   UNL     1      -9.905  15.352  69.933  1.00  0.00    -0.191 C  
HETATM   20  O   UNL     1     -11.656  16.759  70.763  1.00  0.00    -0.453 OA 
HETATM   21  C   UNL     1     -10.600  15.002  68.615  1.00  0.00    -0.237 C  
HETATM   22  H   UNL     1     -11.055  17.489  70.672  1.00  0.00     0.000 HD 
ENDBRANCH  13  15
ENDBRANCH  12  13
ENDBRANCH  11  12
TORSDOF 3
ENDMDL
MODEL      151
REMARK 921   NORMALIZED FREE ENERGY PREDICTED BY IDOCK:   -3.82 KCAL/MOL
REMARK 922        TOTAL FREE ENERGY PREDICTED BY IDOCK:   -5.16 KCAL/MOL
REMARK 923 INTER-LIGAND FREE ENERGY PREDICTED BY IDOCK:   -4.53 KCAL/MOL
REMARK 924 INTRA-LIGAND FREE ENERGY PREDICTED BY IDOCK:   -0.62 KCAL/MOL
REMARK 927      BINDING AFFINITY PREDICTED BY RF-SCORE:    0.00 PKD
ROOT
HETATM    1  N   UNL     1     -10.988  17.379  67.921  1.00  0.00    -0.261 NA 
HETATM    2  H2  UNL     1     -11.438  18.282  67.770  1.00  0.00     0.000 HD 
HETATM    3  C   UNL     1      -9.626  17.493  67.564  1.00  0.00    -0.265 A  
HETATM    4  H1  UNL     1     -11.567  16.655  67.495  1.00  0.00     0.000 HD 
HETATM    5  C   UNL     1      -8.825  18.497  68.153  1.00  0.00    -0.306 A  
HETATM    6  C   UNL     1      -7.502  18.710  67.757  1.00  0.00    -0.241 A  
HETATM    7 BR   UNL     1      -9.508  19.603  69.547  1.00  0.00     0.247 Br 
HETATM    8  C   UNL     1      -6.975  17.939  66.730  1.00  0.00    -0.191 A  
HETATM    9  C   UNL     1      -7.759  16.990  66.084  1.00  0.00    -0.292 A  
HETATM   10 BR   UNL     1      -5.188  18.213  66.174  1.00  0.00    -0.221 Br 
HETATM   11  C   UNL     1      -9.098  16.767  66.473  1.00  0.00    -0.302 A  
ENDROOT
BRANCH  11  12
HETATM   12  C   UNL     1      -9.917  15.794  65.645  1.00  0.00    -0.345 C  
BRANCH  12  13
HETATM   13  N   UNL     1     -10.694  14.863  66.478  1.00  0.00    -0.303 NA 
HETATM   14  H   UNL     1     -11.394  14.367  65.927  1.00  0.00     0.000 HD 
BRANCH  13  15
HETATM   15  C   UNL     1      -9.821  13.921  67.211  1.00  0.00    -0.244 C  
HETATM   16  C   UNL     1      -9.975  14.128  68.731  1.00  0.00    -0.184 C  
HETATM   17  C   UNL     1     -11.342  13.689  69.268  1.00  0.00    -0.323 C  
HETATM   18  C   UNL     1     -11.721  12.273  68.830  1.00  0.00    -0.328 C  
HETATM   19  C   UNL     1     -11.542  12.060  67.328  1.00  0.00    -0.383 C  
HETATM   20  O   UNL     1     -10.897  11.328  69.515  1.00  0.00    -0.360 OA 
HETATM   21  C   UNL     1     -10.134  12.454  66.876  1.00  0.00    -0.230 C  
HETATM   22  H   UNL     1     -11.131  10.448  69.244  1.00  0.00     0.000 HD 
ENDBRANCH  13  15
ENDBRANCH  12  13
ENDBRANCH  11  12
TORSDOF 3
ENDMDL
MODEL      152
REMARK 921   NORMALIZED FREE ENERGY PREDICTED BY IDOCK:   -3.81 KCAL/MOL
REMARK 922        TOTAL FREE ENERGY PREDICTED BY IDOCK:   -5.14 KCAL/MOL
REMARK 923 INTER-LIGAND FREE ENERGY PREDICTED BY IDOCK:   -4.59 KCAL/MOL
REMARK 924 INTRA-LIGAND FREE ENERGY PREDICTED BY IDOCK:   -0.56 KCAL/MOL
REMARK 927      BINDING AFFINITY PREDICTED BY RF-SCORE:    0.00 PKD
ROOT
HETATM    1  N   UNL     1     -12.177  11.061  68.214  1.00  0.00    -0.736 NA 
HETATM    2  H2  UNL     1     -12.563  10.466  67.482  1.00  0.00     0.000 HD 
HETATM    3  C   UNL     1     -10.802  11.253  67.955  1.00  0.00    -0.218 A  
HETATM    4  H1  UNL     1     -12.478  10.698  69.119  1.00  0.00     0.000 HD 
HETATM    5  C   UNL     1     -10.384  11.757  66.702  1.00  0.00    -0.218 A  
HETATM    6  C   UNL     1      -9.032  11.868  66.367  1.00  0.00    -0.180 A  
HETATM    7 BR   UNL     1     -11.656  12.337  65.407  1.00  0.00    -0.402 Br 
HETATM    8  C   UNL     1      -8.076  11.436  67.275  1.00  0.00    -0.148 A  
HETATM    9  C   UNL     1      -8.457  10.873  68.489  1.00  0.00    -0.147 A  
HETATM   10 BR   UNL     1      -6.241  11.573  66.842  1.00  0.00    -0.137 Br 
HETATM   11  C   UNL     1      -9.819  10.752  68.839  1.00  0.00    -0.209 A  
ENDROOT
BRANCH  11  12
HETATM   12  C   UNL     1     -10.151  10.026  70.129  1.00  0.00    -0.211 C  
BRANCH  12  13
HETATM   13  N   UNL     1     -10.619   8.651  69.896  1.00  0.00    -0.223 NA 
HETATM   14  H   UNL     1     -10.789   8.480  68.905  1.00  0.00     0.000 HD 
BRANCH  13  15
HETATM   15  C   UNL     1      -9.689   7.651  70.462  1.00  0.00    -0.182 C  
HETATM   16  C   UNL     1      -9.429   7.951  71.952  1.00  0.00    -0.220 C  
HETATM   17  C   UNL     1     -10.651   7.706  72.843  1.00  0.00    -0.411 C  
HETATM   18  C   UNL     1     -11.271   6.324  72.626  1.00  0.00    -0.267 C  
HETATM   19  C   UNL     1     -11.504   6.016  71.148  1.00  0.00    -0.246 C  
HETATM   20  O   UNL     1     -10.401   5.324  73.158  1.00  0.00    -0.175 OA 
HETATM   21  C   UNL     1     -10.225   6.216  70.332  1.00  0.00    -0.256 C  
HETATM   22  H   UNL     1     -10.786   4.466  73.024  1.00  0.00     0.000 HD 
ENDBRANCH  13  15
ENDBRANCH  12  13
ENDBRANCH  11  12
TORSDOF 3
ENDMDL
MODEL      153
REMARK 921   NORMALIZED FREE ENERGY PREDICTED BY IDOCK:   -3.80 KCAL/MOL
REMARK 922        TOTAL FREE ENERGY PREDICTED BY IDOCK:   -5.13 KCAL/MOL
REMARK 923 INTER-LIGAND FREE ENERGY PREDICTED BY IDOCK:   -4.69 KCAL/MOL
REMARK 924 INTRA-LIGAND FREE ENERGY PREDICTED BY IDOCK:   -0.44 KCAL/MOL
REMARK 927      BINDING AFFINITY PREDICTED BY RF-SCORE:    0.00 PKD
ROOT
HETATM    1  N   UNL     1      -9.808  14.360  68.408  1.00  0.00    -0.228 NA 
HETATM    2  H2  UNL     1      -8.893  13.910  68.407  1.00  0.00     0.000 HD 
HETATM    3  C   UNL     1     -10.452  14.068  67.186  1.00  0.00    -0.270 A  
HETATM    4  H1  UNL     1      -9.691  15.331  68.702  1.00  0.00     0.000 HD 
HETATM    5  C   UNL     1     -10.615  12.724  66.779  1.00  0.00    -0.252 A  
HETATM    6  C   UNL     1     -11.155  12.392  65.534  1.00  0.00    -0.338 A  
HETATM    7 BR   UNL     1     -10.123  11.286  67.929  1.00  0.00    -0.203 Br 
HETATM    8  C   UNL     1     -11.505  13.411  64.659  1.00  0.00    -0.348 A  
HETATM    9  C   UNL     1     -11.295  14.742  65.004  1.00  0.00    -0.391 A  
HETATM   10 BR   UNL     1     -12.234  12.986  62.967  1.00  0.00     0.314 Br 
HETATM   11  C   UNL     1     -10.747  15.091  66.257  1.00  0.00    -0.322 A  
ENDROOT
BRANCH  11  12
HETATM   12  C   UNL     1     -10.447  16.557  66.509  1.00  0.00    -0.270 C  
BRANCH  12  13
HETATM   13  N   UNL     1      -9.211  16.999  65.843  1.00  0.00    -0.530 NA 
HETATM   14  H   UNL     1      -9.322  17.926  65.431  1.00  0.00     0.000 HD 
BRANCH  13  15
HETATM   15  C   UNL     1      -8.048  16.953  66.755  1.00  0.00    -0.241 C  
HETATM   16  C   UNL     1      -6.797  17.514  66.051  1.00  0.00    -0.281 C  
HETATM   17  C   UNL     1      -6.869  19.023  65.797  1.00  0.00    -0.311 C  
HETATM   18  C   UNL     1      -7.236  19.816  67.053  1.00  0.00    -0.215 C  
HETATM   19  C   UNL     1      -8.460  19.243  67.766  1.00  0.00    -0.340 C  
HETATM   20  O   UNL     1      -6.138  19.794  67.966  1.00  0.00    -0.212 OA 
HETATM   21  C   UNL     1      -8.289  17.749  68.048  1.00  0.00    -0.249 C  
HETATM   22  H   UNL     1      -6.366  20.286  68.746  1.00  0.00     0.000 HD 
ENDBRANCH  13  15
ENDBRANCH  12  13
ENDBRANCH  11  12
TORSDOF 3
ENDMDL
MODEL      154
REMARK 921   NORMALIZED FREE ENERGY PREDICTED BY IDOCK:   -3.77 KCAL/MOL
REMARK 922        TOTAL FREE ENERGY PREDICTED BY IDOCK:   -5.10 KCAL/MOL
REMARK 923 INTER-LIGAND FREE ENERGY PREDICTED BY IDOCK:   -4.55 KCAL/MOL
REMARK 924 INTRA-LIGAND FREE ENERGY PREDICTED BY IDOCK:   -0.55 KCAL/MOL
REMARK 927      BINDING AFFINITY PREDICTED BY RF-SCORE:    0.00 PKD
ROOT
HETATM    1  N   UNL     1     -11.357  11.789  65.230  1.00  0.00    -0.267 NA 
HETATM    2  H2  UNL     1     -10.502  12.162  64.818  1.00  0.00     0.000 HD 
HETATM    3  C   UNL     1     -11.625  12.497  66.422  1.00  0.00    -0.391 A  
HETATM    4  H1  UNL     1     -11.291  10.771  65.247  1.00  0.00     0.000 HD 
HETATM    5  C   UNL     1     -11.717  13.908  66.399  1.00  0.00    -0.383 A  
HETATM    6  C   UNL     1     -11.880  14.654  67.568  1.00  0.00    -0.375 A  
HETATM    7 BR   UNL     1     -11.646  14.867  64.753  1.00  0.00    -0.378 Br 
HETATM    8  C   UNL     1     -11.914  13.994  68.788  1.00  0.00    -0.347 A  
HETATM    9  C   UNL     1     -11.759  12.613  68.850  1.00  0.00    -0.370 A  
HETATM   10 BR   UNL     1     -12.130  14.984  70.385  1.00  0.00    -0.420 Br 
HETATM   11  C   UNL     1     -11.590  11.848  67.676  1.00  0.00    -0.382 A  
ENDROOT
BRANCH  11  12
HETATM   12  C   UNL     1     -11.316  10.364  67.839  1.00  0.00    -0.173 C  
BRANCH  12  13
HETATM   13  N   UNL     1      -9.942  10.093  68.292  1.00  0.00    -0.145 NA 
HETATM   14  H   UNL     1      -9.874  10.122  69.310  1.00  0.00     0.000 HD 
BRANCH  13  15
HETATM   15  C   UNL     1      -9.428   8.816  67.755  1.00  0.00    -0.142 C  
HETATM   16  C   UNL     1      -9.412   8.856  66.214  1.00  0.00    -0.304 C  
HETATM   17  C   UNL     1      -8.367   9.819  65.641  1.00  0.00    -0.138 C  
HETATM   18  C   UNL     1      -6.974   9.597  66.234  1.00  0.00    -0.092 C  
HETATM   19  C   UNL     1      -6.993   9.531  67.759  1.00  0.00    -0.080 C  
HETATM   20  O   UNL     1      -6.439   8.368  65.741  1.00  0.00    -0.052 OA 
HETATM   21  C   UNL     1      -8.009   8.500  68.257  1.00  0.00    -0.114 C  
HETATM   22  H   UNL     1      -5.574   8.230  66.108  1.00  0.00     0.000 HD 
ENDBRANCH  13  15
ENDBRANCH  12  13
ENDBRANCH  11  12
TORSDOF 3
ENDMDL
MODEL      155
REMARK 921   NORMALIZED FREE ENERGY PREDICTED BY IDOCK:   -3.75 KCAL/MOL
REMARK 922        TOTAL FREE ENERGY PREDICTED BY IDOCK:   -5.07 KCAL/MOL
REMARK 923 INTER-LIGAND FREE ENERGY PREDICTED BY IDOCK:   -4.67 KCAL/MOL
REMARK 924 INTRA-LIGAND FREE ENERGY PREDICTED BY IDOCK:   -0.40 KCAL/MOL
REMARK 927      BINDING AFFINITY PREDICTED BY RF-SCORE:    0.00 PKD
ROOT
HETATM    1  N   UNL     1      -8.506  12.252  68.830  1.00  0.00    -0.361 NA 
HETATM    2  H2  UNL     1      -8.183  11.418  68.339  1.00  0.00     0.000 HD 
HETATM    3  C   UNL     1      -9.243  13.046  67.925  1.00  0.00    -0.208 A  
HETATM    4  H1  UNL     1      -7.716  12.655  69.335  1.00  0.00     0.000 HD 
HETATM    5  C   UNL     1     -10.337  12.487  67.225  1.00  0.00    -0.220 A  
HETATM    6  C   UNL     1     -11.031  13.206  66.249  1.00  0.00    -0.295 A  
HETATM    7 BR   UNL     1     -10.939  10.719  67.601  1.00  0.00    -0.385 Br 
HETATM    8  C   UNL     1     -10.609  14.490  65.931  1.00  0.00    -0.309 A  
HETATM    9  C   UNL     1      -9.496  15.042  66.554  1.00  0.00    -0.306 A  
HETATM   10 BR   UNL     1     -11.531  15.479  64.610  1.00  0.00    -0.242 Br 
HETATM   11  C   UNL     1      -8.783  14.326  67.540  1.00  0.00    -0.204 A  
ENDROOT
BRANCH  11  12
HETATM   12  C   UNL     1      -7.516  14.956  68.088  1.00  0.00    -0.115 C  
BRANCH  12  13
HETATM   13  N   UNL     1      -7.718  16.354  68.501  1.00  0.00    -0.184 NA 
HETATM   14  H   UNL     1      -7.557  16.472  69.501  1.00  0.00     0.000 HD 
BRANCH  13  15
HETATM   15  C   UNL     1      -6.887  17.286  67.709  1.00  0.00    -0.160 C  
HETATM   16  C   UNL     1      -7.705  18.537  67.332  1.00  0.00    -0.233 C  
HETATM   17  C   UNL     1      -8.031  19.433  68.532  1.00  0.00    -0.395 C  
HETATM   18  C   UNL     1      -6.795  19.773  69.367  1.00  0.00    -0.329 C  
HETATM   19  C   UNL     1      -5.971  18.536  69.717  1.00  0.00    -0.253 C  
HETATM   20  O   UNL     1      -5.961  20.673  68.636  1.00  0.00    -0.305 OA 
HETATM   21  C   UNL     1      -5.624  17.728  68.465  1.00  0.00    -0.163 C  
HETATM   22  H   UNL     1      -5.194  20.884  69.154  1.00  0.00     0.000 HD 
ENDBRANCH  13  15
ENDBRANCH  12  13
ENDBRANCH  11  12
TORSDOF 3
ENDMDL
MODEL      156
REMARK 921   NORMALIZED FREE ENERGY PREDICTED BY IDOCK:   -3.73 KCAL/MOL
REMARK 922        TOTAL FREE ENERGY PREDICTED BY IDOCK:   -5.05 KCAL/MOL
REMARK 923 INTER-LIGAND FREE ENERGY PREDICTED BY IDOCK:   -5.52 KCAL/MOL
REMARK 924 INTRA-LIGAND FREE ENERGY PREDICTED BY IDOCK:    0.47 KCAL/MOL
REMARK 927      BINDING AFFINITY PREDICTED BY RF-SCORE:    0.00 PKD
ROOT
HETATM    1  N   UNL     1     -11.943  12.988  70.631  1.00  0.00    -0.528 NA 
HETATM    2  H2  UNL     1     -12.788  13.419  71.008  1.00  0.00     0.000 HD 
HETATM    3  C   UNL     1     -11.671  13.566  69.372  1.00  0.00    -0.325 A  
HETATM    4  H1  UNL     1     -12.031  11.975  70.718  1.00  0.00     0.000 HD 
HETATM    5  C   UNL     1     -11.550  14.970  69.251  1.00  0.00    -0.315 A  
HETATM    6  C   UNL     1     -11.380  15.590  68.012  1.00  0.00    -0.332 A  
HETATM    7 BR   UNL     1     -11.588  16.091  70.792  1.00  0.00    -0.400 Br 
HETATM    8  C   UNL     1     -11.369  14.809  66.864  1.00  0.00    -0.355 A  
HETATM    9  C   UNL     1     -11.553  13.433  66.944  1.00  0.00    -0.404 A  
HETATM   10 BR   UNL     1     -11.145  15.628  65.174  1.00  0.00    -0.325 Br 
HETATM   11  C   UNL     1     -11.729  12.794  68.190  1.00  0.00    -0.392 A  
ENDROOT
BRANCH  11  12
HETATM   12  C   UNL     1     -12.035  11.308  68.180  1.00  0.00    -0.110 C  
BRANCH  12  13
HETATM   13  N   UNL     1     -11.905  10.698  69.513  1.00  0.00    -0.413 NA 
HETATM   14  H   UNL     1     -12.494   9.871  69.602  1.00  0.00     0.000 HD 
BRANCH  13  15
HETATM   15  C   UNL     1     -10.496  10.393  69.843  1.00  0.00    -0.218 C  
HETATM   16  C   UNL     1     -10.429   9.434  71.048  1.00  0.00    -0.392 C  
HETATM   17  C   UNL     1     -10.934   8.022  70.729  1.00  0.00    -0.259 C  
HETATM   18  C   UNL     1     -10.285   7.432  69.476  1.00  0.00    -0.204 C  
HETATM   19  C   UNL     1     -10.327   8.394  68.290  1.00  0.00    -0.244 C  
HETATM   20  O   UNL     1      -8.917   7.124  69.750  1.00  0.00    -0.142 OA 
HETATM   21  C   UNL     1      -9.744   9.759  68.661  1.00  0.00    -0.162 C  
HETATM   22  H   UNL     1      -8.513   6.757  68.973  1.00  0.00     0.000 HD 
ENDBRANCH  13  15
ENDBRANCH  12  13
ENDBRANCH  11  12
TORSDOF 3
ENDMDL
MODEL      157
REMARK 921   NORMALIZED FREE ENERGY PREDICTED BY IDOCK:   -3.70 KCAL/MOL
REMARK 922        TOTAL FREE ENERGY PREDICTED BY IDOCK:   -5.01 KCAL/MOL
REMARK 923 INTER-LIGAND FREE ENERGY PREDICTED BY IDOCK:   -4.71 KCAL/MOL
REMARK 924 INTRA-LIGAND FREE ENERGY PREDICTED BY IDOCK:   -0.31 KCAL/MOL
REMARK 927      BINDING AFFINITY PREDICTED BY RF-SCORE:    0.00 PKD
ROOT
HETATM    1  N   UNL     1      -7.849  16.138  67.483  1.00  0.00    -0.138 NA 
HETATM    2  H2  UNL     1      -7.193  16.627  68.091  1.00  0.00     0.000 HD 
HETATM    3  C   UNL     1      -9.063  15.964  68.182  1.00  0.00    -0.182 A  
HETATM    4  H1  UNL     1      -7.374  15.329  67.080  1.00  0.00     0.000 HD 
HETATM    5  C   UNL     1      -9.722  17.083  68.741  1.00  0.00    -0.273 A  
HETATM    6  C   UNL     1     -10.870  16.947  69.524  1.00  0.00    -0.144 A  
HETATM    7 BR   UNL     1      -9.082  18.851  68.429  1.00  0.00    -0.398 Br 
HETATM    8  C   UNL     1     -11.355  15.674  69.791  1.00  0.00    -0.327 A  
HETATM    9  C   UNL     1     -10.691  14.549  69.312  1.00  0.00    -0.241 A  
HETATM   10 BR   UNL     1     -12.905  15.464  70.853  1.00  0.00    -0.538 Br 
HETATM   11  C   UNL     1      -9.527  14.673  68.522  1.00  0.00    -0.216 A  
ENDROOT
BRANCH  11  12
HETATM   12  C   UNL     1      -8.803  13.398  68.135  1.00  0.00    -0.180 C  
BRANCH  12  13
HETATM   13  N   UNL     1      -9.554  12.189  68.511  1.00  0.00    -0.337 NA 
HETATM   14  H   UNL     1     -10.130  12.352  69.337  1.00  0.00     0.000 HD 
BRANCH  13  15
HETATM   15  C   UNL     1     -10.361  11.671  67.386  1.00  0.00    -0.205 C  
HETATM   16  C   UNL     1      -9.501  11.590  66.109  1.00  0.00    -0.239 C  
HETATM   17  C   UNL     1      -8.418  10.507  66.174  1.00  0.00    -0.154 C  
HETATM   18  C   UNL     1      -8.972   9.143  66.593  1.00  0.00    -0.137 C  
HETATM   19  C   UNL     1      -9.846   9.229  67.842  1.00  0.00    -0.200 C  
HETATM   20  O   UNL     1      -9.763   8.606  65.532  1.00  0.00    -0.442 OA 
HETATM   21  C   UNL     1     -10.946  10.280  67.679  1.00  0.00    -0.356 C  
HETATM   22  H   UNL     1     -10.107   7.760  65.791  1.00  0.00     0.000 HD 
ENDBRANCH  13  15
ENDBRANCH  12  13
ENDBRANCH  11  12
TORSDOF 3
ENDMDL
MODEL      158
REMARK 921   NORMALIZED FREE ENERGY PREDICTED BY IDOCK:   -3.70 KCAL/MOL
REMARK 922        TOTAL FREE ENERGY PREDICTED BY IDOCK:   -5.01 KCAL/MOL
REMARK 923 INTER-LIGAND FREE ENERGY PREDICTED BY IDOCK:   -4.49 KCAL/MOL
REMARK 924 INTRA-LIGAND FREE ENERGY PREDICTED BY IDOCK:   -0.53 KCAL/MOL
REMARK 927      BINDING AFFINITY PREDICTED BY RF-SCORE:    0.00 PKD
ROOT
HETATM    1  N   UNL     1     -12.069  11.118  67.990  1.00  0.00    -0.711 NA 
HETATM    2  H2  UNL     1     -12.235  10.753  67.052  1.00  0.00     0.000 HD 
HETATM    3  C   UNL     1     -10.918  11.936  67.955  1.00  0.00    -0.224 A  
HETATM    4  H1  UNL     1     -12.123  10.343  68.652  1.00  0.00     0.000 HD 
HETATM    5  C   UNL     1     -10.843  13.009  67.038  1.00  0.00    -0.261 A  
HETATM    6  C   UNL     1      -9.687  13.780  66.900  1.00  0.00    -0.265 A  
HETATM    7 BR   UNL     1     -12.339  13.474  65.952  1.00  0.00    -0.499 Br 
HETATM    8  C   UNL     1      -8.569  13.458  67.657  1.00  0.00    -0.193 A  
HETATM    9  C   UNL     1      -8.590  12.367  68.519  1.00  0.00    -0.060 A  
HETATM   10 BR   UNL     1      -6.992  14.486  67.484  1.00  0.00    -0.118 Br 
HETATM   11  C   UNL     1      -9.751  11.577  68.666  1.00  0.00    -0.172 A  
ENDROOT
BRANCH  11  12
HETATM   12  C   UNL     1      -9.653  10.341  69.540  1.00  0.00    -0.202 C  
BRANCH  12  13
HETATM   13  N   UNL     1      -9.876   9.099  68.784  1.00  0.00    -0.163 NA 
HETATM   14  H   UNL     1      -9.624   9.212  67.802  1.00  0.00     0.000 HD 
BRANCH  13  15
HETATM   15  C   UNL     1      -9.170   7.951  69.392  1.00  0.00    -0.145 C  
HETATM   16  C   UNL     1      -9.575   7.803  70.872  1.00  0.00    -0.173 C  
HETATM   17  C   UNL     1     -11.026   7.348  71.063  1.00  0.00    -0.268 C  
HETATM   18  C   UNL     1     -11.368   6.106  70.237  1.00  0.00    -0.344 C  
HETATM   19  C   UNL     1     -10.942   6.243  68.776  1.00  0.00    -0.424 C  
HETATM   20  O   UNL     1     -10.702   4.970  70.790  1.00  0.00    -0.138 OA 
HETATM   21  C   UNL     1      -9.466   6.631  68.662  1.00  0.00    -0.128 C  
HETATM   22  H   UNL     1     -10.914   4.198  70.278  1.00  0.00     0.000 HD 
ENDBRANCH  13  15
ENDBRANCH  12  13
ENDBRANCH  11  12
TORSDOF 3
ENDMDL
MODEL      159
REMARK 921   NORMALIZED FREE ENERGY PREDICTED BY IDOCK:   -3.68 KCAL/MOL
REMARK 922        TOTAL FREE ENERGY PREDICTED BY IDOCK:   -4.99 KCAL/MOL
REMARK 923 INTER-LIGAND FREE ENERGY PREDICTED BY IDOCK:   -4.65 KCAL/MOL
REMARK 924 INTRA-LIGAND FREE ENERGY PREDICTED BY IDOCK:   -0.34 KCAL/MOL
REMARK 927      BINDING AFFINITY PREDICTED BY RF-SCORE:    0.00 PKD
ROOT
HETATM    1  N   UNL     1     -12.077   7.923  70.549  1.00  0.00    -0.483 NA 
HETATM    2  H2  UNL     1     -12.573   8.150  71.411  1.00  0.00     0.000 HD 
HETATM    3  C   UNL     1     -10.695   8.115  70.764  1.00  0.00    -0.222 A  
HETATM    4  H1  UNL     1     -12.542   8.397  69.774  1.00  0.00     0.000 HD 
HETATM    5  C   UNL     1     -10.051   7.458  71.838  1.00  0.00    -0.178 A  
HETATM    6  C   UNL     1      -8.710   7.696  72.148  1.00  0.00    -0.154 A  
HETATM    7 BR   UNL     1     -10.983   6.186  72.908  1.00  0.00    -0.286 Br 
HETATM    8  C   UNL     1      -8.003   8.632  71.406  1.00  0.00    -0.137 A  
HETATM    9  C   UNL     1      -8.627   9.344  70.387  1.00  0.00    -0.266 A  
HETATM   10 BR   UNL     1      -6.188   8.974  71.811  1.00  0.00    -0.032 Br 
HETATM   11  C   UNL     1      -9.983   9.115  70.065  1.00  0.00    -0.223 A  
ENDROOT
BRANCH  11  12
HETATM   12  C   UNL     1     -10.616  10.011  69.017  1.00  0.00    -0.214 C  
BRANCH  12  13
HETATM   13  N   UNL     1     -10.368  11.439  69.275  1.00  0.00    -0.419 NA 
HETATM   14  H   UNL     1      -9.496  11.747  68.845  1.00  0.00     0.000 HD 
BRANCH  13  15
HETATM   15  C   UNL     1     -11.506  12.280  68.847  1.00  0.00    -0.304 C  
HETATM   16  C   UNL     1     -11.224  13.760  69.172  1.00  0.00    -0.307 C  
HETATM   17  C   UNL     1     -10.111  14.369  68.313  1.00  0.00    -0.239 C  
HETATM   18  C   UNL     1     -10.323  14.131  66.816  1.00  0.00    -0.274 C  
HETATM   19  C   UNL     1     -10.629  12.669  66.498  1.00  0.00    -0.272 C  
HETATM   20  O   UNL     1     -11.419  14.926  66.360  1.00  0.00    -0.344 OA 
HETATM   21  C   UNL     1     -11.795  12.149  67.342  1.00  0.00    -0.297 C  
HETATM   22  H   UNL     1     -11.551  14.778  65.431  1.00  0.00     0.000 HD 
ENDBRANCH  13  15
ENDBRANCH  12  13
ENDBRANCH  11  12
TORSDOF 3
ENDMDL
MODEL      160
REMARK 921   NORMALIZED FREE ENERGY PREDICTED BY IDOCK:   -3.67 KCAL/MOL
REMARK 922        TOTAL FREE ENERGY PREDICTED BY IDOCK:   -4.98 KCAL/MOL
REMARK 923 INTER-LIGAND FREE ENERGY PREDICTED BY IDOCK:   -4.62 KCAL/MOL
REMARK 924 INTRA-LIGAND FREE ENERGY PREDICTED BY IDOCK:   -0.36 KCAL/MOL
REMARK 927      BINDING AFFINITY PREDICTED BY RF-SCORE:    0.00 PKD
ROOT
HETATM    1  N   UNL     1      -8.500   5.974  66.937  1.00  0.00    -0.109 NA 
HETATM    2  H2  UNL     1      -7.541   6.100  67.261  1.00  0.00     0.000 HD 
HETATM    3  C   UNL     1      -8.973   7.210  66.446  1.00  0.00    -0.155 A  
HETATM    4  H1  UNL     1      -9.024   5.480  67.660  1.00  0.00     0.000 HD 
HETATM    5  C   UNL     1      -8.248   7.895  65.444  1.00  0.00    -0.138 A  
HETATM    6  C   UNL     1      -8.625   9.165  65.001  1.00  0.00    -0.204 A  
HETATM    7 BR   UNL     1      -6.722   7.100  64.624  1.00  0.00    -0.047 Br 
HETATM    8  C   UNL     1      -9.718   9.786  65.590  1.00  0.00    -0.288 A  
HETATM    9  C   UNL     1     -10.411   9.167  66.624  1.00  0.00    -0.289 A  
HETATM   10 BR   UNL     1     -10.243  11.508  65.009  1.00  0.00    -0.346 Br 
HETATM   11  C   UNL     1     -10.039   7.885  67.083  1.00  0.00    -0.328 A  
ENDROOT
BRANCH  11  12
HETATM   12  C   UNL     1     -10.775   7.330  68.288  1.00  0.00    -0.123 C  
BRANCH  12  13
HETATM   13  N   UNL     1     -10.267   7.875  69.557  1.00  0.00    -0.204 NA 
HETATM   14  H   UNL     1      -9.832   8.787  69.422  1.00  0.00     0.000 HD 
BRANCH  13  15
HETATM   15  C   UNL     1     -11.320   7.929  70.593  1.00  0.00    -0.259 C  
HETATM   16  C   UNL     1     -11.521   6.536  71.220  1.00  0.00    -0.371 C  
HETATM   17  C   UNL     1     -10.336   6.078  72.077  1.00  0.00    -0.241 C  
HETATM   18  C   UNL     1      -9.914   7.127  73.109  1.00  0.00    -0.228 C  
HETATM   19  C   UNL     1      -9.741   8.513  72.492  1.00  0.00    -0.326 C  
HETATM   20  O   UNL     1     -10.909   7.214  74.130  1.00  0.00    -0.532 OA 
HETATM   21  C   UNL     1     -10.989   8.933  71.710  1.00  0.00    -0.431 C  
HETATM   22  H   UNL     1     -10.648   7.865  74.771  1.00  0.00     0.000 HD 
ENDBRANCH  13  15
ENDBRANCH  12  13
ENDBRANCH  11  12
TORSDOF 3
ENDMDL
MODEL      161
REMARK 921   NORMALIZED FREE ENERGY PREDICTED BY IDOCK:   -3.65 KCAL/MOL
REMARK 922        TOTAL FREE ENERGY PREDICTED BY IDOCK:   -4.96 KCAL/MOL
REMARK 923 INTER-LIGAND FREE ENERGY PREDICTED BY IDOCK:   -4.62 KCAL/MOL
REMARK 924 INTRA-LIGAND FREE ENERGY PREDICTED BY IDOCK:   -0.34 KCAL/MOL
REMARK 927      BINDING AFFINITY PREDICTED BY RF-SCORE:    0.00 PKD
ROOT
HETATM    1  N   UNL     1      -8.498  13.104  68.604  1.00  0.00    -0.353 NA 
HETATM    2  H2  UNL     1      -9.175  13.429  69.294  1.00  0.00     0.000 HD 
HETATM    3  C   UNL     1      -9.165  12.928  67.372  1.00  0.00    -0.197 A  
HETATM    4  H1  UNL     1      -7.967  12.333  69.010  1.00  0.00     0.000 HD 
HETATM    5  C   UNL     1      -9.902  13.995  66.810  1.00  0.00    -0.273 A  
HETATM    6  C   UNL     1     -10.657  13.836  65.646  1.00  0.00    -0.302 A  
HETATM    7 BR   UNL     1      -9.879  15.727  67.606  1.00  0.00    -0.234 Br 
HETATM    8  C   UNL     1     -10.717  12.584  65.049  1.00  0.00    -0.294 A  
HETATM    9  C   UNL     1     -10.059  11.498  65.615  1.00  0.00    -0.278 A  
HETATM   10 BR   UNL     1     -11.738  12.344  63.475  1.00  0.00    -0.596 Br 
HETATM   11  C   UNL     1      -9.294  11.645  66.793  1.00  0.00    -0.193 A  
ENDROOT
BRANCH  11  12
HETATM   12  C   UNL     1      -8.701  10.390  67.406  1.00  0.00    -0.125 C  
BRANCH  12  13
HETATM   13  N   UNL     1      -9.629   9.249  67.358  1.00  0.00    -0.145 NA 
HETATM   14  H   UNL     1     -10.162   9.240  66.489  1.00  0.00     0.000 HD 
BRANCH  13  15
HETATM   15  C   UNL     1      -8.932   7.964  67.576  1.00  0.00    -0.127 C  
HETATM   16  C   UNL     1      -8.952   7.596  69.073  1.00  0.00    -0.137 C  
HETATM   17  C   UNL     1     -10.346   7.228  69.590  1.00  0.00    -0.227 C  
HETATM   18  C   UNL     1     -11.038   6.175  68.721  1.00  0.00    -0.319 C  
HETATM   19  C   UNL     1     -10.995   6.526  67.235  1.00  0.00    -0.475 C  
HETATM   20  O   UNL     1     -10.392   4.913  68.900  1.00  0.00    -0.129 OA 
HETATM   21  C   UNL     1      -9.564   6.814  66.775  1.00  0.00    -0.210 C  
HETATM   22  H   UNL     1     -10.821   4.259  68.361  1.00  0.00     0.000 HD 
ENDBRANCH  13  15
ENDBRANCH  12  13
ENDBRANCH  11  12
TORSDOF 3
ENDMDL
MODEL      162
REMARK 921   NORMALIZED FREE ENERGY PREDICTED BY IDOCK:   -3.61 KCAL/MOL
REMARK 922        TOTAL FREE ENERGY PREDICTED BY IDOCK:   -4.91 KCAL/MOL
REMARK 923 INTER-LIGAND FREE ENERGY PREDICTED BY IDOCK:   -4.30 KCAL/MOL
REMARK 924 INTRA-LIGAND FREE ENERGY PREDICTED BY IDOCK:   -0.61 KCAL/MOL
REMARK 927      BINDING AFFINITY PREDICTED BY RF-SCORE:    0.00 PKD
ROOT
HETATM    1  N   UNL     1      -9.464  13.504  65.499  1.00  0.00    -0.491 NA 
HETATM    2  H2  UNL     1     -10.032  14.337  65.650  1.00  0.00     0.000 HD 
HETATM    3  C   UNL     1      -9.753  12.574  66.522  1.00  0.00    -0.246 A  
HETATM    4  H1  UNL     1      -8.500  13.795  65.335  1.00  0.00     0.000 HD 
HETATM    5  C   UNL     1     -11.089  12.171  66.750  1.00  0.00    -0.300 A  
HETATM    6  C   UNL     1     -11.433  11.332  67.813  1.00  0.00    -0.350 A  
HETATM    7 BR   UNL     1     -12.494  12.737  65.594  1.00  0.00    -0.177 Br 
HETATM    8  C   UNL     1     -10.441  10.916  68.690  1.00  0.00    -0.194 A  
HETATM    9  C   UNL     1      -9.129  11.350  68.532  1.00  0.00    -0.169 A  
HETATM   10 BR   UNL     1     -10.884   9.783  70.138  1.00  0.00    -0.367 Br 
HETATM   11  C   UNL     1      -8.769  12.201  67.464  1.00  0.00    -0.173 A  
ENDROOT
BRANCH  11  12
HETATM   12  C   UNL     1      -7.342  12.717  67.428  1.00  0.00    -0.140 C  
BRANCH  12  13
HETATM   13  N   UNL     1      -7.269  14.141  67.064  1.00  0.00    -0.340 NA 
HETATM   14  H   UNL     1      -8.008  14.394  66.407  1.00  0.00     0.000 HD 
BRANCH  13  15
HETATM   15  C   UNL     1      -7.286  15.015  68.256  1.00  0.00    -0.111 C  
HETATM   16  C   UNL     1      -6.210  16.111  68.125  1.00  0.00    -0.124 C  
HETATM   17  C   UNL     1      -6.525  17.145  67.039  1.00  0.00    -0.225 C  
HETATM   18  C   UNL     1      -7.936  17.724  67.167  1.00  0.00    -0.212 C  
HETATM   19  C   UNL     1      -8.999  16.638  67.323  1.00  0.00    -0.211 C  
HETATM   20  O   UNL     1      -7.997  18.576  68.312  1.00  0.00    -0.285 OA 
HETATM   21  C   UNL     1      -8.654  15.685  68.469  1.00  0.00    -0.180 C  
HETATM   22  H   UNL     1      -8.873  18.936  68.391  1.00  0.00     0.000 HD 
ENDBRANCH  13  15
ENDBRANCH  12  13
ENDBRANCH  11  12
TORSDOF 3
ENDMDL
MODEL      163
REMARK 921   NORMALIZED FREE ENERGY PREDICTED BY IDOCK:   -3.60 KCAL/MOL
REMARK 922        TOTAL FREE ENERGY PREDICTED BY IDOCK:   -4.89 KCAL/MOL
REMARK 923 INTER-LIGAND FREE ENERGY PREDICTED BY IDOCK:   -4.68 KCAL/MOL
REMARK 924 INTRA-LIGAND FREE ENERGY PREDICTED BY IDOCK:   -0.21 KCAL/MOL
REMARK 927      BINDING AFFINITY PREDICTED BY RF-SCORE:    0.00 PKD
ROOT
HETATM    1  N   UNL     1      -8.296   5.969  71.886  1.00  0.00    -0.115 NA 
HETATM    2  H2  UNL     1      -8.728   5.125  71.509  1.00  0.00     0.000 HD 
HETATM    3  C   UNL     1      -9.259   7.002  71.884  1.00  0.00    -0.140 A  
HETATM    4  H1  UNL     1      -7.399   6.109  71.421  1.00  0.00     0.000 HD 
HETATM    5  C   UNL     1     -10.503   6.809  72.527  1.00  0.00    -0.209 A  
HETATM    6  C   UNL     1     -11.520   7.764  72.465  1.00  0.00    -0.428 A  
HETATM    7 BR   UNL     1     -10.846   5.231  73.541  1.00  0.00    -0.352 Br 
HETATM    8  C   UNL     1     -11.316   8.916  71.719  1.00  0.00    -0.361 A  
HETATM    9  C   UNL     1     -10.129   9.105  71.019  1.00  0.00    -0.373 A  
HETATM   10 BR   UNL     1     -12.681  10.221  71.617  1.00  0.00    -0.561 Br 
HETATM   11  C   UNL     1      -9.094   8.146  71.071  1.00  0.00    -0.176 A  
ENDROOT
BRANCH  11  12
HETATM   12  C   UNL     1      -7.880   8.376  70.191  1.00  0.00    -0.102 C  
BRANCH  12  13
HETATM   13  N   UNL     1      -8.237   8.928  68.874  1.00  0.00    -0.116 NA 
HETATM   14  H   UNL     1      -7.738   9.798  68.689  1.00  0.00     0.000 HD 
BRANCH  13  15
HETATM   15  C   UNL     1      -8.024   7.945  67.790  1.00  0.00    -0.124 C  
HETATM   16  C   UNL     1      -8.443   6.538  68.260  1.00  0.00    -0.116 C  
HETATM   17  C   UNL     1      -9.955   6.388  68.457  1.00  0.00    -0.155 C  
HETATM   18  C   UNL     1     -10.757   6.860  67.242  1.00  0.00    -0.351 C  
HETATM   19  C   UNL     1     -10.324   8.243  66.760  1.00  0.00    -0.361 C  
HETATM   20  O   UNL     1     -10.578   5.937  66.167  1.00  0.00    -0.466 OA 
HETATM   21  C   UNL     1      -8.813   8.298  66.519  1.00  0.00    -0.175 C  
HETATM   22  H   UNL     1     -11.076   6.229  65.412  1.00  0.00     0.000 HD 
ENDBRANCH  13  15
ENDBRANCH  12  13
ENDBRANCH  11  12
TORSDOF 3
ENDMDL
MODEL      164
REMARK 921   NORMALIZED FREE ENERGY PREDICTED BY IDOCK:   -3.58 KCAL/MOL
REMARK 922        TOTAL FREE ENERGY PREDICTED BY IDOCK:   -4.87 KCAL/MOL
REMARK 923 INTER-LIGAND FREE ENERGY PREDICTED BY IDOCK:   -4.21 KCAL/MOL
REMARK 924 INTRA-LIGAND FREE ENERGY PREDICTED BY IDOCK:   -0.66 KCAL/MOL
REMARK 927      BINDING AFFINITY PREDICTED BY RF-SCORE:    0.00 PKD
ROOT
HETATM    1  N   UNL     1      -9.205   9.092  68.142  1.00  0.00    -0.132 NA 
HETATM    2  H2  UNL     1      -8.601   9.853  67.828  1.00  0.00     0.000 HD 
HETATM    3  C   UNL     1     -10.183   9.627  69.008  1.00  0.00    -0.199 A  
HETATM    4  H1  UNL     1      -8.616   8.320  68.454  1.00  0.00     0.000 HD 
HETATM    5  C   UNL     1     -10.999  10.698  68.576  1.00  0.00    -0.248 A  
HETATM    6  C   UNL     1     -11.909  11.322  69.433  1.00  0.00    -0.424 A  
HETATM    7 BR   UNL     1     -10.913  11.332  66.781  1.00  0.00    -0.317 Br 
HETATM    8  C   UNL     1     -11.986  10.903  70.754  1.00  0.00    -0.346 A  
HETATM    9  C   UNL     1     -11.149   9.898  71.227  1.00  0.00    -0.302 A  
HETATM   10 BR   UNL     1     -13.208  11.736  71.932  1.00  0.00    -0.306 Br 
HETATM   11  C   UNL     1     -10.223   9.261  70.373  1.00  0.00    -0.284 A  
ENDROOT
BRANCH  11  12
HETATM   12  C   UNL     1      -9.272   8.254  70.994  1.00  0.00    -0.158 C  
BRANCH  12  13
HETATM   13  N   UNL     1      -9.148   7.029  70.189  1.00  0.00    -0.149 NA 
HETATM   14  H   UNL     1      -8.266   6.551  70.374  1.00  0.00     0.000 HD 
BRANCH  13  15
HETATM   15  C   UNL     1     -10.301   6.124  70.384  1.00  0.00    -0.213 C  
HETATM   16  C   UNL     1     -10.073   4.802  69.624  1.00  0.00    -0.275 C  
HETATM   17  C   UNL     1      -8.959   3.939  70.226  1.00  0.00    -0.163 C  
HETATM   18  C   UNL     1      -9.128   3.725  71.732  1.00  0.00    -0.111 C  
HETATM   19  C   UNL     1      -9.380   5.032  72.481  1.00  0.00    -0.150 C  
HETATM   20  O   UNL     1     -10.236   2.855  71.966  1.00  0.00    -0.146 OA 
HETATM   21  C   UNL     1     -10.549   5.806  71.868  1.00  0.00    -0.285 C  
HETATM   22  H   UNL     1     -10.341   2.722  72.901  1.00  0.00     0.000 HD 
ENDBRANCH  13  15
ENDBRANCH  12  13
ENDBRANCH  11  12
TORSDOF 3
ENDMDL
MODEL      165
REMARK 921   NORMALIZED FREE ENERGY PREDICTED BY IDOCK:   -3.57 KCAL/MOL
REMARK 922        TOTAL FREE ENERGY PREDICTED BY IDOCK:   -4.86 KCAL/MOL
REMARK 923 INTER-LIGAND FREE ENERGY PREDICTED BY IDOCK:   -4.84 KCAL/MOL
REMARK 924 INTRA-LIGAND FREE ENERGY PREDICTED BY IDOCK:   -0.02 KCAL/MOL
REMARK 927      BINDING AFFINITY PREDICTED BY RF-SCORE:    0.00 PKD
ROOT
HETATM    1  N   UNL     1     -11.845  14.334  70.995  1.00  0.00    -0.481 NA 
HETATM    2  H2  UNL     1     -11.086  13.903  71.523  1.00  0.00     0.000 HD 
HETATM    3  C   UNL     1     -11.863  13.771  69.700  1.00  0.00    -0.333 A  
HETATM    4  H1  UNL     1     -11.785  15.346  71.109  1.00  0.00     0.000 HD 
HETATM    5  C   UNL     1     -11.945  12.369  69.541  1.00  0.00    -0.261 A  
HETATM    6  C   UNL     1     -11.866  11.764  68.285  1.00  0.00    -0.340 A  
HETATM    7 BR   UNL     1     -12.197  11.227  71.046  1.00  0.00    -0.357 Br 
HETATM    8  C   UNL     1     -11.661  12.561  67.166  1.00  0.00    -0.355 A  
HETATM    9  C   UNL     1     -11.508  13.937  67.297  1.00  0.00    -0.369 A  
HETATM   10 BR   UNL     1     -11.546  11.764  65.455  1.00  0.00    -0.082 Br 
HETATM   11  C   UNL     1     -11.583  14.560  68.561  1.00  0.00    -0.344 A  
ENDROOT
BRANCH  11  12
HETATM   12  C   UNL     1     -11.295  16.048  68.629  1.00  0.00    -0.383 C  
BRANCH  12  13
HETATM   13  N   UNL     1     -10.940  16.612  67.316  1.00  0.00    -0.145 NA 
HETATM   14  H   UNL     1     -11.691  17.196  66.948  1.00  0.00     0.000 HD 
BRANCH  13  15
HETATM   15  C   UNL     1      -9.659  17.348  67.362  1.00  0.00    -0.257 C  
HETATM   16  C   UNL     1      -8.951  17.099  68.708  1.00  0.00    -0.233 C  
HETATM   17  C   UNL     1      -8.434  15.665  68.866  1.00  0.00    -0.213 C  
HETATM   18  C   UNL     1      -7.595  15.206  67.671  1.00  0.00    -0.174 C  
HETATM   19  C   UNL     1      -8.285  15.478  66.336  1.00  0.00    -0.055 C  
HETATM   20  O   UNL     1      -6.345  15.897  67.675  1.00  0.00    -0.138 OA 
HETATM   21  C   UNL     1      -8.712  16.943  66.220  1.00  0.00    -0.321 C  
HETATM   22  H   UNL     1      -5.824  15.613  66.933  1.00  0.00     0.000 HD 
ENDBRANCH  13  15
ENDBRANCH  12  13
ENDBRANCH  11  12
TORSDOF 3
ENDMDL
MODEL      166
REMARK 921   NORMALIZED FREE ENERGY PREDICTED BY IDOCK:   -3.55 KCAL/MOL
REMARK 922        TOTAL FREE ENERGY PREDICTED BY IDOCK:   -4.83 KCAL/MOL
REMARK 923 INTER-LIGAND FREE ENERGY PREDICTED BY IDOCK:   -4.29 KCAL/MOL
REMARK 924 INTRA-LIGAND FREE ENERGY PREDICTED BY IDOCK:   -0.54 KCAL/MOL
REMARK 927      BINDING AFFINITY PREDICTED BY RF-SCORE:    0.00 PKD
ROOT
HETATM    1  N   UNL     1     -10.529  11.024  64.375  1.00  0.00    -0.354 NA 
HETATM    2  H2  UNL     1     -10.372  11.505  63.490  1.00  0.00     0.000 HD 
HETATM    3  C   UNL     1     -10.167  11.894  65.427  1.00  0.00    -0.263 A  
HETATM    4  H1  UNL     1     -10.112  10.095  64.317  1.00  0.00     0.000 HD 
HETATM    5  C   UNL     1     -10.745  13.182  65.508  1.00  0.00    -0.283 A  
HETATM    6  C   UNL     1     -10.343  14.110  66.471  1.00  0.00    -0.284 A  
HETATM    7 BR   UNL     1     -12.130  13.710  64.310  1.00  0.00    -0.469 Br 
HETATM    8  C   UNL     1      -9.321  13.770  67.347  1.00  0.00    -0.226 A  
HETATM    9  C   UNL     1      -8.687  12.537  67.250  1.00  0.00    -0.193 A  
HETATM   10 BR   UNL     1      -8.757  15.012  68.657  1.00  0.00    -0.183 Br 
HETATM   11  C   UNL     1      -9.081  11.591  66.279  1.00  0.00    -0.215 A  
ENDROOT
BRANCH  11  12
HETATM   12  C   UNL     1      -8.265  10.316  66.168  1.00  0.00    -0.138 C  
BRANCH  12  13
HETATM   13  N   UNL     1      -8.163   9.601  67.450  1.00  0.00    -0.114 NA 
HETATM   14  H   UNL     1      -8.303  10.233  68.239  1.00  0.00     0.000 HD 
BRANCH  13  15
HETATM   15  C   UNL     1      -9.087   8.449  67.512  1.00  0.00    -0.134 C  
HETATM   16  C   UNL     1      -8.762   7.574  68.738  1.00  0.00    -0.128 C  
HETATM   17  C   UNL     1      -9.097   8.249  70.073  1.00  0.00    -0.150 C  
HETATM   18  C   UNL     1     -10.523   8.802  70.112  1.00  0.00    -0.213 C  
HETATM   19  C   UNL     1     -10.853   9.648  68.883  1.00  0.00    -0.201 C  
HETATM   20  O   UNL     1     -11.452   7.719  70.170  1.00  0.00    -0.453 OA 
HETATM   21  C   UNL     1     -10.559   8.885  67.590  1.00  0.00    -0.292 C  
HETATM   22  H   UNL     1     -12.337   8.062  70.194  1.00  0.00     0.000 HD 
ENDBRANCH  13  15
ENDBRANCH  12  13
ENDBRANCH  11  12
TORSDOF 3
ENDMDL
MODEL      167
REMARK 921   NORMALIZED FREE ENERGY PREDICTED BY IDOCK:   -3.54 KCAL/MOL
REMARK 922        TOTAL FREE ENERGY PREDICTED BY IDOCK:   -4.82 KCAL/MOL
REMARK 923 INTER-LIGAND FREE ENERGY PREDICTED BY IDOCK:   -4.26 KCAL/MOL
REMARK 924 INTRA-LIGAND FREE ENERGY PREDICTED BY IDOCK:   -0.56 KCAL/MOL
REMARK 927      BINDING AFFINITY PREDICTED BY RF-SCORE:    0.00 PKD
ROOT
HETATM    1  N   UNL     1      -7.463   7.914  67.663  1.00  0.00    -0.095 NA 
HETATM    2  H2  UNL     1      -8.032   7.716  66.840  1.00  0.00     0.000 HD 
HETATM    3  C   UNL     1      -8.285   7.825  68.808  1.00  0.00    -0.128 A  
HETATM    4  H1  UNL     1      -6.926   8.764  67.487  1.00  0.00     0.000 HD 
HETATM    5  C   UNL     1      -9.029   6.648  69.051  1.00  0.00    -0.130 A  
HETATM    6  C   UNL     1      -9.930   6.554  70.115  1.00  0.00    -0.190 A  
HETATM    7 BR   UNL     1      -8.820   5.110  67.945  1.00  0.00    -0.108 Br 
HETATM    8  C   UNL     1     -10.127   7.660  70.930  1.00  0.00    -0.191 A  
HETATM    9  C   UNL     1      -9.460   8.853  70.676  1.00  0.00    -0.259 A  
HETATM   10 BR   UNL     1     -11.345   7.557  72.373  1.00  0.00    -0.387 Br 
HETATM   11  C   UNL     1      -8.549   8.963  69.602  1.00  0.00    -0.131 A  
ENDROOT
BRANCH  11  12
HETATM   12  C   UNL     1      -7.950  10.330  69.327  1.00  0.00    -0.149 C  
BRANCH  12  13
HETATM   13  N   UNL     1      -8.961  11.309  68.895  1.00  0.00    -0.354 NA 
HETATM   14  H   UNL     1      -8.627  12.265  69.019  1.00  0.00     0.000 HD 
BRANCH  13  15
HETATM   15  C   UNL     1      -9.400  11.069  67.504  1.00  0.00    -0.159 C  
HETATM   16  C   UNL     1     -10.825  10.481  67.492  1.00  0.00    -0.357 C  
HETATM   17  C   UNL     1     -11.899  11.480  67.936  1.00  0.00    -0.255 C  
HETATM   18  C   UNL     1     -11.810  12.812  67.188  1.00  0.00    -0.350 C  
HETATM   19  C   UNL     1     -10.393  13.381  67.177  1.00  0.00    -0.246 C  
HETATM   20  O   UNL     1     -12.225  12.624  65.834  1.00  0.00    -0.548 OA 
HETATM   21  C   UNL     1      -9.386  12.352  66.658  1.00  0.00    -0.227 C  
HETATM   22  H   UNL     1     -12.171  13.450  65.369  1.00  0.00     0.000 HD 
ENDBRANCH  13  15
ENDBRANCH  12  13
ENDBRANCH  11  12
TORSDOF 3
ENDMDL
MODEL      168
REMARK 921   NORMALIZED FREE ENERGY PREDICTED BY IDOCK:   -3.50 KCAL/MOL
REMARK 922        TOTAL FREE ENERGY PREDICTED BY IDOCK:   -4.77 KCAL/MOL
REMARK 923 INTER-LIGAND FREE ENERGY PREDICTED BY IDOCK:   -4.15 KCAL/MOL
REMARK 924 INTRA-LIGAND FREE ENERGY PREDICTED BY IDOCK:   -0.62 KCAL/MOL
REMARK 927      BINDING AFFINITY PREDICTED BY RF-SCORE:    0.00 PKD
ROOT
HETATM    1  N   UNL     1     -11.639   4.547  64.752  1.00  0.00    -0.946 NA 
HETATM    2  H2  UNL     1     -12.241   3.748  64.951  1.00  0.00     0.000 HD 
HETATM    3  C   UNL     1     -10.297   4.161  64.960  1.00  0.00    -0.192 A  
HETATM    4  H1  UNL     1     -12.015   5.363  65.236  1.00  0.00     0.000 HD 
HETATM    5  C   UNL     1      -9.777   3.030  64.289  1.00  0.00    -0.154 A  
HETATM    6  C   UNL     1      -8.488   2.554  64.540  1.00  0.00    -0.088 A  
HETATM    7 BR   UNL     1     -10.809   2.109  62.978  1.00  0.00    -0.239 Br 
HETATM    8  C   UNL     1      -7.713   3.185  65.504  1.00  0.00    -0.081 A  
HETATM    9  C   UNL     1      -8.221   4.257  66.229  1.00  0.00    -0.102 A  
HETATM   10 BR   UNL     1      -5.968   2.554  65.864  1.00  0.00    -0.023 Br 
HETATM   11  C   UNL     1      -9.524   4.747  65.987  1.00  0.00    -0.168 A  
ENDROOT
BRANCH  11  12
HETATM   12  C   UNL     1     -10.041   5.845  66.897  1.00  0.00    -0.188 C  
BRANCH  12  13
HETATM   13  N   UNL     1     -10.093   7.153  66.224  1.00  0.00    -0.451 NA 
HETATM   14  H   UNL     1     -11.053   7.490  66.142  1.00  0.00     0.000 HD 
BRANCH  13  15
HETATM   15  C   UNL     1      -9.228   8.149  66.891  1.00  0.00    -0.160 C  
HETATM   16  C   UNL     1      -7.945   8.375  66.067  1.00  0.00    -0.101 C  
HETATM   17  C   UNL     1      -8.195   9.095  64.738  1.00  0.00    -0.150 C  
HETATM   18  C   UNL     1      -9.013  10.377  64.906  1.00  0.00    -0.199 C  
HETATM   19  C   UNL     1     -10.271  10.159  65.746  1.00  0.00    -0.283 C  
HETATM   20  O   UNL     1      -8.213  11.369  65.552  1.00  0.00    -0.368 OA 
HETATM   21  C   UNL     1      -9.937   9.500  67.086  1.00  0.00    -0.261 C  
HETATM   22  H   UNL     1      -8.721  12.165  65.656  1.00  0.00     0.000 HD 
ENDBRANCH  13  15
ENDBRANCH  12  13
ENDBRANCH  11  12
TORSDOF 3
ENDMDL
MODEL      169
REMARK 921   NORMALIZED FREE ENERGY PREDICTED BY IDOCK:   -3.49 KCAL/MOL
REMARK 922        TOTAL FREE ENERGY PREDICTED BY IDOCK:   -4.77 KCAL/MOL
REMARK 923 INTER-LIGAND FREE ENERGY PREDICTED BY IDOCK:   -4.19 KCAL/MOL
REMARK 924 INTRA-LIGAND FREE ENERGY PREDICTED BY IDOCK:   -0.58 KCAL/MOL
REMARK 927      BINDING AFFINITY PREDICTED BY RF-SCORE:    0.00 PKD
ROOT
HETATM    1  N   UNL     1     -11.140   9.958  68.323  1.00  0.00    -0.478 NA 
HETATM    2  H2  UNL     1     -12.131  10.146  68.171  1.00  0.00     0.000 HD 
HETATM    3  C   UNL     1     -10.473  10.051  67.082  1.00  0.00    -0.244 A  
HETATM    4  H1  UNL     1     -11.054   9.111  68.884  1.00  0.00     0.000 HD 
HETATM    5  C   UNL     1     -10.592  11.225  66.303  1.00  0.00    -0.263 A  
HETATM    6  C   UNL     1     -10.032  11.322  65.027  1.00  0.00    -0.323 A  
HETATM    7 BR   UNL     1     -11.510  12.755  66.973  1.00  0.00    -0.423 Br 
HETATM    8  C   UNL     1      -9.375  10.221  64.495  1.00  0.00    -0.276 A  
HETATM    9  C   UNL     1      -9.298   9.030  65.209  1.00  0.00    -0.158 A  
HETATM   10 BR   UNL     1      -8.613  10.328  62.768  1.00  0.00    -0.229 Br 
HETATM   11  C   UNL     1      -9.863   8.918  66.498  1.00  0.00    -0.344 A  
ENDROOT
BRANCH  11  12
HETATM   12  C   UNL     1      -9.834   7.553  67.161  1.00  0.00    -0.201 C  
BRANCH  12  13
HETATM   13  N   UNL     1     -10.174   6.468  66.227  1.00  0.00    -0.423 NA 
HETATM   14  H   UNL     1      -9.990   6.739  65.261  1.00  0.00     0.000 HD 
BRANCH  13  15
HETATM   15  C   UNL     1      -9.482   5.208  66.573  1.00  0.00    -0.148 C  
HETATM   16  C   UNL     1      -9.860   4.102  65.568  1.00  0.00    -0.210 C  
HETATM   17  C   UNL     1      -9.289   4.335  64.165  1.00  0.00    -0.145 C  
HETATM   18  C   UNL     1      -7.786   4.622  64.180  1.00  0.00    -0.087 C  
HETATM   19  C   UNL     1      -7.410   5.700  65.195  1.00  0.00    -0.075 C  
HETATM   20  O   UNL     1      -7.078   3.428  64.514  1.00  0.00    -0.055 OA 
HETATM   21  C   UNL     1      -7.953   5.366  66.586  1.00  0.00    -0.105 C  
HETATM   22  H   UNL     1      -6.145   3.606  64.523  1.00  0.00     0.000 HD 
ENDBRANCH  13  15
ENDBRANCH  12  13
ENDBRANCH  11  12
TORSDOF 3
ENDMDL
MODEL      170
REMARK 921   NORMALIZED FREE ENERGY PREDICTED BY IDOCK:   -3.49 KCAL/MOL
REMARK 922        TOTAL FREE ENERGY PREDICTED BY IDOCK:   -4.77 KCAL/MOL
REMARK 923 INTER-LIGAND FREE ENERGY PREDICTED BY IDOCK:   -4.06 KCAL/MOL
REMARK 924 INTRA-LIGAND FREE ENERGY PREDICTED BY IDOCK:   -0.70 KCAL/MOL
REMARK 927      BINDING AFFINITY PREDICTED BY RF-SCORE:    0.00 PKD
ROOT
HETATM    1  N   UNL     1     -11.884   6.651  69.832  1.00  0.00    -0.653 NA 
HETATM    2  H2  UNL     1     -12.668   7.159  70.241  1.00  0.00     0.000 HD 
HETATM    3  C   UNL     1     -10.771   7.518  69.771  1.00  0.00    -0.242 A  
HETATM    4  H1  UNL     1     -12.209   6.180  68.987  1.00  0.00     0.000 HD 
HETATM    5  C   UNL     1     -10.320   8.170  70.942  1.00  0.00    -0.190 A  
HETATM    6  C   UNL     1      -9.288   9.110  70.910  1.00  0.00    -0.335 A  
HETATM    7 BR   UNL     1     -11.090   7.775  72.640  1.00  0.00    -0.460 Br 
HETATM    8  C   UNL     1      -8.717   9.441  69.689  1.00  0.00    -0.167 A  
HETATM    9  C   UNL     1      -9.184   8.867  68.511  1.00  0.00    -0.137 A  
HETATM   10 BR   UNL     1      -7.321  10.715  69.620  1.00  0.00    -0.098 Br 
HETATM   11  C   UNL     1     -10.228   7.917  68.529  1.00  0.00    -0.229 A  
ENDROOT
BRANCH  11  12
HETATM   12  C   UNL     1     -10.752   7.425  67.193  1.00  0.00    -0.330 C  
BRANCH  12  13
HETATM   13  N   UNL     1     -10.526   5.984  66.998  1.00  0.00    -0.236 NA 
HETATM   14  H   UNL     1     -11.129   5.609  66.266  1.00  0.00     0.000 HD 
BRANCH  13  15
HETATM   15  C   UNL     1      -9.104   5.682  66.730  1.00  0.00    -0.120 C  
HETATM   16  C   UNL     1      -8.595   4.606  67.709  1.00  0.00    -0.105 C  
HETATM   17  C   UNL     1      -9.207   3.222  67.462  1.00  0.00    -0.233 C  
HETATM   18  C   UNL     1      -9.096   2.781  66.000  1.00  0.00    -0.119 C  
HETATM   19  C   UNL     1      -9.575   3.859  65.030  1.00  0.00    -0.181 C  
HETATM   20  O   UNL     1      -7.733   2.481  65.696  1.00  0.00    -0.075 OA 
HETATM   21  C   UNL     1      -8.873   5.193  65.291  1.00  0.00    -0.152 C  
HETATM   22  H   UNL     1      -7.665   2.208  64.790  1.00  0.00     0.000 HD 
ENDBRANCH  13  15
ENDBRANCH  12  13
ENDBRANCH  11  12
TORSDOF 3
ENDMDL
MODEL      171
REMARK 921   NORMALIZED FREE ENERGY PREDICTED BY IDOCK:   -3.48 KCAL/MOL
REMARK 922        TOTAL FREE ENERGY PREDICTED BY IDOCK:   -4.75 KCAL/MOL
REMARK 923 INTER-LIGAND FREE ENERGY PREDICTED BY IDOCK:   -4.18 KCAL/MOL
REMARK 924 INTRA-LIGAND FREE ENERGY PREDICTED BY IDOCK:   -0.57 KCAL/MOL
REMARK 927      BINDING AFFINITY PREDICTED BY RF-SCORE:    0.00 PKD
ROOT
HETATM    1  N   UNL     1     -11.196   9.014  68.951  1.00  0.00    -0.409 NA 
HETATM    2  H2  UNL     1     -11.988   9.478  69.396  1.00  0.00     0.000 HD 
HETATM    3  C   UNL     1     -10.286   8.621  69.957  1.00  0.00    -0.194 A  
HETATM    4  H1  UNL     1     -10.876   9.594  68.174  1.00  0.00     0.000 HD 
HETATM    5  C   UNL     1     -10.728   7.819  71.033  1.00  0.00    -0.228 A  
HETATM    6  C   UNL     1      -9.888   7.490  72.100  1.00  0.00    -0.209 A  
HETATM    7 BR   UNL     1     -12.501   7.120  71.070  1.00  0.00    -0.301 Br 
HETATM    8  C   UNL     1      -8.596   7.998  72.121  1.00  0.00    -0.155 A  
HETATM    9  C   UNL     1      -8.153   8.845  71.111  1.00  0.00    -0.201 A  
HETATM   10 BR   UNL     1      -7.443   7.570  73.557  1.00  0.00    -0.136 Br 
HETATM   11  C   UNL     1      -8.993   9.188  70.029  1.00  0.00    -0.201 A  
ENDROOT
BRANCH  11  12
HETATM   12  C   UNL     1      -8.472  10.204  69.030  1.00  0.00    -0.151 C  
BRANCH  12  13
HETATM   13  N   UNL     1      -8.593   9.738  67.639  1.00  0.00    -0.125 NA 
HETATM   14  H   UNL     1      -9.551   9.463  67.422  1.00  0.00     0.000 HD 
BRANCH  13  15
HETATM   15  C   UNL     1      -8.090  10.742  66.678  1.00  0.00    -0.142 C  
HETATM   16  C   UNL     1      -7.807  10.077  65.316  1.00  0.00    -0.138 C  
HETATM   17  C   UNL     1      -9.076   9.628  64.584  1.00  0.00    -0.286 C  
HETATM   18  C   UNL     1     -10.125  10.738  64.485  1.00  0.00    -0.350 C  
HETATM   19  C   UNL     1     -10.384  11.414  65.830  1.00  0.00    -0.304 C  
HETATM   20  O   UNL     1      -9.676  11.734  63.565  1.00  0.00    -0.437 OA 
HETATM   21  C   UNL     1      -9.081  11.898  66.469  1.00  0.00    -0.211 C  
HETATM   22  H   UNL     1     -10.327  12.423  63.503  1.00  0.00     0.000 HD 
ENDBRANCH  13  15
ENDBRANCH  12  13
ENDBRANCH  11  12
TORSDOF 3
ENDMDL
MODEL      172
REMARK 921   NORMALIZED FREE ENERGY PREDICTED BY IDOCK:   -3.47 KCAL/MOL
REMARK 922        TOTAL FREE ENERGY PREDICTED BY IDOCK:   -4.74 KCAL/MOL
REMARK 923 INTER-LIGAND FREE ENERGY PREDICTED BY IDOCK:   -4.02 KCAL/MOL
REMARK 924 INTRA-LIGAND FREE ENERGY PREDICTED BY IDOCK:   -0.72 KCAL/MOL
REMARK 927      BINDING AFFINITY PREDICTED BY RF-SCORE:    0.00 PKD
ROOT
HETATM    1  N   UNL     1      -8.382  11.196  67.332  1.00  0.00    -0.132 NA 
HETATM    2  H2  UNL     1      -7.895  12.014  67.696  1.00  0.00     0.000 HD 
HETATM    3  C   UNL     1      -9.490  10.928  68.165  1.00  0.00    -0.165 A  
HETATM    4  H1  UNL     1      -7.694  10.464  67.150  1.00  0.00     0.000 HD 
HETATM    5  C   UNL     1     -10.443  11.941  68.418  1.00  0.00    -0.217 A  
HETATM    6  C   UNL     1     -11.499  11.753  69.313  1.00  0.00    -0.369 A  
HETATM    7 BR   UNL     1     -10.347  13.621  67.522  1.00  0.00    -0.242 Br 
HETATM    8  C   UNL     1     -11.591  10.551  70.001  1.00  0.00    -0.313 A  
HETATM    9  C   UNL     1     -10.631   9.560  69.825  1.00  0.00    -0.257 A  
HETATM   10 BR   UNL     1     -13.009  10.274  71.221  1.00  0.00    -0.534 Br 
HETATM   11  C   UNL     1      -9.557   9.739  68.926  1.00  0.00    -0.167 A  
ENDROOT
BRANCH  11  12
HETATM   12  C   UNL     1      -8.495   8.657  68.877  1.00  0.00    -0.129 C  
BRANCH  12  13
HETATM   13  N   UNL     1      -8.502   7.921  67.602  1.00  0.00    -0.127 NA 
HETATM   14  H   UNL     1      -7.833   8.316  66.942  1.00  0.00     0.000 HD 
BRANCH  13  15
HETATM   15  C   UNL     1      -8.270   6.475  67.802  1.00  0.00    -0.115 C  
HETATM   16  C   UNL     1      -9.474   5.839  68.525  1.00  0.00    -0.141 C  
HETATM   17  C   UNL     1     -10.741   5.784  67.664  1.00  0.00    -0.313 C  
HETATM   18  C   UNL     1     -10.491   5.163  66.288  1.00  0.00    -0.289 C  
HETATM   19  C   UNL     1      -9.282   5.774  65.583  1.00  0.00    -0.038 C  
HETATM   20  O   UNL     1     -10.260   3.761  66.435  1.00  0.00    -0.369 OA 
HETATM   21  C   UNL     1      -8.039   5.732  66.476  1.00  0.00    -0.102 C  
HETATM   22  H   UNL     1     -10.105   3.374  65.581  1.00  0.00     0.000 HD 
ENDBRANCH  13  15
ENDBRANCH  12  13
ENDBRANCH  11  12
TORSDOF 3
ENDMDL
MODEL      173
REMARK 921   NORMALIZED FREE ENERGY PREDICTED BY IDOCK:   -3.47 KCAL/MOL
REMARK 922        TOTAL FREE ENERGY PREDICTED BY IDOCK:   -4.74 KCAL/MOL
REMARK 923 INTER-LIGAND FREE ENERGY PREDICTED BY IDOCK:   -4.26 KCAL/MOL
REMARK 924 INTRA-LIGAND FREE ENERGY PREDICTED BY IDOCK:   -0.47 KCAL/MOL
REMARK 927      BINDING AFFINITY PREDICTED BY RF-SCORE:    0.00 PKD
ROOT
HETATM    1  N   UNL     1      -8.700   5.002  70.309  1.00  0.00    -0.105 NA 
HETATM    2  H2  UNL     1      -7.759   5.395  70.274  1.00  0.00     0.000 HD 
HETATM    3  C   UNL     1      -9.114   4.716  68.990  1.00  0.00    -0.118 A  
HETATM    4  H1  UNL     1      -9.277   5.597  70.906  1.00  0.00     0.000 HD 
HETATM    5  C   UNL     1      -8.315   3.893  68.163  1.00  0.00    -0.091 A  
HETATM    6  C   UNL     1      -8.635   3.664  66.823  1.00  0.00    -0.110 A  
HETATM    7 BR   UNL     1      -6.763   3.027  68.851  1.00  0.00    -0.037 Br 
HETATM    8  C   UNL     1      -9.745   4.295  66.279  1.00  0.00    -0.213 A  
HETATM    9  C   UNL     1     -10.513   5.163  67.048  1.00  0.00    -0.256 A  
HETATM   10 BR   UNL     1     -10.195   4.004  64.466  1.00  0.00    -0.186 Br 
HETATM   11  C   UNL     1     -10.199   5.405  68.403  1.00  0.00    -0.229 A  
ENDROOT
BRANCH  11  12
HETATM   12  C   UNL     1     -11.018   6.450  69.138  1.00  0.00    -0.355 C  
BRANCH  12  13
HETATM   13  N   UNL     1     -11.147   7.701  68.374  1.00  0.00    -0.417 NA 
HETATM   14  H   UNL     1     -12.070   8.117  68.496  1.00  0.00     0.000 HD 
BRANCH  13  15
HETATM   15  C   UNL     1     -10.075   8.663  68.709  1.00  0.00    -0.196 C  
HETATM   16  C   UNL     1     -10.056   9.815  67.685  1.00  0.00    -0.236 C  
HETATM   17  C   UNL     1     -11.275  10.737  67.785  1.00  0.00    -0.385 C  
HETATM   18  C   UNL     1     -11.527  11.229  69.212  1.00  0.00    -0.301 C  
HETATM   19  C   UNL     1     -11.520  10.091  70.230  1.00  0.00    -0.372 C  
HETATM   20  O   UNL     1     -10.510  12.162  69.579  1.00  0.00    -0.406 OA 
HETATM   21  C   UNL     1     -10.243   9.255  70.118  1.00  0.00    -0.251 C  
HETATM   22  H   UNL     1     -10.666  12.468  70.465  1.00  0.00     0.000 HD 
ENDBRANCH  13  15
ENDBRANCH  12  13
ENDBRANCH  11  12
TORSDOF 3
ENDMDL
MODEL      174
REMARK 921   NORMALIZED FREE ENERGY PREDICTED BY IDOCK:   -3.45 KCAL/MOL
REMARK 922        TOTAL FREE ENERGY PREDICTED BY IDOCK:   -4.72 KCAL/MOL
REMARK 923 INTER-LIGAND FREE ENERGY PREDICTED BY IDOCK:   -4.16 KCAL/MOL
REMARK 924 INTRA-LIGAND FREE ENERGY PREDICTED BY IDOCK:   -0.56 KCAL/MOL
REMARK 927      BINDING AFFINITY PREDICTED BY RF-SCORE:    0.00 PKD
ROOT
HETATM    1  N   UNL     1      -9.652  16.001  69.572  1.00  0.00    -0.239 NA 
HETATM    2  H2  UNL     1      -9.370  16.798  69.003  1.00  0.00     0.000 HD 
HETATM    3  C   UNL     1      -8.978  14.853  69.101  1.00  0.00    -0.140 A  
HETATM    4  H1  UNL     1     -10.670  15.999  69.644  1.00  0.00     0.000 HD 
HETATM    5  C   UNL     1      -7.568  14.855  69.001  1.00  0.00    -0.151 A  
HETATM    6  C   UNL     1      -6.867  13.781  68.448  1.00  0.00    -0.101 A  
HETATM    7 BR   UNL     1      -6.543  16.327  69.647  1.00  0.00    -0.119 Br 
HETATM    8  C   UNL     1      -7.579  12.700  67.946  1.00  0.00    -0.132 A  
HETATM    9  C   UNL     1      -8.969  12.698  67.968  1.00  0.00    -0.200 A  
HETATM   10 BR   UNL     1      -6.652  11.237  67.188  1.00  0.00    -0.118 Br 
HETATM   11  C   UNL     1      -9.690  13.779  68.522  1.00  0.00    -0.193 A  
ENDROOT
BRANCH  11  12
HETATM   12  C   UNL     1     -11.202  13.748  68.405  1.00  0.00    -0.272 C  
BRANCH  12  13
HETATM   13  N   UNL     1     -11.656  13.134  67.146  1.00  0.00    -0.340 NA 
HETATM   14  H   UNL     1     -12.377  12.433  67.314  1.00  0.00     0.000 HD 
BRANCH  13  15
HETATM   15  C   UNL     1     -12.108  14.149  66.172  1.00  0.00    -0.435 C  
HETATM   16  C   UNL     1     -10.979  14.464  65.170  1.00  0.00    -0.380 C  
HETATM   17  C   UNL     1     -10.672  13.305  64.216  1.00  0.00    -0.408 C  
HETATM   18  C   UNL     1     -11.926  12.759  63.529  1.00  0.00    -0.555 C  
HETATM   19  C   UNL     1     -13.054  12.472  64.519  1.00  0.00    -0.044 C  
HETATM   20  O   UNL     1     -12.400  13.713  62.578  1.00  0.00    -0.632 OA 
HETATM   21  C   UNL     1     -13.352  13.695  65.390  1.00  0.00     0.303 C  
HETATM   22  H   UNL     1     -13.178  13.374  62.151  1.00  0.00     0.000 HD 
ENDBRANCH  13  15
ENDBRANCH  12  13
ENDBRANCH  11  12
TORSDOF 3
ENDMDL
MODEL      175
REMARK 921   NORMALIZED FREE ENERGY PREDICTED BY IDOCK:   -3.43 KCAL/MOL
REMARK 922        TOTAL FREE ENERGY PREDICTED BY IDOCK:   -4.70 KCAL/MOL
REMARK 923 INTER-LIGAND FREE ENERGY PREDICTED BY IDOCK:   -4.23 KCAL/MOL
REMARK 924 INTRA-LIGAND FREE ENERGY PREDICTED BY IDOCK:   -0.47 KCAL/MOL
REMARK 927      BINDING AFFINITY PREDICTED BY RF-SCORE:    0.00 PKD
ROOT
HETATM    1  N   UNL     1      -9.736  15.359  69.934  1.00  0.00    -0.438 NA 
HETATM    2  H2  UNL     1      -9.719  14.603  70.618  1.00  0.00     0.000 HD 
HETATM    3  C   UNL     1     -10.367  14.886  68.762  1.00  0.00    -0.245 A  
HETATM    4  H1  UNL     1      -8.803  15.767  69.880  1.00  0.00     0.000 HD 
HETATM    5  C   UNL     1     -11.660  14.320  68.837  1.00  0.00    -0.305 A  
HETATM    6  C   UNL     1     -12.280  13.751  67.722  1.00  0.00    -0.208 A  
HETATM    7 BR   UNL     1     -12.640  14.329  70.472  1.00  0.00    -0.404 Br 
HETATM    8  C   UNL     1     -11.590  13.706  66.518  1.00  0.00    -0.366 A  
HETATM    9  C   UNL     1     -10.291  14.193  66.429  1.00  0.00    -0.287 A  
HETATM   10 BR   UNL     1     -12.408  12.935  64.997  1.00  0.00    -0.555 Br 
HETATM   11  C   UNL     1      -9.652  14.768  67.549  1.00  0.00    -0.208 A  
ENDROOT
BRANCH  11  12
HETATM   12  C   UNL     1      -8.197  15.173  67.396  1.00  0.00    -0.193 C  
BRANCH  12  13
HETATM   13  N   UNL     1      -7.344  14.052  66.970  1.00  0.00    -0.332 NA 
HETATM   14  H   UNL     1      -6.429  14.380  66.660  1.00  0.00     0.000 HD 
BRANCH  13  15
HETATM   15  C   UNL     1      -7.218  13.025  68.026  1.00  0.00    -0.119 C  
HETATM   16  C   UNL     1      -8.030  11.771  67.646  1.00  0.00    -0.143 C  
HETATM   17  C   UNL     1      -7.438  11.001  66.461  1.00  0.00    -0.145 C  
HETATM   18  C   UNL     1      -5.948  10.701  66.637  1.00  0.00    -0.079 C  
HETATM   19  C   UNL     1      -5.149  11.938  67.040  1.00  0.00    -0.097 C  
HETATM   20  O   UNL     1      -5.780   9.711  67.654  1.00  0.00    -0.040 OA 
HETATM   21  C   UNL     1      -5.757  12.616  68.270  1.00  0.00    -0.062 C  
HETATM   22  H   UNL     1      -4.855   9.525  67.764  1.00  0.00     0.000 HD 
ENDBRANCH  13  15
ENDBRANCH  12  13
ENDBRANCH  11  12
TORSDOF 3
ENDMDL
MODEL      176
REMARK 921   NORMALIZED FREE ENERGY PREDICTED BY IDOCK:   -3.41 KCAL/MOL
REMARK 922        TOTAL FREE ENERGY PREDICTED BY IDOCK:   -4.67 KCAL/MOL
REMARK 923 INTER-LIGAND FREE ENERGY PREDICTED BY IDOCK:   -4.13 KCAL/MOL
REMARK 924 INTRA-LIGAND FREE ENERGY PREDICTED BY IDOCK:   -0.55 KCAL/MOL
REMARK 927      BINDING AFFINITY PREDICTED BY RF-SCORE:    0.00 PKD
ROOT
HETATM    1  N   UNL     1     -11.577   9.774  68.965  1.00  0.00    -0.455 NA 
HETATM    2  H2  UNL     1     -12.547   9.464  69.004  1.00  0.00     0.000 HD 
HETATM    3  C   UNL     1     -11.560  11.186  68.933  1.00  0.00    -0.317 A  
HETATM    4  H1  UNL     1     -11.097   9.243  68.237  1.00  0.00     0.000 HD 
HETATM    5  C   UNL     1     -12.225  11.922  69.940  1.00  0.00    -0.199 A  
HETATM    6  C   UNL     1     -12.318  13.315  69.894  1.00  0.00    -0.228 A  
HETATM    7 BR   UNL     1     -13.012  11.043  71.437  1.00  0.00    -0.464 Br 
HETATM    8  C   UNL     1     -11.776  13.990  68.809  1.00  0.00    -0.353 A  
HETATM    9  C   UNL     1     -11.175  13.289  67.769  1.00  0.00    -0.308 A  
HETATM   10 BR   UNL     1     -11.895  15.875  68.723  1.00  0.00    -0.138 Br 
HETATM   11  C   UNL     1     -11.077  11.881  67.802  1.00  0.00    -0.295 A  
ENDROOT
BRANCH  11  12
HETATM   12  C   UNL     1     -10.508  11.189  66.577  1.00  0.00    -0.255 C  
BRANCH  12  13
HETATM   13  N   UNL     1      -9.518  10.157  66.925  1.00  0.00    -0.165 NA 
HETATM   14  H   UNL     1      -9.649   9.824  67.881  1.00  0.00     0.000 HD 
BRANCH  13  15
HETATM   15  C   UNL     1      -9.529   9.037  65.960  1.00  0.00    -0.256 C  
HETATM   16  C   UNL     1      -8.494   9.287  64.845  1.00  0.00    -0.182 C  
HETATM   17  C   UNL     1      -7.044   9.199  65.331  1.00  0.00    -0.081 C  
HETATM   18  C   UNL     1      -6.761   7.914  66.112  1.00  0.00    -0.054 C  
HETATM   19  C   UNL     1      -7.802   7.652  67.199  1.00  0.00    -0.117 C  
HETATM   20  O   UNL     1      -6.765   6.802  65.215  1.00  0.00    -0.048 OA 
HETATM   21  C   UNL     1      -9.221   7.687  66.629  1.00  0.00    -0.211 C  
HETATM   22  H   UNL     1      -6.589   6.004  65.699  1.00  0.00     0.000 HD 
ENDBRANCH  13  15
ENDBRANCH  12  13
ENDBRANCH  11  12
TORSDOF 3
ENDMDL
MODEL      177
REMARK 921   NORMALIZED FREE ENERGY PREDICTED BY IDOCK:   -3.40 KCAL/MOL
REMARK 922        TOTAL FREE ENERGY PREDICTED BY IDOCK:   -4.66 KCAL/MOL
REMARK 923 INTER-LIGAND FREE ENERGY PREDICTED BY IDOCK:   -4.35 KCAL/MOL
REMARK 924 INTRA-LIGAND FREE ENERGY PREDICTED BY IDOCK:   -0.31 KCAL/MOL
REMARK 927      BINDING AFFINITY PREDICTED BY RF-SCORE:    0.00 PKD
ROOT
HETATM    1  N   UNL     1     -12.120  12.369  67.346  1.00  0.00    -0.484 NA 
HETATM    2  H2  UNL     1     -12.293  12.114  66.374  1.00  0.00     0.000 HD 
HETATM    3  C   UNL     1     -10.735  12.596  67.507  1.00  0.00    -0.225 A  
HETATM    4  H1  UNL     1     -12.599  11.698  67.947  1.00  0.00     0.000 HD 
HETATM    5  C   UNL     1     -10.071  13.525  66.675  1.00  0.00    -0.277 A  
HETATM    6  C   UNL     1      -8.687  13.708  66.732  1.00  0.00    -0.101 A  
HETATM    7 BR   UNL     1     -11.044  14.602  65.438  1.00  0.00    -0.371 Br 
HETATM    8  C   UNL     1      -7.941  12.927  67.604  1.00  0.00    -0.167 A  
HETATM    9  C   UNL     1      -8.557  11.957  68.388  1.00  0.00    -0.152 A  
HETATM   10 BR   UNL     1      -6.066  13.154  67.696  1.00  0.00    -0.119 Br 
HETATM   11  C   UNL     1      -9.954  11.760  68.337  1.00  0.00    -0.202 A  
ENDROOT
BRANCH  11  12
HETATM   12  C   UNL     1     -10.530  10.608  69.139  1.00  0.00    -0.222 C  
BRANCH  12  13
HETATM   13  N   UNL     1      -9.559  10.045  70.090  1.00  0.00    -0.398 NA 
HETATM   14  H   UNL     1      -8.904  10.756  70.417  1.00  0.00     0.000 HD 
BRANCH  13  15
HETATM   15  C   UNL     1     -10.226   9.368  71.222  1.00  0.00    -0.270 C  
HETATM   16  C   UNL     1     -11.335   8.432  70.702  1.00  0.00    -0.262 C  
HETATM   17  C   UNL     1     -10.796   7.211  69.949  1.00  0.00    -0.276 C  
HETATM   18  C   UNL     1      -9.720   6.460  70.737  1.00  0.00    -0.180 C  
HETATM   19  C   UNL     1      -8.636   7.392  71.275  1.00  0.00    -0.118 C  
HETATM   20  O   UNL     1     -10.324   5.791  71.845  1.00  0.00    -0.201 OA 
HETATM   21  C   UNL     1      -9.244   8.547  72.073  1.00  0.00    -0.326 C  
HETATM   22  H   UNL     1      -9.657   5.325  72.334  1.00  0.00     0.000 HD 
ENDBRANCH  13  15
ENDBRANCH  12  13
ENDBRANCH  11  12
TORSDOF 3
ENDMDL
MODEL      178
REMARK 921   NORMALIZED FREE ENERGY PREDICTED BY IDOCK:   -3.40 KCAL/MOL
REMARK 922        TOTAL FREE ENERGY PREDICTED BY IDOCK:   -4.66 KCAL/MOL
REMARK 923 INTER-LIGAND FREE ENERGY PREDICTED BY IDOCK:   -4.02 KCAL/MOL
REMARK 924 INTRA-LIGAND FREE ENERGY PREDICTED BY IDOCK:   -0.64 KCAL/MOL
REMARK 927      BINDING AFFINITY PREDICTED BY RF-SCORE:    0.00 PKD
ROOT
HETATM    1  N   UNL     1      -9.537   4.106  67.298  1.00  0.00    -0.192 NA 
HETATM    2  H2  UNL     1      -8.968   3.462  67.848  1.00  0.00     0.000 HD 
HETATM    3  C   UNL     1      -9.024   5.411  67.465  1.00  0.00    -0.108 A  
HETATM    4  H1  UNL     1     -10.520   3.917  67.494  1.00  0.00     0.000 HD 
HETATM    5  C   UNL     1      -7.661   5.673  67.193  1.00  0.00    -0.101 A  
HETATM    6  C   UNL     1      -7.089   6.923  67.440  1.00  0.00    -0.084 A  
HETATM    7 BR   UNL     1      -6.535   4.328  66.448  1.00  0.00    -0.038 Br 
HETATM    8  C   UNL     1      -7.871   7.922  68.002  1.00  0.00    -0.127 A  
HETATM    9  C   UNL     1      -9.196   7.675  68.343  1.00  0.00    -0.140 A  
HETATM   10 BR   UNL     1      -7.116   9.621  68.349  1.00  0.00    -0.070 Br 
HETATM   11  C   UNL     1      -9.786   6.415  68.102  1.00  0.00    -0.127 A  
ENDROOT
BRANCH  11  12
HETATM   12  C   UNL     1     -11.201   6.195  68.605  1.00  0.00    -0.185 C  
BRANCH  12  13
HETATM   13  N   UNL     1     -11.581   7.158  69.651  1.00  0.00    -0.531 NA 
HETATM   14  H   UNL     1     -12.301   7.800  69.320  1.00  0.00     0.000 HD 
BRANCH  13  15
HETATM   15  C   UNL     1     -11.998   6.480  70.897  1.00  0.00    -0.291 C  
HETATM   16  C   UNL     1     -10.821   5.677  71.484  1.00  0.00    -0.297 C  
HETATM   17  C   UNL     1      -9.696   6.561  72.032  1.00  0.00    -0.156 C  
HETATM   18  C   UNL     1     -10.206   7.637  72.994  1.00  0.00    -0.320 C  
HETATM   19  C   UNL     1     -11.390   8.414  72.422  1.00  0.00    -0.448 C  
HETATM   20  O   UNL     1     -10.623   7.023  74.214  1.00  0.00    -0.517 OA 
HETATM   21  C   UNL     1     -12.503   7.470  71.959  1.00  0.00    -0.289 C  
HETATM   22  H   UNL     1     -10.940   7.690  74.812  1.00  0.00     0.000 HD 
ENDBRANCH  13  15
ENDBRANCH  12  13
ENDBRANCH  11  12
TORSDOF 3
ENDMDL
MODEL      179
REMARK 921   NORMALIZED FREE ENERGY PREDICTED BY IDOCK:   -3.40 KCAL/MOL
REMARK 922        TOTAL FREE ENERGY PREDICTED BY IDOCK:   -4.66 KCAL/MOL
REMARK 923 INTER-LIGAND FREE ENERGY PREDICTED BY IDOCK:   -5.41 KCAL/MOL
REMARK 924 INTRA-LIGAND FREE ENERGY PREDICTED BY IDOCK:    0.75 KCAL/MOL
REMARK 927      BINDING AFFINITY PREDICTED BY RF-SCORE:    0.00 PKD
ROOT
HETATM    1  N   UNL     1     -10.006  18.196  68.913  1.00  0.00    -0.366 NA 
HETATM    2  H2  UNL     1     -10.848  18.768  68.977  1.00  0.00     0.000 HD 
HETATM    3  C   UNL     1     -10.169  17.279  67.852  1.00  0.00    -0.332 A  
HETATM    4  H1  UNL     1      -9.773  17.858  69.847  1.00  0.00     0.000 HD 
HETATM    5  C   UNL     1     -10.492  17.747  66.558  1.00  0.00    -0.297 A  
HETATM    6  C   UNL     1     -10.760  16.871  65.504  1.00  0.00    -0.171 A  
HETATM    7 BR   UNL     1     -10.555  19.614  66.180  1.00  0.00    -0.538 Br 
HETATM    8  C   UNL     1     -10.746  15.504  65.745  1.00  0.00    -0.353 A  
HETATM    9  C   UNL     1     -10.498  15.014  67.022  1.00  0.00    -0.278 A  
HETATM   10 BR   UNL     1     -11.110  14.299  64.334  1.00  0.00    -0.138 Br 
HETATM   11  C   UNL     1     -10.229  15.888  68.097  1.00  0.00    -0.232 A  
ENDROOT
BRANCH  11  12
HETATM   12  C   UNL     1     -10.080  15.278  69.479  1.00  0.00    -0.256 C  
BRANCH  12  13
HETATM   13  N   UNL     1      -9.927  13.815  69.433  1.00  0.00    -0.255 NA 
HETATM   14  H   UNL     1      -9.820  13.424  70.368  1.00  0.00     0.000 HD 
BRANCH  13  15
HETATM   15  C   UNL     1     -11.038  13.169  68.703  1.00  0.00    -0.269 C  
HETATM   16  C   UNL     1     -10.701  11.692  68.422  1.00  0.00    -0.248 C  
HETATM   17  C   UNL     1     -10.677  10.823  69.684  1.00  0.00    -0.261 C  
HETATM   18  C   UNL     1     -11.941  10.982  70.533  1.00  0.00    -0.379 C  
HETATM   19  C   UNL     1     -12.289  12.447  70.789  1.00  0.00    -0.377 C  
HETATM   20  O   UNL     1     -13.044  10.372  69.862  1.00  0.00    -0.539 OA 
HETATM   21  C   UNL     1     -12.363  13.236  69.480  1.00  0.00    -0.122 C  
HETATM   22  H   UNL     1     -13.828  10.470  70.388  1.00  0.00     0.000 HD 
ENDBRANCH  13  15
ENDBRANCH  12  13
ENDBRANCH  11  12
TORSDOF 3
ENDMDL
MODEL      180
REMARK 921   NORMALIZED FREE ENERGY PREDICTED BY IDOCK:   -3.39 KCAL/MOL
REMARK 922        TOTAL FREE ENERGY PREDICTED BY IDOCK:   -4.65 KCAL/MOL
REMARK 923 INTER-LIGAND FREE ENERGY PREDICTED BY IDOCK:   -4.10 KCAL/MOL
REMARK 924 INTRA-LIGAND FREE ENERGY PREDICTED BY IDOCK:   -0.55 KCAL/MOL
REMARK 927      BINDING AFFINITY PREDICTED BY RF-SCORE:    0.00 PKD
ROOT
HETATM    1  N   UNL     1      -5.156  16.518  71.226  1.00  0.00    -0.274 NA 
HETATM    2  H2  UNL     1      -4.224  16.256  71.548  1.00  0.00     0.000 HD 
HETATM    3  C   UNL     1      -5.635  15.502  70.370  1.00  0.00    -0.139 A  
HETATM    4  H1  UNL     1      -5.126  17.484  70.900  1.00  0.00     0.000 HD 
HETATM    5  C   UNL     1      -5.677  14.162  70.821  1.00  0.00    -0.192 A  
HETATM    6  C   UNL     1      -6.049  13.113  69.977  1.00  0.00    -0.113 A  
HETATM    7 BR   UNL     1      -5.248  13.722  72.625  1.00  0.00    -0.135 Br 
HETATM    8  C   UNL     1      -6.347  13.390  68.650  1.00  0.00    -0.091 A  
HETATM    9  C   UNL     1      -6.250  14.688  68.160  1.00  0.00    -0.146 A  
HETATM   10 BR   UNL     1      -6.849  11.985  67.488  1.00  0.00    -0.143 Br 
HETATM   11  C   UNL     1      -5.872  15.757  69.001  1.00  0.00    -0.106 A  
ENDROOT
BRANCH  11  12
HETATM   12  C   UNL     1      -5.682  17.120  68.362  1.00  0.00    -0.140 C  
BRANCH  12  13
HETATM   13  N   UNL     1      -6.862  17.550  67.595  1.00  0.00    -0.160 NA 
HETATM   14  H   UNL     1      -7.150  16.837  66.925  1.00  0.00     0.000 HD 
BRANCH  13  15
HETATM   15  C   UNL     1      -7.981  17.940  68.479  1.00  0.00    -0.298 C  
HETATM   16  C   UNL     1      -8.212  19.462  68.404  1.00  0.00    -0.382 C  
HETATM   17  C   UNL     1      -8.772  19.925  67.055  1.00  0.00    -0.402 C  
HETATM   18  C   UNL     1     -10.003  19.125  66.622  1.00  0.00    -0.376 C  
HETATM   19  C   UNL     1      -9.783  17.618  66.722  1.00  0.00    -0.300 C  
HETATM   20  O   UNL     1     -11.111  19.470  67.455  1.00  0.00    -0.433 OA 
HETATM   21  C   UNL     1      -9.290  17.220  68.116  1.00  0.00    -0.274 C  
HETATM   22  H   UNL     1     -11.875  18.975  67.186  1.00  0.00     0.000 HD 
ENDBRANCH  13  15
ENDBRANCH  12  13
ENDBRANCH  11  12
TORSDOF 3
ENDMDL
MODEL      181
REMARK 921   NORMALIZED FREE ENERGY PREDICTED BY IDOCK:   -3.39 KCAL/MOL
REMARK 922        TOTAL FREE ENERGY PREDICTED BY IDOCK:   -4.64 KCAL/MOL
REMARK 923 INTER-LIGAND FREE ENERGY PREDICTED BY IDOCK:   -4.10 KCAL/MOL
REMARK 924 INTRA-LIGAND FREE ENERGY PREDICTED BY IDOCK:   -0.54 KCAL/MOL
REMARK 927      BINDING AFFINITY PREDICTED BY RF-SCORE:    0.00 PKD
ROOT
HETATM    1  N   UNL     1     -10.163  13.502  68.932  1.00  0.00    -0.420 NA 
HETATM    2  H2  UNL     1     -10.734  14.223  69.372  1.00  0.00     0.000 HD 
HETATM    3  C   UNL     1     -10.610  13.325  67.604  1.00  0.00    -0.236 A  
HETATM    4  H1  UNL     1     -10.111  12.701  69.562  1.00  0.00     0.000 HD 
HETATM    5  C   UNL     1     -10.683  14.434  66.730  1.00  0.00    -0.292 A  
HETATM    6  C   UNL     1     -11.212  14.323  65.443  1.00  0.00    -0.329 A  
HETATM    7 BR   UNL     1     -10.032  16.144  67.263  1.00  0.00    -0.252 Br 
HETATM    8  C   UNL     1     -11.716  13.099  65.025  1.00  0.00    -0.337 A  
HETATM    9  C   UNL     1     -11.722  12.006  65.885  1.00  0.00    -0.312 A  
HETATM   10 BR   UNL     1     -12.443  12.927  63.288  1.00  0.00    -0.116 Br 
HETATM   11  C   UNL     1     -11.192  12.106  67.190  1.00  0.00    -0.372 A  
ENDROOT
BRANCH  11  12
HETATM   12  C   UNL     1     -11.338  10.900  68.100  1.00  0.00    -0.315 C  
BRANCH  12  13
HETATM   13  N   UNL     1     -10.596   9.730  67.605  1.00  0.00    -0.259 NA 
HETATM   14  H   UNL     1     -10.957   9.416  66.704  1.00  0.00     0.000 HD 
BRANCH  13  15
HETATM   15  C   UNL     1      -9.142   9.987  67.542  1.00  0.00    -0.134 C  
HETATM   16  C   UNL     1      -8.414   9.193  68.646  1.00  0.00    -0.127 C  
HETATM   17  C   UNL     1      -8.422   7.679  68.411  1.00  0.00    -0.125 C  
HETATM   18  C   UNL     1      -7.946   7.297  67.008  1.00  0.00    -0.109 C  
HETATM   19  C   UNL     1      -8.648   8.103  65.916  1.00  0.00    -0.171 C  
HETATM   20  O   UNL     1      -6.541   7.533  66.902  1.00  0.00    -0.057 OA 
HETATM   21  C   UNL     1      -8.540   9.606  66.179  1.00  0.00    -0.138 C  
HETATM   22  H   UNL     1      -6.246   7.296  66.031  1.00  0.00     0.000 HD 
ENDBRANCH  13  15
ENDBRANCH  12  13
ENDBRANCH  11  12
TORSDOF 3
ENDMDL
MODEL      182
REMARK 921   NORMALIZED FREE ENERGY PREDICTED BY IDOCK:   -3.38 KCAL/MOL
REMARK 922        TOTAL FREE ENERGY PREDICTED BY IDOCK:   -4.64 KCAL/MOL
REMARK 923 INTER-LIGAND FREE ENERGY PREDICTED BY IDOCK:   -4.33 KCAL/MOL
REMARK 924 INTRA-LIGAND FREE ENERGY PREDICTED BY IDOCK:   -0.31 KCAL/MOL
REMARK 927      BINDING AFFINITY PREDICTED BY RF-SCORE:    0.00 PKD
ROOT
HETATM    1  N   UNL     1     -11.482   7.934  69.913  1.00  0.00    -0.455 NA 
HETATM    2  H2  UNL     1     -12.277   7.542  69.408  1.00  0.00     0.000 HD 
HETATM    3  C   UNL     1     -11.888   9.144  70.517  1.00  0.00    -0.095 A  
HETATM    4  H1  UNL     1     -10.669   7.921  69.296  1.00  0.00     0.000 HD 
HETATM    5  C   UNL     1     -13.014   9.162  71.372  1.00  0.00    -0.307 A  
HETATM    6  C   UNL     1     -13.510  10.351  71.911  1.00  0.00    -0.384 A  
HETATM    7 BR   UNL     1     -13.904   7.547  71.854  1.00  0.00    -0.319 Br 
HETATM    8  C   UNL     1     -12.903  11.551  71.565  1.00  0.00    -0.380 A  
HETATM    9  C   UNL     1     -11.836  11.573  70.674  1.00  0.00    -0.279 A  
HETATM   10 BR   UNL     1     -13.561  13.174  72.279  1.00  0.00    -0.612 Br 
HETATM   11  C   UNL     1     -11.327  10.378  70.120  1.00  0.00    -0.397 A  
ENDROOT
BRANCH  11  12
HETATM   12  C   UNL     1     -10.236  10.499  69.072  1.00  0.00    -0.216 C  
BRANCH  12  13
HETATM   13  N   UNL     1      -8.919  10.784  69.663  1.00  0.00    -0.368 NA 
HETATM   14  H   UNL     1      -8.675  10.096  70.376  1.00  0.00     0.000 HD 
BRANCH  13  15
HETATM   15  C   UNL     1      -7.865  10.888  68.632  1.00  0.00    -0.126 C  
HETATM   16  C   UNL     1      -6.477  10.969  69.298  1.00  0.00    -0.079 C  
HETATM   17  C   UNL     1      -6.051   9.663  69.977  1.00  0.00    -0.049 C  
HETATM   18  C   UNL     1      -6.186   8.448  69.055  1.00  0.00    -0.043 C  
HETATM   19  C   UNL     1      -7.552   8.383  68.375  1.00  0.00    -0.097 C  
HETATM   20  O   UNL     1      -5.184   8.510  68.039  1.00  0.00    -0.033 OA 
HETATM   21  C   UNL     1      -7.879   9.696  67.661  1.00  0.00    -0.095 C  
HETATM   22  H   UNL     1      -5.267   7.757  67.467  1.00  0.00     0.000 HD 
ENDBRANCH  13  15
ENDBRANCH  12  13
ENDBRANCH  11  12
TORSDOF 3
ENDMDL
MODEL      183
REMARK 921   NORMALIZED FREE ENERGY PREDICTED BY IDOCK:   -3.38 KCAL/MOL
REMARK 922        TOTAL FREE ENERGY PREDICTED BY IDOCK:   -4.63 KCAL/MOL
REMARK 923 INTER-LIGAND FREE ENERGY PREDICTED BY IDOCK:   -4.13 KCAL/MOL
REMARK 924 INTRA-LIGAND FREE ENERGY PREDICTED BY IDOCK:   -0.50 KCAL/MOL
REMARK 927      BINDING AFFINITY PREDICTED BY RF-SCORE:    0.00 PKD
ROOT
HETATM    1  N   UNL     1     -11.017   7.448  71.635  1.00  0.00    -0.224 NA 
HETATM    2  H2  UNL     1     -11.843   6.910  71.372  1.00  0.00     0.000 HD 
HETATM    3  C   UNL     1     -11.069   8.697  70.977  1.00  0.00    -0.264 A  
HETATM    4  H1  UNL     1     -10.196   6.852  71.531  1.00  0.00     0.000 HD 
HETATM    5  C   UNL     1     -12.207   9.523  71.121  1.00  0.00    -0.338 A  
HETATM    6  C   UNL     1     -12.344  10.718  70.411  1.00  0.00    -0.438 A  
HETATM    7 BR   UNL     1     -13.612   9.054  72.320  1.00  0.00    -0.563 Br 
HETATM    8  C   UNL     1     -11.352  11.083  69.511  1.00  0.00    -0.287 A  
HETATM    9  C   UNL     1     -10.253  10.259  69.298  1.00  0.00    -0.244 A  
HETATM   10 BR   UNL     1     -11.518  12.694  68.536  1.00  0.00    -0.379 Br 
HETATM   11  C   UNL     1     -10.104   9.047  70.006  1.00  0.00    -0.215 A  
ENDROOT
BRANCH  11  12
HETATM   12  C   UNL     1      -8.935   8.154  69.633  1.00  0.00    -0.154 C  
BRANCH  12  13
HETATM   13  N   UNL     1      -9.370   6.855  69.095  1.00  0.00    -0.140 NA 
HETATM   14  H   UNL     1      -9.170   6.781  68.098  1.00  0.00     0.000 HD 
BRANCH  13  15
HETATM   15  C   UNL     1      -8.784   5.725  69.847  1.00  0.00    -0.128 C  
HETATM   16  C   UNL     1      -9.606   4.444  69.606  1.00  0.00    -0.275 C  
HETATM   17  C   UNL     1      -9.482   3.901  68.179  1.00  0.00    -0.219 C  
HETATM   18  C   UNL     1      -8.026   3.753  67.729  1.00  0.00    -0.085 C  
HETATM   19  C   UNL     1      -7.205   5.014  67.992  1.00  0.00    -0.067 C  
HETATM   20  O   UNL     1      -7.419   2.670  68.435  1.00  0.00    -0.048 OA 
HETATM   21  C   UNL     1      -7.322   5.458  69.452  1.00  0.00    -0.065 C  
HETATM   22  H   UNL     1      -6.516   2.578  68.156  1.00  0.00     0.000 HD 
ENDBRANCH  13  15
ENDBRANCH  12  13
ENDBRANCH  11  12
TORSDOF 3
ENDMDL
MODEL      184
REMARK 921   NORMALIZED FREE ENERGY PREDICTED BY IDOCK:   -3.37 KCAL/MOL
REMARK 922        TOTAL FREE ENERGY PREDICTED BY IDOCK:   -4.63 KCAL/MOL
REMARK 923 INTER-LIGAND FREE ENERGY PREDICTED BY IDOCK:   -4.08 KCAL/MOL
REMARK 924 INTRA-LIGAND FREE ENERGY PREDICTED BY IDOCK:   -0.54 KCAL/MOL
REMARK 927      BINDING AFFINITY PREDICTED BY RF-SCORE:    0.00 PKD
ROOT
HETATM    1  N   UNL     1     -11.102   8.985  68.349  1.00  0.00    -0.458 NA 
HETATM    2  H2  UNL     1     -11.714   9.264  67.583  1.00  0.00     0.000 HD 
HETATM    3  C   UNL     1     -10.465   7.776  67.993  1.00  0.00    -0.185 A  
HETATM    4  H1  UNL     1     -11.627   9.045  69.222  1.00  0.00     0.000 HD 
HETATM    5  C   UNL     1      -9.737   7.691  66.784  1.00  0.00    -0.222 A  
HETATM    6  C   UNL     1      -9.175   6.490  66.346  1.00  0.00    -0.178 A  
HETATM    7 BR   UNL     1      -9.463   9.232  65.697  1.00  0.00    -0.301 Br 
HETATM    8  C   UNL     1      -9.372   5.341  67.099  1.00  0.00    -0.122 A  
HETATM    9  C   UNL     1     -10.139   5.377  68.258  1.00  0.00    -0.225 A  
HETATM   10 BR   UNL     1      -8.625   3.702  66.522  1.00  0.00    -0.120 Br 
HETATM   11  C   UNL     1     -10.715   6.584  68.711  1.00  0.00    -0.320 A  
ENDROOT
BRANCH  11  12
HETATM   12  C   UNL     1     -11.629   6.516  69.920  1.00  0.00    -0.368 C  
BRANCH  12  13
HETATM   13  N   UNL     1     -11.011   5.806  71.051  1.00  0.00    -0.259 NA 
HETATM   14  H   UNL     1     -10.065   5.500  70.825  1.00  0.00     0.000 HD 
BRANCH  13  15
HETATM   15  C   UNL     1     -11.034   6.616  72.287  1.00  0.00    -0.246 C  
HETATM   16  C   UNL     1     -10.706   5.733  73.508  1.00  0.00    -0.300 C  
HETATM   17  C   UNL     1      -9.251   5.253  73.537  1.00  0.00    -0.130 C  
HETATM   18  C   UNL     1      -8.249   6.395  73.358  1.00  0.00    -0.113 C  
HETATM   19  C   UNL     1      -8.589   7.286  72.165  1.00  0.00    -0.126 C  
HETATM   20  O   UNL     1      -8.241   7.208  74.532  1.00  0.00    -0.151 OA 
HETATM   21  C   UNL     1     -10.035   7.784  72.238  1.00  0.00    -0.259 C  
HETATM   22  H   UNL     1      -7.619   7.917  74.422  1.00  0.00     0.000 HD 
ENDBRANCH  13  15
ENDBRANCH  12  13
ENDBRANCH  11  12
TORSDOF 3
ENDMDL
MODEL      185
REMARK 921   NORMALIZED FREE ENERGY PREDICTED BY IDOCK:   -3.35 KCAL/MOL
REMARK 922        TOTAL FREE ENERGY PREDICTED BY IDOCK:   -4.60 KCAL/MOL
REMARK 923 INTER-LIGAND FREE ENERGY PREDICTED BY IDOCK:   -4.03 KCAL/MOL
REMARK 924 INTRA-LIGAND FREE ENERGY PREDICTED BY IDOCK:   -0.57 KCAL/MOL
REMARK 927      BINDING AFFINITY PREDICTED BY RF-SCORE:    0.00 PKD
ROOT
HETATM    1  N   UNL     1      -9.542  11.198  69.094  1.00  0.00    -0.408 NA 
HETATM    2  H2  UNL     1      -9.934  11.846  68.411  1.00  0.00     0.000 HD 
HETATM    3  C   UNL     1      -9.508   9.909  68.518  1.00  0.00    -0.146 A  
HETATM    4  H1  UNL     1     -10.012  11.345  69.987  1.00  0.00     0.000 HD 
HETATM    5  C   UNL     1      -8.856   9.706  67.281  1.00  0.00    -0.132 A  
HETATM    6  C   UNL     1      -8.884   8.471  66.628  1.00  0.00    -0.157 A  
HETATM    7 BR   UNL     1      -7.877  11.113  66.447  1.00  0.00    -0.099 Br 
HETATM    8  C   UNL     1      -9.605   7.428  67.192  1.00  0.00    -0.159 A  
HETATM    9  C   UNL     1     -10.313   7.616  68.375  1.00  0.00    -0.228 A  
HETATM   10 BR   UNL     1      -9.660   5.749  66.324  1.00  0.00    -0.130 Br 
HETATM   11  C   UNL     1     -10.295   8.859  69.043  1.00  0.00    -0.226 A  
ENDROOT
BRANCH  11  12
HETATM   12  C   UNL     1     -11.183   9.012  70.264  1.00  0.00    -0.205 C  
BRANCH  12  13
HETATM   13  N   UNL     1     -10.461   8.748  71.519  1.00  0.00    -0.274 NA 
HETATM   14  H   UNL     1     -10.075   9.605  71.913  1.00  0.00     0.000 HD 
BRANCH  13  15
HETATM   15  C   UNL     1     -11.309   8.039  72.501  1.00  0.00    -0.406 C  
HETATM   16  C   UNL     1     -12.018   6.847  71.829  1.00  0.00    -0.372 C  
HETATM   17  C   UNL     1     -11.063   5.712  71.442  1.00  0.00    -0.221 C  
HETATM   18  C   UNL     1     -10.162   5.278  72.600  1.00  0.00    -0.184 C  
HETATM   19  C   UNL     1      -9.482   6.463  73.284  1.00  0.00    -0.148 C  
HETATM   20  O   UNL     1     -10.945   4.590  73.577  1.00  0.00    -0.251 OA 
HETATM   21  C   UNL     1     -10.502   7.523  73.704  1.00  0.00    -0.285 C  
HETATM   22  H   UNL     1     -10.386   4.320  74.297  1.00  0.00     0.000 HD 
ENDBRANCH  13  15
ENDBRANCH  12  13
ENDBRANCH  11  12
TORSDOF 3
ENDMDL
MODEL      186
REMARK 921   NORMALIZED FREE ENERGY PREDICTED BY IDOCK:   -3.35 KCAL/MOL
REMARK 922        TOTAL FREE ENERGY PREDICTED BY IDOCK:   -4.60 KCAL/MOL
REMARK 923 INTER-LIGAND FREE ENERGY PREDICTED BY IDOCK:   -4.06 KCAL/MOL
REMARK 924 INTRA-LIGAND FREE ENERGY PREDICTED BY IDOCK:   -0.54 KCAL/MOL
REMARK 927      BINDING AFFINITY PREDICTED BY RF-SCORE:    0.00 PKD
ROOT
HETATM    1  N   UNL     1      -9.821  15.373  69.191  1.00  0.00    -0.231 NA 
HETATM    2  H2  UNL     1      -9.837  16.143  68.523  1.00  0.00     0.000 HD 
HETATM    3  C   UNL     1      -8.916  14.394  68.723  1.00  0.00    -0.131 A  
HETATM    4  H1  UNL     1     -10.783  15.113  69.410  1.00  0.00     0.000 HD 
HETATM    5  C   UNL     1      -7.583  14.753  68.420  1.00  0.00    -0.116 A  
HETATM    6  C   UNL     1      -6.684  13.841  67.862  1.00  0.00    -0.162 A  
HETATM    7 BR   UNL     1      -6.934  16.507  68.786  1.00  0.00    -0.193 Br 
HETATM    8  C   UNL     1      -7.125  12.560  67.561  1.00  0.00    -0.151 A  
HETATM    9  C   UNL     1      -8.449  12.197  67.785  1.00  0.00    -0.160 A  
HETATM   10 BR   UNL     1      -5.927  11.310  66.801  1.00  0.00    -0.144 Br 
HETATM   11  C   UNL     1      -9.368  13.109  68.346  1.00  0.00    -0.154 A  
ENDROOT
BRANCH  11  12
HETATM   12  C   UNL     1     -10.817  12.670  68.453  1.00  0.00    -0.245 C  
BRANCH  12  13
HETATM   13  N   UNL     1     -11.081  11.900  69.679  1.00  0.00    -0.470 NA 
HETATM   14  H   UNL     1     -11.720  12.398  70.299  1.00  0.00     0.000 HD 
BRANCH  13  15
HETATM   15  C   UNL     1     -11.573  10.539  69.378  1.00  0.00    -0.246 C  
HETATM   16  C   UNL     1     -10.396   9.546  69.334  1.00  0.00    -0.225 C  
HETATM   17  C   UNL     1      -9.760   9.296  70.705  1.00  0.00    -0.348 C  
HETATM   18  C   UNL     1     -10.791   8.931  71.776  1.00  0.00    -0.365 C  
HETATM   19  C   UNL     1     -11.971   9.901  71.801  1.00  0.00    -0.329 C  
HETATM   20  O   UNL     1     -11.296   7.620  71.521  1.00  0.00    -0.247 OA 
HETATM   21  C   UNL     1     -12.598  10.048  70.413  1.00  0.00    -0.142 C  
HETATM   22  H   UNL     1     -11.936   7.393  72.185  1.00  0.00     0.000 HD 
ENDBRANCH  13  15
ENDBRANCH  12  13
ENDBRANCH  11  12
TORSDOF 3
ENDMDL
MODEL      187
REMARK 921   NORMALIZED FREE ENERGY PREDICTED BY IDOCK:   -3.34 KCAL/MOL
REMARK 922        TOTAL FREE ENERGY PREDICTED BY IDOCK:   -4.59 KCAL/MOL
REMARK 923 INTER-LIGAND FREE ENERGY PREDICTED BY IDOCK:   -4.03 KCAL/MOL
REMARK 924 INTRA-LIGAND FREE ENERGY PREDICTED BY IDOCK:   -0.56 KCAL/MOL
REMARK 927      BINDING AFFINITY PREDICTED BY RF-SCORE:    0.00 PKD
ROOT
HETATM    1  N   UNL     1     -11.150  12.503  64.775  1.00  0.00    -0.291 NA 
HETATM    2  H2  UNL     1     -11.709  11.668  64.600  1.00  0.00     0.000 HD 
HETATM    3  C   UNL     1     -10.001  12.127  65.505  1.00  0.00    -0.246 A  
HETATM    4  H1  UNL     1     -11.764  13.234  65.134  1.00  0.00     0.000 HD 
HETATM    5  C   UNL     1      -9.150  11.114  65.007  1.00  0.00    -0.121 A  
HETATM    6  C   UNL     1      -8.060  10.641  65.742  1.00  0.00    -0.158 A  
HETATM    7 BR   UNL     1      -9.436  10.354  63.283  1.00  0.00    -0.359 Br 
HETATM    8  C   UNL     1      -7.832  11.154  67.012  1.00  0.00    -0.142 A  
HETATM    9  C   UNL     1      -8.690  12.102  67.556  1.00  0.00    -0.173 A  
HETATM   10 BR   UNL     1      -6.365  10.525  68.027  1.00  0.00    -0.059 Br 
HETATM   11  C   UNL     1      -9.797  12.586  66.825  1.00  0.00    -0.232 A  
ENDROOT
BRANCH  11  12
HETATM   12  C   UNL     1     -10.745  13.535  67.534  1.00  0.00    -0.259 C  
BRANCH  12  13
HETATM   13  N   UNL     1     -10.115  14.827  67.849  1.00  0.00    -0.220 NA 
HETATM   14  H   UNL     1      -9.217  14.698  68.315  1.00  0.00     0.000 HD 
BRANCH  13  15
HETATM   15  C   UNL     1      -9.982  15.681  66.650  1.00  0.00    -0.258 C  
HETATM   16  C   UNL     1     -10.846  16.949  66.802  1.00  0.00     0.001 C  
HETATM   17  C   UNL     1     -10.323  17.915  67.870  1.00  0.00    -0.396 C  
HETATM   18  C   UNL     1      -8.837  18.239  67.697  1.00  0.00    -0.256 C  
HETATM   19  C   UNL     1      -7.986  16.983  67.519  1.00  0.00    -0.189 C  
HETATM   20  O   UNL     1      -8.662  19.063  66.544  1.00  0.00    -0.303 OA 
HETATM   21  C   UNL     1      -8.526  16.101  66.392  1.00  0.00    -0.369 C  
HETATM   22  H   UNL     1      -7.740  19.264  66.436  1.00  0.00     0.000 HD 
ENDBRANCH  13  15
ENDBRANCH  12  13
ENDBRANCH  11  12
TORSDOF 3
ENDMDL
MODEL      188
REMARK 921   NORMALIZED FREE ENERGY PREDICTED BY IDOCK:   -3.34 KCAL/MOL
REMARK 922        TOTAL FREE ENERGY PREDICTED BY IDOCK:   -4.59 KCAL/MOL
REMARK 923 INTER-LIGAND FREE ENERGY PREDICTED BY IDOCK:   -3.93 KCAL/MOL
REMARK 924 INTRA-LIGAND FREE ENERGY PREDICTED BY IDOCK:   -0.66 KCAL/MOL
REMARK 927      BINDING AFFINITY PREDICTED BY RF-SCORE:    0.00 PKD
ROOT
HETATM    1  N   UNL     1     -11.406   9.329  68.581  1.00  0.00    -0.332 NA 
HETATM    2  H2  UNL     1     -11.441   8.510  67.974  1.00  0.00     0.000 HD 
HETATM    3  C   UNL     1     -10.052   9.619  68.862  1.00  0.00    -0.187 A  
HETATM    4  H1  UNL     1     -12.066   9.193  69.346  1.00  0.00     0.000 HD 
HETATM    5  C   UNL     1      -9.136   9.807  67.802  1.00  0.00    -0.131 A  
HETATM    6  C   UNL     1      -7.772   9.996  68.033  1.00  0.00    -0.089 A  
HETATM    7 BR   UNL     1      -9.728   9.835  65.991  1.00  0.00    -0.340 Br 
HETATM    8  C   UNL     1      -7.299   9.960  69.338  1.00  0.00    -0.091 A  
HETATM    9  C   UNL     1      -8.164   9.711  70.397  1.00  0.00    -0.194 A  
HETATM   10 BR   UNL     1      -5.455  10.210  69.674  1.00  0.00    -0.038 Br 
HETATM   11  C   UNL     1      -9.545   9.514  70.177  1.00  0.00    -0.290 A  
ENDROOT
BRANCH  11  12
HETATM   12  C   UNL     1     -10.400   9.137  71.373  1.00  0.00    -0.338 C  
BRANCH  12  13
HETATM   13  N   UNL     1     -10.815   7.725  71.343  1.00  0.00    -0.227 NA 
HETATM   14  H   UNL     1     -10.113   7.141  70.888  1.00  0.00     0.000 HD 
BRANCH  13  15
HETATM   15  C   UNL     1     -11.141   7.220  72.694  1.00  0.00    -0.313 C  
HETATM   16  C   UNL     1     -11.493   5.721  72.629  1.00  0.00    -0.337 C  
HETATM   17  C   UNL     1     -10.292   4.828  72.299  1.00  0.00    -0.264 C  
HETATM   18  C   UNL     1      -9.086   5.105  73.199  1.00  0.00    -0.127 C  
HETATM   19  C   UNL     1      -8.754   6.594  73.284  1.00  0.00    -0.135 C  
HETATM   20  O   UNL     1      -9.360   4.634  74.519  1.00  0.00    -0.115 OA 
HETATM   21  C   UNL     1      -9.982   7.415  73.685  1.00  0.00    -0.379 C  
HETATM   22  H   UNL     1      -8.611   4.806  75.078  1.00  0.00     0.000 HD 
ENDBRANCH  13  15
ENDBRANCH  12  13
ENDBRANCH  11  12
TORSDOF 3
ENDMDL
MODEL      189
REMARK 921   NORMALIZED FREE ENERGY PREDICTED BY IDOCK:   -3.33 KCAL/MOL
REMARK 922        TOTAL FREE ENERGY PREDICTED BY IDOCK:   -4.58 KCAL/MOL
REMARK 923 INTER-LIGAND FREE ENERGY PREDICTED BY IDOCK:   -3.86 KCAL/MOL
REMARK 924 INTRA-LIGAND FREE ENERGY PREDICTED BY IDOCK:   -0.72 KCAL/MOL
REMARK 927      BINDING AFFINITY PREDICTED BY RF-SCORE:    0.00 PKD
ROOT
HETATM    1  N   UNL     1      -8.494   4.381  68.266  1.00  0.00    -0.093 NA 
HETATM    2  H2  UNL     1      -7.644   3.854  68.065  1.00  0.00     0.000 HD 
HETATM    3  C   UNL     1      -8.565   5.472  67.372  1.00  0.00    -0.108 A  
HETATM    4  H1  UNL     1      -8.542   4.544  69.272  1.00  0.00     0.000 HD 
HETATM    5  C   UNL     1      -8.498   5.246  65.978  1.00  0.00    -0.120 A  
HETATM    6  C   UNL     1      -8.465   6.300  65.062  1.00  0.00    -0.049 A  
HETATM    7 BR   UNL     1      -8.474   3.476  65.273  1.00  0.00    -0.108 Br 
HETATM    8  C   UNL     1      -8.458   7.605  65.538  1.00  0.00    -0.120 A  
HETATM    9  C   UNL     1      -8.456   7.859  66.905  1.00  0.00    -0.128 A  
HETATM   10 BR   UNL     1      -8.409   9.048  64.317  1.00  0.00    -0.175 Br 
HETATM   11  C   UNL     1      -8.486   6.802  67.841  1.00  0.00    -0.119 A  
ENDROOT
BRANCH  11  12
HETATM   12  C   UNL     1      -8.369   7.162  69.310  1.00  0.00    -0.133 C  
BRANCH  12  13
HETATM   13  N   UNL     1      -9.459   6.593  70.117  1.00  0.00    -0.158 NA 
HETATM   14  H   UNL     1      -9.198   6.528  71.101  1.00  0.00     0.000 HD 
BRANCH  13  15
HETATM   15  C   UNL     1     -10.721   7.343  69.944  1.00  0.00    -0.243 C  
HETATM   16  C   UNL     1     -11.906   6.523  70.491  1.00  0.00    -0.393 C  
HETATM   17  C   UNL     1     -11.894   6.381  72.017  1.00  0.00    -0.382 C  
HETATM   18  C   UNL     1     -11.734   7.725  72.732  1.00  0.00    -0.258 C  
HETATM   19  C   UNL     1     -10.577   8.549  72.171  1.00  0.00    -0.419 C  
HETATM   20  O   UNL     1     -12.935   8.486  72.587  1.00  0.00    -0.597 OA 
HETATM   21  C   UNL     1     -10.692   8.706  70.653  1.00  0.00    -0.259 C  
HETATM   22  H   UNL     1     -12.836   9.320  73.031  1.00  0.00     0.000 HD 
ENDBRANCH  13  15
ENDBRANCH  12  13
ENDBRANCH  11  12
TORSDOF 3
ENDMDL
MODEL      190
REMARK 921   NORMALIZED FREE ENERGY PREDICTED BY IDOCK:   -3.32 KCAL/MOL
REMARK 922        TOTAL FREE ENERGY PREDICTED BY IDOCK:   -4.57 KCAL/MOL
REMARK 923 INTER-LIGAND FREE ENERGY PREDICTED BY IDOCK:   -4.08 KCAL/MOL
REMARK 924 INTRA-LIGAND FREE ENERGY PREDICTED BY IDOCK:   -0.49 KCAL/MOL
REMARK 927      BINDING AFFINITY PREDICTED BY RF-SCORE:    0.00 PKD
ROOT
HETATM    1  N   UNL     1      -8.474   5.030  69.628  1.00  0.00    -0.087 NA 
HETATM    2  H2  UNL     1      -7.584   5.514  69.516  1.00  0.00     0.000 HD 
HETATM    3  C   UNL     1      -8.941   4.651  68.351  1.00  0.00    -0.113 A  
HETATM    4  H1  UNL     1      -9.069   5.587  70.243  1.00  0.00     0.000 HD 
HETATM    5  C   UNL     1      -8.117   3.880  67.499  1.00  0.00    -0.090 A  
HETATM    6  C   UNL     1      -8.498   3.567  66.192  1.00  0.00    -0.112 A  
HETATM    7 BR   UNL     1      -6.442   3.204  68.107  1.00  0.00    -0.037 Br 
HETATM    8  C   UNL     1      -9.701   4.060  65.705  1.00  0.00    -0.190 A  
HETATM    9  C   UNL     1     -10.502   4.876  66.496  1.00  0.00    -0.299 A  
HETATM   10 BR   UNL     1     -10.235   3.653  63.938  1.00  0.00    -0.248 Br 
HETATM   11  C   UNL     1     -10.127   5.203  67.817  1.00  0.00    -0.197 A  
ENDROOT
BRANCH  11  12
HETATM   12  C   UNL     1     -11.001   6.188  68.572  1.00  0.00    -0.320 C  
BRANCH  12  13
HETATM   13  N   UNL     1     -10.212   7.187  69.310  1.00  0.00    -0.184 NA 
HETATM   14  H   UNL     1      -9.763   7.848  68.676  1.00  0.00     0.000 HD 
BRANCH  13  15
HETATM   15  C   UNL     1     -11.024   7.886  70.328  1.00  0.00    -0.248 C  
HETATM   16  C   UNL     1     -11.873   6.871  71.118  1.00  0.00    -0.395 C  
HETATM   17  C   UNL     1     -11.041   5.960  72.028  1.00  0.00    -0.329 C  
HETATM   18  C   UNL     1     -10.081   6.743  72.927  1.00  0.00    -0.181 C  
HETATM   19  C   UNL     1      -9.260   7.768  72.147  1.00  0.00    -0.198 C  
HETATM   20  O   UNL     1     -10.827   7.438  73.927  1.00  0.00    -0.540 OA 
HETATM   21  C   UNL     1     -10.160   8.686  71.317  1.00  0.00    -0.312 C  
HETATM   22  H   UNL     1     -10.232   7.924  74.485  1.00  0.00     0.000 HD 
ENDBRANCH  13  15
ENDBRANCH  12  13
ENDBRANCH  11  12
TORSDOF 3
ENDMDL
MODEL      191
REMARK 921   NORMALIZED FREE ENERGY PREDICTED BY IDOCK:   -3.32 KCAL/MOL
REMARK 922        TOTAL FREE ENERGY PREDICTED BY IDOCK:   -4.57 KCAL/MOL
REMARK 923 INTER-LIGAND FREE ENERGY PREDICTED BY IDOCK:   -3.99 KCAL/MOL
REMARK 924 INTRA-LIGAND FREE ENERGY PREDICTED BY IDOCK:   -0.58 KCAL/MOL
REMARK 927      BINDING AFFINITY PREDICTED BY RF-SCORE:    0.00 PKD
ROOT
HETATM    1  N   UNL     1      -9.732  13.636  64.817  1.00  0.00    -0.510 NA 
HETATM    2  H2  UNL     1      -9.791  14.647  64.697  1.00  0.00     0.000 HD 
HETATM    3  C   UNL     1     -10.283  13.303  66.075  1.00  0.00    -0.291 A  
HETATM    4  H1  UNL     1      -8.786  13.336  64.581  1.00  0.00     0.000 HD 
HETATM    5  C   UNL     1     -11.594  13.718  66.403  1.00  0.00    -0.360 A  
HETATM    6  C   UNL     1     -12.140  13.497  67.669  1.00  0.00    -0.321 A  
HETATM    7 BR   UNL     1     -12.698  14.584  65.113  1.00  0.00    -0.031 Br 
HETATM    8  C   UNL     1     -11.360  12.888  68.642  1.00  0.00    -0.289 A  
HETATM    9  C   UNL     1     -10.044  12.530  68.371  1.00  0.00    -0.216 A  
HETATM   10 BR   UNL     1     -12.077  12.584  70.365  1.00  0.00    -0.279 Br 
HETATM   11  C   UNL     1      -9.478  12.750  67.096  1.00  0.00    -0.223 A  
ENDROOT
BRANCH  11  12
HETATM   12  C   UNL     1      -8.005  12.433  66.918  1.00  0.00    -0.038 C  
BRANCH  12  13
HETATM   13  N   UNL     1      -7.657  11.089  67.407  1.00  0.00    -0.106 NA 
HETATM   14  H   UNL     1      -8.429  10.671  67.926  1.00  0.00     0.000 HD 
BRANCH  13  15
HETATM   15  C   UNL     1      -7.203  10.206  66.312  1.00  0.00    -0.111 C  
HETATM   16  C   UNL     1      -6.846   8.813  66.867  1.00  0.00    -0.070 C  
HETATM   17  C   UNL     1      -8.065   8.021  67.354  1.00  0.00    -0.122 C  
HETATM   18  C   UNL     1      -9.185   7.965  66.313  1.00  0.00    -0.178 C  
HETATM   19  C   UNL     1      -9.520   9.342  65.743  1.00  0.00    -0.329 C  
HETATM   20  O   UNL     1      -8.787   7.121  65.232  1.00  0.00    -0.367 OA 
HETATM   21  C   UNL     1      -8.268  10.044  65.214  1.00  0.00    -0.148 C  
HETATM   22  H   UNL     1      -9.482   7.085  64.586  1.00  0.00     0.000 HD 
ENDBRANCH  13  15
ENDBRANCH  12  13
ENDBRANCH  11  12
TORSDOF 3
ENDMDL
MODEL      192
REMARK 921   NORMALIZED FREE ENERGY PREDICTED BY IDOCK:   -3.32 KCAL/MOL
REMARK 922        TOTAL FREE ENERGY PREDICTED BY IDOCK:   -4.57 KCAL/MOL
REMARK 923 INTER-LIGAND FREE ENERGY PREDICTED BY IDOCK:   -3.92 KCAL/MOL
REMARK 924 INTRA-LIGAND FREE ENERGY PREDICTED BY IDOCK:   -0.64 KCAL/MOL
REMARK 927      BINDING AFFINITY PREDICTED BY RF-SCORE:    0.00 PKD
ROOT
HETATM    1  N   UNL     1      -7.264  17.314  68.504  1.00  0.00    -0.213 NA 
HETATM    2  H2  UNL     1      -7.463  17.548  69.477  1.00  0.00     0.000 HD 
HETATM    3  C   UNL     1      -8.357  16.585  67.987  1.00  0.00    -0.180 A  
HETATM    4  H1  UNL     1      -6.322  16.925  68.451  1.00  0.00     0.000 HD 
HETATM    5  C   UNL     1      -9.662  17.124  68.060  1.00  0.00    -0.274 A  
HETATM    6  C   UNL     1     -10.783  16.398  67.653  1.00  0.00    -0.312 A  
HETATM    7 BR   UNL     1      -9.955  18.895  68.702  1.00  0.00    -0.464 Br 
HETATM    8  C   UNL     1     -10.613  15.096  67.200  1.00  0.00    -0.295 A  
HETATM    9  C   UNL     1      -9.350  14.514  67.179  1.00  0.00    -0.225 A  
HETATM   10 BR   UNL     1     -12.117  14.092  66.647  1.00  0.00    -0.473 Br 
HETATM   11  C   UNL     1      -8.210  15.237  67.592  1.00  0.00    -0.175 A  
ENDROOT
BRANCH  11  12
HETATM   12  C   UNL     1      -6.888  14.493  67.644  1.00  0.00    -0.182 C  
BRANCH  12  13
HETATM   13  N   UNL     1      -6.916  13.244  66.865  1.00  0.00    -0.329 NA 
HETATM   14  H   UNL     1      -6.446  13.357  65.967  1.00  0.00     0.000 HD 
BRANCH  13  15
HETATM   15  C   UNL     1      -6.354  12.109  67.627  1.00  0.00    -0.109 C  
HETATM   16  C   UNL     1      -7.329  11.683  68.742  1.00  0.00    -0.118 C  
HETATM   17  C   UNL     1      -8.611  11.033  68.213  1.00  0.00    -0.143 C  
HETATM   18  C   UNL     1      -8.333   9.903  67.219  1.00  0.00    -0.121 C  
HETATM   19  C   UNL     1      -7.346  10.317  66.129  1.00  0.00    -0.122 C  
HETATM   20  O   UNL     1      -7.784   8.783  67.915  1.00  0.00    -0.099 OA 
HETATM   21  C   UNL     1      -6.062  10.893  66.732  1.00  0.00    -0.088 C  
HETATM   22  H   UNL     1      -7.612   8.082  67.299  1.00  0.00     0.000 HD 
ENDBRANCH  13  15
ENDBRANCH  12  13
ENDBRANCH  11  12
TORSDOF 3
ENDMDL
MODEL      193
REMARK 921   NORMALIZED FREE ENERGY PREDICTED BY IDOCK:   -3.29 KCAL/MOL
REMARK 922        TOTAL FREE ENERGY PREDICTED BY IDOCK:   -4.53 KCAL/MOL
REMARK 923 INTER-LIGAND FREE ENERGY PREDICTED BY IDOCK:   -3.98 KCAL/MOL
REMARK 924 INTRA-LIGAND FREE ENERGY PREDICTED BY IDOCK:   -0.55 KCAL/MOL
REMARK 927      BINDING AFFINITY PREDICTED BY RF-SCORE:    0.00 PKD
ROOT
HETATM    1  N   UNL     1      -8.535   5.151  68.900  1.00  0.00    -0.091 NA 
HETATM    2  H2  UNL     1      -7.617   5.568  68.749  1.00  0.00     0.000 HD 
HETATM    3  C   UNL     1      -9.011   4.658  67.666  1.00  0.00    -0.113 A  
HETATM    4  H1  UNL     1      -9.102   5.806  69.439  1.00  0.00     0.000 HD 
HETATM    5  C   UNL     1      -8.226   3.751  66.919  1.00  0.00    -0.096 A  
HETATM    6  C   UNL     1      -8.612   3.315  65.649  1.00  0.00    -0.115 A  
HETATM    7 BR   UNL     1      -6.599   3.052  67.625  1.00  0.00    -0.037 Br 
HETATM    8  C   UNL     1      -9.779   3.818  65.091  1.00  0.00    -0.176 A  
HETATM    9  C   UNL     1     -10.538   4.763  65.772  1.00  0.00    -0.262 A  
HETATM   10 BR   UNL     1     -10.319   3.246  63.371  1.00  0.00    -0.237 Br 
HETATM   11  C   UNL     1     -10.158   5.214  67.055  1.00  0.00    -0.252 A  
ENDROOT
BRANCH  11  12
HETATM   12  C   UNL     1     -10.979   6.326  67.680  1.00  0.00    -0.342 C  
BRANCH  12  13
HETATM   13  N   UNL     1     -10.937   7.567  66.890  1.00  0.00    -0.537 NA 
HETATM   14  H   UNL     1     -11.839   8.043  66.899  1.00  0.00     0.000 HD 
BRANCH  13  15
HETATM   15  C   UNL     1      -9.851   8.465  67.335  1.00  0.00    -0.191 C  
HETATM   16  C   UNL     1      -8.842   8.686  66.190  1.00  0.00    -0.204 C  
HETATM   17  C   UNL     1      -9.409   9.515  65.033  1.00  0.00    -0.294 C  
HETATM   18  C   UNL     1     -10.053  10.821  65.503  1.00  0.00    -0.274 C  
HETATM   19  C   UNL     1     -11.032  10.605  66.655  1.00  0.00    -0.144 C  
HETATM   20  O   UNL     1      -9.035  11.720  65.945  1.00  0.00    -0.342 OA 
HETATM   21  C   UNL     1     -10.377   9.832  67.802  1.00  0.00    -0.274 C  
HETATM   22  H   UNL     1      -9.435  12.531  66.237  1.00  0.00     0.000 HD 
ENDBRANCH  13  15
ENDBRANCH  12  13
ENDBRANCH  11  12
TORSDOF 3
ENDMDL
MODEL      194
REMARK 921   NORMALIZED FREE ENERGY PREDICTED BY IDOCK:   -3.26 KCAL/MOL
REMARK 922        TOTAL FREE ENERGY PREDICTED BY IDOCK:   -4.50 KCAL/MOL
REMARK 923 INTER-LIGAND FREE ENERGY PREDICTED BY IDOCK:   -4.01 KCAL/MOL
REMARK 924 INTRA-LIGAND FREE ENERGY PREDICTED BY IDOCK:   -0.49 KCAL/MOL
REMARK 927      BINDING AFFINITY PREDICTED BY RF-SCORE:    0.00 PKD
ROOT
HETATM    1  N   UNL     1      -8.084   7.124  67.128  1.00  0.00    -0.113 NA 
HETATM    2  H2  UNL     1      -7.988   7.969  66.565  1.00  0.00     0.000 HD 
HETATM    3  C   UNL     1      -8.655   6.113  66.325  1.00  0.00    -0.136 A  
HETATM    4  H1  UNL     1      -8.520   7.375  68.016  1.00  0.00     0.000 HD 
HETATM    5  C   UNL     1      -8.052   5.765  65.095  1.00  0.00    -0.133 A  
HETATM    6  C   UNL     1      -8.636   4.843  64.223  1.00  0.00    -0.141 A  
HETATM    7 BR   UNL     1      -6.384   6.525  64.573  1.00  0.00    -0.038 Br 
HETATM    8  C   UNL     1      -9.862   4.284  64.557  1.00  0.00    -0.123 A  
HETATM    9  C   UNL     1     -10.513   4.657  65.728  1.00  0.00    -0.290 A  
HETATM   10 BR   UNL     1     -10.674   3.037  63.390  1.00  0.00    -0.221 Br 
HETATM   11  C   UNL     1      -9.935   5.590  66.616  1.00  0.00    -0.213 A  
ENDROOT
BRANCH  11  12
HETATM   12  C   UNL     1     -10.760   6.025  67.813  1.00  0.00    -0.289 C  
BRANCH  12  13
HETATM   13  N   UNL     1     -10.198   5.547  69.087  1.00  0.00    -0.218 NA 
HETATM   14  H   UNL     1      -9.369   4.974  68.934  1.00  0.00     0.000 HD 
BRANCH  13  15
HETATM   15  C   UNL     1      -9.918   6.663  70.016  1.00  0.00    -0.172 C  
HETATM   16  C   UNL     1     -11.160   7.565  70.152  1.00  0.00    -0.246 C  
HETATM   17  C   UNL     1     -12.321   6.892  70.894  1.00  0.00    -0.365 C  
HETATM   18  C   UNL     1     -11.892   6.283  72.230  1.00  0.00    -0.278 C  
HETATM   19  C   UNL     1     -10.645   5.411  72.099  1.00  0.00    -0.284 C  
HETATM   20  O   UNL     1     -11.609   7.329  73.160  1.00  0.00    -0.576 OA 
HETATM   21  C   UNL     1      -9.507   6.169  71.413  1.00  0.00    -0.170 C  
HETATM   22  H   UNL     1     -11.343   6.951  73.990  1.00  0.00     0.000 HD 
ENDBRANCH  13  15
ENDBRANCH  12  13
ENDBRANCH  11  12
TORSDOF 3
ENDMDL
MODEL      195
REMARK 921   NORMALIZED FREE ENERGY PREDICTED BY IDOCK:   -3.23 KCAL/MOL
REMARK 922        TOTAL FREE ENERGY PREDICTED BY IDOCK:   -4.46 KCAL/MOL
REMARK 923 INTER-LIGAND FREE ENERGY PREDICTED BY IDOCK:   -3.89 KCAL/MOL
REMARK 924 INTRA-LIGAND FREE ENERGY PREDICTED BY IDOCK:   -0.57 KCAL/MOL
REMARK 927      BINDING AFFINITY PREDICTED BY RF-SCORE:    0.00 PKD
ROOT
HETATM    1  N   UNL     1      -8.921   9.056  63.492  1.00  0.00    -0.417 NA 
HETATM    2  H2  UNL     1      -8.247   9.758  63.186  1.00  0.00     0.000 HD 
HETATM    3  C   UNL     1      -9.486   9.483  64.714  1.00  0.00    -0.108 A  
HETATM    4  H1  UNL     1      -8.483   8.137  63.428  1.00  0.00     0.000 HD 
HETATM    5  C   UNL     1     -10.093  10.756  64.804  1.00  0.00    -0.331 A  
HETATM    6  C   UNL     1     -10.575  11.258  66.015  1.00  0.00    -0.314 A  
HETATM    7 BR   UNL     1     -10.307  11.850  63.258  1.00  0.00    -0.363 Br 
HETATM    8  C   UNL     1     -10.418  10.501  67.168  1.00  0.00    -0.249 A  
HETATM    9  C   UNL     1      -9.765   9.274  67.124  1.00  0.00    -0.225 A  
HETATM   10 BR   UNL     1     -11.058  11.162  68.819  1.00  0.00    -0.327 Br 
HETATM   11  C   UNL     1      -9.270   8.756  65.907  1.00  0.00    -0.282 A  
ENDROOT
BRANCH  11  12
HETATM   12  C   UNL     1      -8.474   7.466  65.964  1.00  0.00    -0.148 C  
BRANCH  12  13
HETATM   13  N   UNL     1      -9.110   6.379  65.203  1.00  0.00    -0.313 NA 
HETATM   14  H   UNL     1      -9.751   6.745  64.499  1.00  0.00     0.000 HD 
BRANCH  13  15
HETATM   15  C   UNL     1      -8.110   5.472  64.601  1.00  0.00    -0.127 C  
HETATM   16  C   UNL     1      -7.353   4.708  65.706  1.00  0.00    -0.077 C  
HETATM   17  C   UNL     1      -8.224   3.685  66.443  1.00  0.00    -0.100 C  
HETATM   18  C   UNL     1      -8.967   2.747  65.489  1.00  0.00    -0.135 C  
HETATM   19  C   UNL     1      -9.694   3.503  64.379  1.00  0.00    -0.172 C  
HETATM   20  O   UNL     1      -8.035   1.851  64.881  1.00  0.00    -0.071 OA 
HETATM   21  C   UNL     1      -8.748   4.453  63.642  1.00  0.00    -0.129 C  
HETATM   22  H   UNL     1      -8.495   1.269  64.289  1.00  0.00     0.000 HD 
ENDBRANCH  13  15
ENDBRANCH  12  13
ENDBRANCH  11  12
TORSDOF 3
ENDMDL
MODEL      196
REMARK 921   NORMALIZED FREE ENERGY PREDICTED BY IDOCK:   -3.23 KCAL/MOL
REMARK 922        TOTAL FREE ENERGY PREDICTED BY IDOCK:   -4.46 KCAL/MOL
REMARK 923 INTER-LIGAND FREE ENERGY PREDICTED BY IDOCK:   -4.02 KCAL/MOL
REMARK 924 INTRA-LIGAND FREE ENERGY PREDICTED BY IDOCK:   -0.44 KCAL/MOL
REMARK 927      BINDING AFFINITY PREDICTED BY RF-SCORE:    0.00 PKD
ROOT
HETATM    1  N   UNL     1      -6.838  13.658  67.242  1.00  0.00    -0.422 NA 
HETATM    2  H2  UNL     1      -5.981  13.292  66.829  1.00  0.00     0.000 HD 
HETATM    3  C   UNL     1      -7.661  12.568  67.603  1.00  0.00    -0.145 A  
HETATM    4  H1  UNL     1      -7.203  14.391  66.633  1.00  0.00     0.000 HD 
HETATM    5  C   UNL     1      -7.155  11.552  68.446  1.00  0.00    -0.081 A  
HETATM    6  C   UNL     1      -7.898  10.409  68.749  1.00  0.00    -0.108 A  
HETATM    7 BR   UNL     1      -5.429  11.707  69.239  1.00  0.00    -0.050 Br 
HETATM    8  C   UNL     1      -9.151  10.249  68.173  1.00  0.00    -0.136 A  
HETATM    9  C   UNL     1      -9.648  11.198  67.287  1.00  0.00    -0.182 A  
HETATM   10 BR   UNL     1     -10.173   8.707  68.564  1.00  0.00    -0.225 Br 
HETATM   11  C   UNL     1      -8.906  12.357  66.970  1.00  0.00    -0.210 A  
ENDROOT
BRANCH  11  12
HETATM   12  C   UNL     1      -9.471  13.285  65.911  1.00  0.00    -0.026 C  
BRANCH  12  13
HETATM   13  N   UNL     1      -9.305  14.705  66.261  1.00  0.00    -0.405 NA 
HETATM   14  H   UNL     1      -8.729  15.191  65.575  1.00  0.00     0.000 HD 
BRANCH  13  15
HETATM   15  C   UNL     1     -10.606  15.380  66.447  1.00  0.00    -0.307 C  
HETATM   16  C   UNL     1     -11.562  14.479  67.254  1.00  0.00    -0.405 C  
HETATM   17  C   UNL     1     -11.145  14.308  68.718  1.00  0.00    -0.276 C  
HETATM   18  C   UNL     1     -10.876  15.644  69.415  1.00  0.00    -0.264 C  
HETATM   19  C   UNL     1      -9.951  16.548  68.602  1.00  0.00    -0.248 C  
HETATM   20  O   UNL     1     -12.111  16.334  69.612  1.00  0.00    -0.233 OA 
HETATM   21  C   UNL     1     -10.466  16.729  67.173  1.00  0.00    -0.299 C  
HETATM   22  H   UNL     1     -11.945  17.163  70.044  1.00  0.00     0.000 HD 
ENDBRANCH  13  15
ENDBRANCH  12  13
ENDBRANCH  11  12
TORSDOF 3
ENDMDL
MODEL      197
REMARK 921   NORMALIZED FREE ENERGY PREDICTED BY IDOCK:   -3.22 KCAL/MOL
REMARK 922        TOTAL FREE ENERGY PREDICTED BY IDOCK:   -4.44 KCAL/MOL
REMARK 923 INTER-LIGAND FREE ENERGY PREDICTED BY IDOCK:   -3.94 KCAL/MOL
REMARK 924 INTRA-LIGAND FREE ENERGY PREDICTED BY IDOCK:   -0.51 KCAL/MOL
REMARK 927      BINDING AFFINITY PREDICTED BY RF-SCORE:    0.00 PKD
ROOT
HETATM    1  N   UNL     1     -11.327   7.563  69.714  1.00  0.00    -0.462 NA 
HETATM    2  H2  UNL     1     -10.854   7.762  70.596  1.00  0.00     0.000 HD 
HETATM    3  C   UNL     1     -10.364   7.121  68.781  1.00  0.00    -0.192 A  
HETATM    4  H1  UNL     1     -11.931   8.353  69.486  1.00  0.00     0.000 HD 
HETATM    5  C   UNL     1      -9.526   6.027  69.096  1.00  0.00    -0.128 A  
HETATM    6  C   UNL     1      -8.495   5.619  68.246  1.00  0.00    -0.105 A  
HETATM    7 BR   UNL     1      -9.781   5.030  70.701  1.00  0.00    -0.284 Br 
HETATM    8  C   UNL     1      -8.264   6.333  67.079  1.00  0.00    -0.109 A  
HETATM    9  C   UNL     1      -9.027   7.455  66.773  1.00  0.00    -0.159 A  
HETATM   10 BR   UNL     1      -6.872   5.803  65.915  1.00  0.00    -0.062 Br 
HETATM   11  C   UNL     1     -10.070   7.879  67.625  1.00  0.00    -0.262 A  
ENDROOT
BRANCH  11  12
HETATM   12  C   UNL     1     -10.779   9.174  67.276  1.00  0.00    -0.154 C  
BRANCH  12  13
HETATM   13  N   UNL     1      -9.865  10.327  67.255  1.00  0.00    -0.176 NA 
HETATM   14  H   UNL     1     -10.171  11.032  66.584  1.00  0.00     0.000 HD 
BRANCH  13  15
HETATM   15  C   UNL     1      -9.683  10.909  68.602  1.00  0.00    -0.185 C  
HETATM   16  C   UNL     1      -8.840  12.197  68.514  1.00  0.00    -0.079 C  
HETATM   17  C   UNL     1      -9.570  13.355  67.826  1.00  0.00    -0.213 C  
HETATM   18  C   UNL     1     -10.961  13.607  68.411  1.00  0.00    -0.262 C  
HETATM   19  C   UNL     1     -11.786  12.326  68.522  1.00  0.00    -0.359 C  
HETATM   20  O   UNL     1     -10.832  14.169  69.718  1.00  0.00    -0.448 OA 
HETATM   21  C   UNL     1     -11.023  11.238  69.281  1.00  0.00    -0.297 C  
HETATM   22  H   UNL     1     -11.695  14.325  70.081  1.00  0.00     0.000 HD 
ENDBRANCH  13  15
ENDBRANCH  12  13
ENDBRANCH  11  12
TORSDOF 3
ENDMDL
MODEL      198
REMARK 921   NORMALIZED FREE ENERGY PREDICTED BY IDOCK:   -3.20 KCAL/MOL
REMARK 922        TOTAL FREE ENERGY PREDICTED BY IDOCK:   -4.42 KCAL/MOL
REMARK 923 INTER-LIGAND FREE ENERGY PREDICTED BY IDOCK:   -4.28 KCAL/MOL
REMARK 924 INTRA-LIGAND FREE ENERGY PREDICTED BY IDOCK:   -0.14 KCAL/MOL
REMARK 927      BINDING AFFINITY PREDICTED BY RF-SCORE:    0.00 PKD
ROOT
HETATM    1  N   UNL     1     -10.147  19.072  68.874  1.00  0.00    -0.502 NA 
HETATM    2  H2  UNL     1     -10.911  19.741  68.777  1.00  0.00     0.000 HD 
HETATM    3  C   UNL     1     -10.394  17.982  68.011  1.00  0.00    -0.387 A  
HETATM    4  H1  UNL     1      -9.987  18.907  69.868  1.00  0.00     0.000 HD 
HETATM    5  C   UNL     1     -10.617  18.210  66.634  1.00  0.00    -0.278 A  
HETATM    6  C   UNL     1     -10.963  17.174  65.763  1.00  0.00     0.107 A  
HETATM    7 BR   UNL     1     -10.429  19.953  65.887  1.00  0.00    -0.467 Br 
HETATM    8  C   UNL     1     -11.131  15.894  66.272  1.00  0.00    -0.014 A  
HETATM    9  C   UNL     1     -10.985  15.650  67.634  1.00  0.00    -0.315 A  
HETATM   10 BR   UNL     1     -11.604  14.478  65.113  1.00  0.00    -0.383 Br 
HETATM   11  C   UNL     1     -10.639  16.689  68.525  1.00  0.00    -0.338 A  
ENDROOT
BRANCH  11  12
HETATM   12  C   UNL     1     -10.610  16.362  70.007  1.00  0.00    -0.203 C  
BRANCH  12  13
HETATM   13  N   UNL     1     -11.957  16.296  70.594  1.00  0.00    -0.456 NA 
HETATM   14  H   UNL     1     -12.488  17.145  70.400  1.00  0.00     0.000 HD 
BRANCH  13  15
HETATM   15  C   UNL     1     -12.691  15.091  70.153  1.00  0.00    -0.224 C  
HETATM   16  C   UNL     1     -11.983  13.821  70.667  1.00  0.00    -0.340 C  
HETATM   17  C   UNL     1     -12.079  13.644  72.186  1.00  0.00     0.593 C  
HETATM   18  C   UNL     1     -13.514  13.762  72.704  1.00  0.00    -0.530 C  
HETATM   19  C   UNL     1     -14.224  15.006  72.173  1.00  0.00    -0.636 C  
HETATM   20  O   UNL     1     -14.261  12.615  72.297  1.00  0.00    -0.152 OA 
HETATM   21  C   UNL     1     -14.147  15.080  70.647  1.00  0.00     0.243 C  
HETATM   22  H   UNL     1     -15.152  12.688  72.619  1.00  0.00     0.000 HD 
ENDBRANCH  13  15
ENDBRANCH  12  13
ENDBRANCH  11  12
TORSDOF 3
ENDMDL
MODEL      199
REMARK 921   NORMALIZED FREE ENERGY PREDICTED BY IDOCK:   -3.20 KCAL/MOL
REMARK 922        TOTAL FREE ENERGY PREDICTED BY IDOCK:   -4.42 KCAL/MOL
REMARK 923 INTER-LIGAND FREE ENERGY PREDICTED BY IDOCK:   -3.95 KCAL/MOL
REMARK 924 INTRA-LIGAND FREE ENERGY PREDICTED BY IDOCK:   -0.47 KCAL/MOL
REMARK 927      BINDING AFFINITY PREDICTED BY RF-SCORE:    0.00 PKD
ROOT
HETATM    1  N   UNL     1      -8.298   9.665  68.290  1.00  0.00    -0.117 NA 
HETATM    2  H2  UNL     1      -7.961  10.616  68.140  1.00  0.00     0.000 HD 
HETATM    3  C   UNL     1      -9.476   9.726  69.066  1.00  0.00    -0.173 A  
HETATM    4  H1  UNL     1      -7.514   9.089  68.599  1.00  0.00     0.000 HD 
HETATM    5  C   UNL     1     -10.562  10.523  68.638  1.00  0.00    -0.200 A  
HETATM    6  C   UNL     1     -11.706  10.691  69.422  1.00  0.00    -0.344 A  
HETATM    7 BR   UNL     1     -10.527  11.397  66.944  1.00  0.00    -0.293 Br 
HETATM    8  C   UNL     1     -11.760  10.089  70.671  1.00  0.00    -0.337 A  
HETATM    9  C   UNL     1     -10.681   9.354  71.149  1.00  0.00    -0.417 A  
HETATM   10 BR   UNL     1     -13.297  10.307  71.751  1.00  0.00    -0.437 Br 
HETATM   11  C   UNL     1      -9.517   9.179  70.368  1.00  0.00    -0.269 A  
ENDROOT
BRANCH  11  12
HETATM   12  C   UNL     1      -8.345   8.458  71.007  1.00  0.00    -0.134 C  
BRANCH  12  13
HETATM   13  N   UNL     1      -8.654   7.054  71.324  1.00  0.00    -0.119 NA 
HETATM   14  H   UNL     1      -8.075   6.415  70.779  1.00  0.00     0.000 HD 
BRANCH  13  15
HETATM   15  C   UNL     1      -8.541   6.780  72.772  1.00  0.00    -0.121 C  
HETATM   16  C   UNL     1      -9.943   6.712  73.410  1.00  0.00    -0.231 C  
HETATM   17  C   UNL     1     -10.750   5.484  72.974  1.00  0.00    -0.295 C  
HETATM   18  C   UNL     1      -9.970   4.178  73.137  1.00  0.00    -0.140 C  
HETATM   19  C   UNL     1      -8.571   4.255  72.528  1.00  0.00    -0.108 C  
HETATM   20  O   UNL     1      -9.835   3.875  74.526  1.00  0.00    -0.118 OA 
HETATM   21  C   UNL     1      -7.800   5.465  73.061  1.00  0.00    -0.098 C  
HETATM   22  H   UNL     1      -9.351   3.065  74.628  1.00  0.00     0.000 HD 
ENDBRANCH  13  15
ENDBRANCH  12  13
ENDBRANCH  11  12
TORSDOF 3
ENDMDL
MODEL      200
REMARK 921   NORMALIZED FREE ENERGY PREDICTED BY IDOCK:   -3.19 KCAL/MOL
REMARK 922        TOTAL FREE ENERGY PREDICTED BY IDOCK:   -4.41 KCAL/MOL
REMARK 923 INTER-LIGAND FREE ENERGY PREDICTED BY IDOCK:   -3.90 KCAL/MOL
REMARK 924 INTRA-LIGAND FREE ENERGY PREDICTED BY IDOCK:   -0.51 KCAL/MOL
REMARK 927      BINDING AFFINITY PREDICTED BY RF-SCORE:    0.00 PKD
ROOT
HETATM    1  N   UNL     1     -11.304   8.993  69.834  1.00  0.00    -0.434 NA 
HETATM    2  H2  UNL     1     -10.694   9.194  70.626  1.00  0.00     0.000 HD 
HETATM    3  C   UNL     1     -10.952   7.731  69.307  1.00  0.00     0.007 A  
HETATM    4  H1  UNL     1     -11.324   9.811  69.225  1.00  0.00     0.000 HD 
HETATM    5  C   UNL     1     -10.924   6.597  70.151  1.00  0.00    -0.305 A  
HETATM    6  C   UNL     1     -10.486   5.352  69.696  1.00  0.00    -0.361 A  
HETATM    7 BR   UNL     1     -11.513   6.709  71.960  1.00  0.00    -0.347 Br 
HETATM    8  C   UNL     1     -10.029   5.235  68.391  1.00  0.00    -0.159 A  
HETATM    9  C   UNL     1      -9.980   6.346  67.556  1.00  0.00    -0.165 A  
HETATM   10 BR   UNL     1      -9.426   3.559  67.754  1.00  0.00    -0.188 Br 
HETATM   11  C   UNL     1     -10.417   7.612  68.005  1.00  0.00    -0.247 A  
ENDROOT
BRANCH  11  12
HETATM   12  C   UNL     1     -10.226   8.792  67.070  1.00  0.00    -0.281 C  
BRANCH  12  13
HETATM   13  N   UNL     1      -9.178   9.714  67.538  1.00  0.00    -0.133 NA 
HETATM   14  H   UNL     1      -8.365   9.207  67.886  1.00  0.00     0.000 HD 
BRANCH  13  15
HETATM   15  C   UNL     1      -8.798  10.688  66.493  1.00  0.00    -0.151 C  
HETATM   16  C   UNL     1      -9.551  12.016  66.705  1.00  0.00    -0.215 C  
HETATM   17  C   UNL     1      -9.096  12.780  67.953  1.00  0.00    -0.204 C  
HETATM   18  C   UNL     1      -7.577  12.955  68.016  1.00  0.00    -0.137 C  
HETATM   19  C   UNL     1      -6.830  11.644  67.779  1.00  0.00    -0.079 C  
HETATM   20  O   UNL     1      -7.165  13.890  67.018  1.00  0.00    -0.353 OA 
HETATM   21  C   UNL     1      -7.287  10.972  66.482  1.00  0.00    -0.144 C  
HETATM   22  H   UNL     1      -6.222  13.998  67.057  1.00  0.00     0.000 HD 
ENDBRANCH  13  15
ENDBRANCH  12  13
ENDBRANCH  11  12
TORSDOF 3
ENDMDL
MODEL      201
REMARK 921   NORMALIZED FREE ENERGY PREDICTED BY IDOCK:   -3.14 KCAL/MOL
REMARK 922        TOTAL FREE ENERGY PREDICTED BY IDOCK:   -4.35 KCAL/MOL
REMARK 923 INTER-LIGAND FREE ENERGY PREDICTED BY IDOCK:   -3.86 KCAL/MOL
REMARK 924 INTRA-LIGAND FREE ENERGY PREDICTED BY IDOCK:   -0.49 KCAL/MOL
REMARK 927      BINDING AFFINITY PREDICTED BY RF-SCORE:    0.00 PKD
ROOT
HETATM    1  N   UNL     1      -9.012   7.050  65.202  1.00  0.00    -0.318 NA 
HETATM    2  H2  UNL     1      -9.920   6.902  64.762  1.00  0.00     0.000 HD 
HETATM    3  C   UNL     1      -9.053   6.503  66.504  1.00  0.00    -0.152 A  
HETATM    4  H1  UNL     1      -8.742   8.024  65.068  1.00  0.00     0.000 HD 
HETATM    5  C   UNL     1      -9.428   5.153  66.690  1.00  0.00    -0.144 A  
HETATM    6  C   UNL     1      -9.577   4.599  67.964  1.00  0.00    -0.207 A  
HETATM    7 BR   UNL     1      -9.724   4.004  65.199  1.00  0.00    -0.204 Br 
HETATM    8  C   UNL     1      -9.391   5.410  69.076  1.00  0.00    -0.127 A  
HETATM    9  C   UNL     1      -9.089   6.758  68.925  1.00  0.00    -0.133 A  
HETATM   10 BR   UNL     1      -9.594   4.683  70.810  1.00  0.00    -0.267 Br 
HETATM   11  C   UNL     1      -8.937   7.331  67.643  1.00  0.00    -0.126 A  
ENDROOT
BRANCH  11  12
HETATM   12  C   UNL     1      -8.718   8.830  67.566  1.00  0.00    -0.134 C  
BRANCH  12  13
HETATM   13  N   UNL     1      -9.973   9.571  67.361  1.00  0.00    -0.177 NA 
HETATM   14  H   UNL     1     -10.778   8.945  67.361  1.00  0.00     0.000 HD 
BRANCH  13  15
HETATM   15  C   UNL     1     -10.137  10.659  68.349  1.00  0.00    -0.166 C  
HETATM   16  C   UNL     1      -8.993  11.682  68.207  1.00  0.00    -0.185 C  
HETATM   17  C   UNL     1      -9.062  12.495  66.910  1.00  0.00    -0.213 C  
HETATM   18  C   UNL     1     -10.439  13.123  66.681  1.00  0.00    -0.277 C  
HETATM   19  C   UNL     1     -11.574  12.115  66.848  1.00  0.00    -0.408 C  
HETATM   20  O   UNL     1     -10.640  14.181  67.619  1.00  0.00    -0.250 OA 
HETATM   21  C   UNL     1     -11.480  11.391  68.193  1.00  0.00    -0.375 C  
HETATM   22  H   UNL     1     -11.494  14.571  67.478  1.00  0.00     0.000 HD 
ENDBRANCH  13  15
ENDBRANCH  12  13
ENDBRANCH  11  12
TORSDOF 3
ENDMDL
MODEL      202
REMARK 921   NORMALIZED FREE ENERGY PREDICTED BY IDOCK:   -3.12 KCAL/MOL
REMARK 922        TOTAL FREE ENERGY PREDICTED BY IDOCK:   -4.33 KCAL/MOL
REMARK 923 INTER-LIGAND FREE ENERGY PREDICTED BY IDOCK:   -3.63 KCAL/MOL
REMARK 924 INTRA-LIGAND FREE ENERGY PREDICTED BY IDOCK:   -0.70 KCAL/MOL
REMARK 927      BINDING AFFINITY PREDICTED BY RF-SCORE:    0.00 PKD
ROOT
HETATM    1  N   UNL     1      -7.276   9.541  67.877  1.00  0.00    -0.081 NA 
HETATM    2  H2  UNL     1      -7.994  10.171  67.520  1.00  0.00     0.000 HD 
HETATM    3  C   UNL     1      -7.659   8.214  67.583  1.00  0.00    -0.098 A  
HETATM    4  H1  UNL     1      -7.062   9.807  68.839  1.00  0.00     0.000 HD 
HETATM    5  C   UNL     1      -7.956   7.845  66.251  1.00  0.00    -0.103 A  
HETATM    6  C   UNL     1      -8.434   6.573  65.929  1.00  0.00    -0.147 A  
HETATM    7 BR   UNL     1      -7.693   9.069  64.814  1.00  0.00    -0.115 Br 
HETATM    8  C   UNL     1      -8.660   5.660  66.950  1.00  0.00    -0.110 A  
HETATM    9  C   UNL     1      -8.441   6.016  68.277  1.00  0.00    -0.112 A  
HETATM   10 BR   UNL     1      -9.311   3.934  66.539  1.00  0.00    -0.210 Br 
HETATM   11  C   UNL     1      -7.961   7.299  68.616  1.00  0.00    -0.124 A  
ENDROOT
BRANCH  11  12
HETATM   12  C   UNL     1      -7.856   7.642  70.091  1.00  0.00    -0.097 C  
BRANCH  12  13
HETATM   13  N   UNL     1      -8.987   8.461  70.558  1.00  0.00    -0.144 NA 
HETATM   14  H   UNL     1      -9.724   8.511  69.856  1.00  0.00     0.000 HD 
BRANCH  13  15
HETATM   15  C   UNL     1      -9.510   7.985  71.856  1.00  0.00    -0.182 C  
HETATM   16  C   UNL     1     -10.794   8.754  72.226  1.00  0.00    -0.328 C  
HETATM   17  C   UNL     1     -11.986   8.417  71.323  1.00  0.00    -0.323 C  
HETATM   18  C   UNL     1     -12.224   6.911  71.199  1.00  0.00    -0.379 C  
HETATM   19  C   UNL     1     -10.946   6.145  70.860  1.00  0.00    -0.359 C  
HETATM   20  O   UNL     1     -12.730   6.407  72.436  1.00  0.00    -0.547 OA 
HETATM   21  C   UNL     1      -9.822   6.479  71.842  1.00  0.00    -0.168 C  
HETATM   22  H   UNL     1     -12.878   5.472  72.360  1.00  0.00     0.000 HD 
ENDBRANCH  13  15
ENDBRANCH  12  13
ENDBRANCH  11  12
TORSDOF 3
ENDMDL
MODEL      203
REMARK 921   NORMALIZED FREE ENERGY PREDICTED BY IDOCK:   -3.12 KCAL/MOL
REMARK 922        TOTAL FREE ENERGY PREDICTED BY IDOCK:   -4.33 KCAL/MOL
REMARK 923 INTER-LIGAND FREE ENERGY PREDICTED BY IDOCK:   -3.83 KCAL/MOL
REMARK 924 INTRA-LIGAND FREE ENERGY PREDICTED BY IDOCK:   -0.49 KCAL/MOL
REMARK 927      BINDING AFFINITY PREDICTED BY RF-SCORE:    0.00 PKD
ROOT
HETATM    1  N   UNL     1     -10.691   7.733  68.057  1.00  0.00    -0.424 NA 
HETATM    2  H2  UNL     1      -9.852   7.432  68.552  1.00  0.00     0.000 HD 
HETATM    3  C   UNL     1     -10.302   8.544  66.968  1.00  0.00    -0.309 A  
HETATM    4  H1  UNL     1     -11.361   8.086  68.741  1.00  0.00     0.000 HD 
HETATM    5  C   UNL     1      -9.374   8.054  66.021  1.00  0.00    -0.091 A  
HETATM    6  C   UNL     1      -8.886   8.856  64.986  1.00  0.00    -0.183 A  
HETATM    7 BR   UNL     1      -8.758   6.252  66.095  1.00  0.00    -0.153 Br 
HETATM    8  C   UNL     1      -9.295  10.180  64.912  1.00  0.00    -0.254 A  
HETATM    9  C   UNL     1     -10.154  10.710  65.868  1.00  0.00    -0.321 A  
HETATM   10 BR   UNL     1      -8.643  11.286  63.523  1.00  0.00     0.384 Br 
HETATM   11  C   UNL     1     -10.652   9.912  66.920  1.00  0.00    -0.248 A  
ENDROOT
BRANCH  11  12
HETATM   12  C   UNL     1     -11.494  10.595  67.982  1.00  0.00    -0.212 C  
BRANCH  12  13
HETATM   13  N   UNL     1     -11.022  11.957  68.282  1.00  0.00    -0.215 NA 
HETATM   14  H   UNL     1     -10.287  12.245  67.637  1.00  0.00     0.000 HD 
BRANCH  13  15
HETATM   15  C   UNL     1     -12.134  12.931  68.301  1.00  0.00    -0.129 C  
HETATM   16  C   UNL     1     -12.110  13.738  69.614  1.00  0.00    -0.392 C  
HETATM   17  C   UNL     1     -10.920  14.698  69.716  1.00  0.00    -0.232 C  
HETATM   18  C   UNL     1     -10.774  15.589  68.480  1.00  0.00    -0.259 C  
HETATM   19  C   UNL     1     -10.824  14.792  67.178  1.00  0.00    -0.311 C  
HETATM   20  O   UNL     1     -11.833  16.547  68.457  1.00  0.00    -0.065 OA 
HETATM   21  C   UNL     1     -12.073  13.909  67.116  1.00  0.00    -0.422 C  
HETATM   22  H   UNL     1     -11.742  17.100  67.691  1.00  0.00     0.000 HD 
ENDBRANCH  13  15
ENDBRANCH  12  13
ENDBRANCH  11  12
TORSDOF 3
ENDMDL
MODEL      204
REMARK 921   NORMALIZED FREE ENERGY PREDICTED BY IDOCK:   -3.11 KCAL/MOL
REMARK 922        TOTAL FREE ENERGY PREDICTED BY IDOCK:   -4.32 KCAL/MOL
REMARK 923 INTER-LIGAND FREE ENERGY PREDICTED BY IDOCK:   -3.92 KCAL/MOL
REMARK 924 INTRA-LIGAND FREE ENERGY PREDICTED BY IDOCK:   -0.40 KCAL/MOL
REMARK 927      BINDING AFFINITY PREDICTED BY RF-SCORE:    0.00 PKD
ROOT
HETATM    1  N   UNL     1     -11.223  13.315  66.358  1.00  0.00    -0.296 NA 
HETATM    2  H2  UNL     1     -12.128  12.922  66.101  1.00  0.00     0.000 HD 
HETATM    3  C   UNL     1     -10.251  12.294  66.266  1.00  0.00    -0.229 A  
HETATM    4  H1  UNL     1     -11.331  13.836  67.228  1.00  0.00     0.000 HD 
HETATM    5  C   UNL     1     -10.100  11.571  65.061  1.00  0.00    -0.270 A  
HETATM    6  C   UNL     1      -9.223  10.489  64.956  1.00  0.00    -0.245 A  
HETATM    7 BR   UNL     1     -11.078  12.056  63.499  1.00  0.00    -0.517 Br 
HETATM    8  C   UNL     1      -8.509  10.090  66.078  1.00  0.00    -0.131 A  
HETATM    9  C   UNL     1      -8.686  10.739  67.296  1.00  0.00    -0.130 A  
HETATM   10 BR   UNL     1      -7.319   8.626  65.962  1.00  0.00    -0.086 Br 
HETATM   11  C   UNL     1      -9.572  11.832  67.416  1.00  0.00    -0.173 A  
ENDROOT
BRANCH  11  12
HETATM   12  C   UNL     1      -9.789  12.410  68.801  1.00  0.00     0.008 C  
BRANCH  12  13
HETATM   13  N   UNL     1     -10.762  11.634  69.588  1.00  0.00    -0.447 NA 
HETATM   14  H   UNL     1     -10.493  11.590  70.570  1.00  0.00     0.000 HD 
BRANCH  13  15
HETATM   15  C   UNL     1     -12.137  12.154  69.429  1.00  0.00    -0.190 C  
HETATM   16  C   UNL     1     -13.125  11.301  70.248  1.00  0.00     0.233 C  
HETATM   17  C   UNL     1     -12.958  11.463  71.763  1.00  0.00    -0.519 C  
HETATM   18  C   UNL     1     -12.950  12.929  72.201  1.00  0.00    -0.245 C  
HETATM   19  C   UNL     1     -11.990  13.780  71.372  1.00  0.00     0.069 C  
HETATM   20  O   UNL     1     -14.263  13.474  72.061  1.00  0.00    -0.385 OA 
HETATM   21  C   UNL     1     -12.261  13.621  69.874  1.00  0.00    -0.367 C  
HETATM   22  H   UNL     1     -14.259  14.383  72.333  1.00  0.00     0.000 HD 
ENDBRANCH  13  15
ENDBRANCH  12  13
ENDBRANCH  11  12
TORSDOF 3
ENDMDL
MODEL      205
REMARK 921   NORMALIZED FREE ENERGY PREDICTED BY IDOCK:   -3.10 KCAL/MOL
REMARK 922        TOTAL FREE ENERGY PREDICTED BY IDOCK:   -4.31 KCAL/MOL
REMARK 923 INTER-LIGAND FREE ENERGY PREDICTED BY IDOCK:   -3.57 KCAL/MOL
REMARK 924 INTRA-LIGAND FREE ENERGY PREDICTED BY IDOCK:   -0.74 KCAL/MOL
REMARK 927      BINDING AFFINITY PREDICTED BY RF-SCORE:    0.00 PKD
ROOT
HETATM    1  N   UNL     1      -6.818  19.027  67.967  1.00  0.00    -0.230 NA 
HETATM    2  H2  UNL     1      -5.950  19.554  67.870  1.00  0.00     0.000 HD 
HETATM    3  C   UNL     1      -6.538  17.826  68.656  1.00  0.00    -0.218 A  
HETATM    4  H1  UNL     1      -7.281  18.996  67.058  1.00  0.00     0.000 HD 
HETATM    5  C   UNL     1      -5.896  17.868  69.915  1.00  0.00    -0.237 A  
HETATM    6  C   UNL     1      -5.511  16.705  70.584  1.00  0.00    -0.126 A  
HETATM    7 BR   UNL     1      -5.545  19.530  70.779  1.00  0.00    -0.258 Br 
HETATM    8  C   UNL     1      -5.729  15.476  69.977  1.00  0.00    -0.140 A  
HETATM    9  C   UNL     1      -6.297  15.404  68.709  1.00  0.00    -0.101 A  
HETATM   10 BR   UNL     1      -5.211  13.887  70.862  1.00  0.00    -0.148 Br 
HETATM   11  C   UNL     1      -6.688  16.573  68.020  1.00  0.00    -0.147 A  
ENDROOT
BRANCH  11  12
HETATM   12  C   UNL     1      -7.195  16.414  66.599  1.00  0.00    -0.173 C  
BRANCH  12  13
HETATM   13  N   UNL     1      -8.653  16.584  66.501  1.00  0.00    -0.256 NA 
HETATM   14  H   UNL     1      -8.894  17.453  66.026  1.00  0.00     0.000 HD 
BRANCH  13  15
HETATM   15  C   UNL     1      -9.299  15.421  65.855  1.00  0.00    -0.294 C  
HETATM   16  C   UNL     1      -9.148  14.170  66.742  1.00  0.00    -0.266 C  
HETATM   17  C   UNL     1      -9.967  14.239  68.036  1.00  0.00    -0.220 C  
HETATM   18  C   UNL     1     -11.433  14.605  67.787  1.00  0.00    -0.340 C  
HETATM   19  C   UNL     1     -11.582  15.829  66.886  1.00  0.00     0.293 C  
HETATM   20  O   UNL     1     -12.096  13.506  67.160  1.00  0.00    -0.378 OA 
HETATM   21  C   UNL     1     -10.794  15.660  65.585  1.00  0.00    -0.336 C  
HETATM   22  H   UNL     1     -13.005  13.733  67.005  1.00  0.00     0.000 HD 
ENDBRANCH  13  15
ENDBRANCH  12  13
ENDBRANCH  11  12
TORSDOF 3
ENDMDL
MODEL      206
REMARK 921   NORMALIZED FREE ENERGY PREDICTED BY IDOCK:   -3.10 KCAL/MOL
REMARK 922        TOTAL FREE ENERGY PREDICTED BY IDOCK:   -4.30 KCAL/MOL
REMARK 923 INTER-LIGAND FREE ENERGY PREDICTED BY IDOCK:   -4.10 KCAL/MOL
REMARK 924 INTRA-LIGAND FREE ENERGY PREDICTED BY IDOCK:   -0.20 KCAL/MOL
REMARK 927      BINDING AFFINITY PREDICTED BY RF-SCORE:    0.00 PKD
ROOT
HETATM    1  N   UNL     1     -10.696  12.424  67.527  1.00  0.00    -0.224 NA 
HETATM    2  H2  UNL     1     -11.489  11.911  67.141  1.00  0.00     0.000 HD 
HETATM    3  C   UNL     1     -11.157  13.219  68.600  1.00  0.00    -0.268 A  
HETATM    4  H1  UNL     1     -10.184  12.855  66.757  1.00  0.00     0.000 HD 
HETATM    5  C   UNL     1     -11.867  12.621  69.666  1.00  0.00    -0.311 A  
HETATM    6  C   UNL     1     -12.426  13.381  70.696  1.00  0.00    -0.385 A  
HETATM    7 BR   UNL     1     -12.075  10.729  69.765  1.00  0.00    -0.365 Br 
HETATM    8  C   UNL     1     -12.315  14.764  70.648  1.00  0.00    -0.337 A  
HETATM    9  C   UNL     1     -11.681  15.386  69.577  1.00  0.00    -0.364 A  
HETATM   10 BR   UNL     1     -13.068  15.814  72.028  1.00  0.00    -0.447 Br 
HETATM   11  C   UNL     1     -11.114  14.629  68.529  1.00  0.00    -0.273 A  
ENDROOT
BRANCH  11  12
HETATM   12  C   UNL     1     -10.541  15.387  67.346  1.00  0.00    -0.289 C  
BRANCH  12  13
HETATM   13  N   UNL     1      -9.072  15.322  67.295  1.00  0.00    -0.191 NA 
HETATM   14  H   UNL     1      -8.729  15.414  66.339  1.00  0.00     0.000 HD 
BRANCH  13  15
HETATM   15  C   UNL     1      -8.447  16.320  68.189  1.00  0.00    -0.174 C  
HETATM   16  C   UNL     1      -8.456  15.810  69.643  1.00  0.00    -0.019 C  
HETATM   17  C   UNL     1      -7.514  14.623  69.877  1.00  0.00     0.117 C  
HETATM   18  C   UNL     1      -6.098  14.884  69.358  1.00  0.00    -0.109 C  
HETATM   19  C   UNL     1      -6.091  15.416  67.927  1.00  0.00    -0.166 C  
HETATM   20  O   UNL     1      -5.456  15.848  70.195  1.00  0.00    -0.140 OA 
HETATM   21  C   UNL     1      -6.998  16.640  67.784  1.00  0.00    -0.153 C  
HETATM   22  H   UNL     1      -4.577  16.010  69.874  1.00  0.00     0.000 HD 
ENDBRANCH  13  15
ENDBRANCH  12  13
ENDBRANCH  11  12
TORSDOF 3
ENDMDL
MODEL      207
REMARK 921   NORMALIZED FREE ENERGY PREDICTED BY IDOCK:   -3.03 KCAL/MOL
REMARK 922        TOTAL FREE ENERGY PREDICTED BY IDOCK:   -4.22 KCAL/MOL
REMARK 923 INTER-LIGAND FREE ENERGY PREDICTED BY IDOCK:   -3.86 KCAL/MOL
REMARK 924 INTRA-LIGAND FREE ENERGY PREDICTED BY IDOCK:   -0.36 KCAL/MOL
REMARK 927      BINDING AFFINITY PREDICTED BY RF-SCORE:    0.00 PKD
ROOT
HETATM    1  N   UNL     1      -8.647  11.036  68.253  1.00  0.00    -0.136 NA 
HETATM    2  H2  UNL     1      -7.840  11.646  68.386  1.00  0.00     0.000 HD 
HETATM    3  C   UNL     1      -8.239   9.912  67.502  1.00  0.00    -0.114 A  
HETATM    4  H1  UNL     1      -9.432  11.604  67.932  1.00  0.00     0.000 HD 
HETATM    5  C   UNL     1      -7.151   9.125  67.945  1.00  0.00    -0.079 A  
HETATM    6  C   UNL     1      -6.651   8.066  67.184  1.00  0.00    -0.057 A  
HETATM    7 BR   UNL     1      -6.323   9.459  69.629  1.00  0.00    -0.041 Br 
HETATM    8  C   UNL     1      -7.213   7.805  65.942  1.00  0.00    -0.072 A  
HETATM    9  C   UNL     1      -8.239   8.603  65.449  1.00  0.00    -0.137 A  
HETATM   10 BR   UNL     1      -6.549   6.379  64.893  1.00  0.00    -0.039 Br 
HETATM   11  C   UNL     1      -8.752   9.679  66.206  1.00  0.00    -0.156 A  
ENDROOT
BRANCH  11  12
HETATM   12  C   UNL     1      -9.792  10.567  65.549  1.00  0.00    -0.265 C  
BRANCH  12  13
HETATM   13  N   UNL     1      -9.438  11.994  65.619  1.00  0.00    -0.381 NA 
HETATM   14  H   UNL     1      -8.427  12.126  65.595  1.00  0.00     0.000 HD 
BRANCH  13  15
HETATM   15  C   UNL     1     -10.108  12.779  64.561  1.00  0.00    -0.242 C  
HETATM   16  C   UNL     1     -11.533  12.241  64.323  1.00  0.00    -0.429 C  
HETATM   17  C   UNL     1     -12.487  12.510  65.492  1.00  0.00    -0.228 C  
HETATM   18  C   UNL     1     -12.482  13.976  65.932  1.00  0.00    -0.481 C  
HETATM   19  C   UNL     1     -11.069  14.516  66.142  1.00  0.00    -0.334 C  
HETATM   20  O   UNL     1     -13.121  14.773  64.934  1.00  0.00    -0.311 OA 
HETATM   21  C   UNL     1     -10.194  14.274  64.909  1.00  0.00    -0.361 C  
HETATM   22  H   UNL     1     -13.118  15.683  65.207  1.00  0.00     0.000 HD 
ENDBRANCH  13  15
ENDBRANCH  12  13
ENDBRANCH  11  12
TORSDOF 3
ENDMDL
MODEL      208
REMARK 921   NORMALIZED FREE ENERGY PREDICTED BY IDOCK:   -3.02 KCAL/MOL
REMARK 922        TOTAL FREE ENERGY PREDICTED BY IDOCK:   -4.21 KCAL/MOL
REMARK 923 INTER-LIGAND FREE ENERGY PREDICTED BY IDOCK:   -3.61 KCAL/MOL
REMARK 924 INTRA-LIGAND FREE ENERGY PREDICTED BY IDOCK:   -0.60 KCAL/MOL
REMARK 927      BINDING AFFINITY PREDICTED BY RF-SCORE:    0.00 PKD
ROOT
HETATM    1  N   UNL     1     -10.858   8.253  69.376  1.00  0.00    -0.401 NA 
HETATM    2  H2  UNL     1     -10.812   9.139  69.878  1.00  0.00     0.000 HD 
HETATM    3  C   UNL     1     -10.807   7.202  70.318  1.00  0.00    -0.249 A  
HETATM    4  H1  UNL     1     -10.187   8.281  68.608  1.00  0.00     0.000 HD 
HETATM    5  C   UNL     1     -11.736   7.163  71.382  1.00  0.00    -0.296 A  
HETATM    6  C   UNL     1     -11.660   6.199  72.391  1.00  0.00    -0.338 A  
HETATM    7 BR   UNL     1     -13.167   8.418  71.480  1.00  0.00    -0.288 Br 
HETATM    8  C   UNL     1     -10.619   5.281  72.367  1.00  0.00    -0.225 A  
HETATM    9  C   UNL     1      -9.651   5.336  71.371  1.00  0.00    -0.209 A  
HETATM   10 BR   UNL     1     -10.493   3.971  73.725  1.00  0.00    -0.297 Br 
HETATM   11  C   UNL     1      -9.714   6.306  70.347  1.00  0.00    -0.189 A  
ENDROOT
BRANCH  11  12
HETATM   12  C   UNL     1      -8.559   6.367  69.365  1.00  0.00    -0.130 C  
BRANCH  12  13
HETATM   13  N   UNL     1      -7.971   7.713  69.273  1.00  0.00    -0.124 NA 
HETATM   14  H   UNL     1      -7.451   7.950  70.117  1.00  0.00     0.000 HD 
BRANCH  13  15
HETATM   15  C   UNL     1      -7.133   7.865  68.065  1.00  0.00    -0.085 C  
HETATM   16  C   UNL     1      -7.886   7.341  66.826  1.00  0.00    -0.113 C  
HETATM   17  C   UNL     1      -9.080   8.215  66.427  1.00  0.00    -0.226 C  
HETATM   18  C   UNL     1      -8.713   9.695  66.303  1.00  0.00    -0.142 C  
HETATM   19  C   UNL     1      -7.943  10.207  67.519  1.00  0.00    -0.106 C  
HETATM   20  O   UNL     1      -7.898   9.887  65.146  1.00  0.00    -0.121 OA 
HETATM   21  C   UNL     1      -6.727   9.327  67.816  1.00  0.00    -0.068 C  
HETATM   22  H   UNL     1      -7.670  10.806  65.069  1.00  0.00     0.000 HD 
ENDBRANCH  13  15
ENDBRANCH  12  13
ENDBRANCH  11  12
TORSDOF 3
ENDMDL
MODEL      209
REMARK 921   NORMALIZED FREE ENERGY PREDICTED BY IDOCK:   -2.99 KCAL/MOL
REMARK 922        TOTAL FREE ENERGY PREDICTED BY IDOCK:   -4.17 KCAL/MOL
REMARK 923 INTER-LIGAND FREE ENERGY PREDICTED BY IDOCK:   -3.81 KCAL/MOL
REMARK 924 INTRA-LIGAND FREE ENERGY PREDICTED BY IDOCK:   -0.37 KCAL/MOL
REMARK 927      BINDING AFFINITY PREDICTED BY RF-SCORE:    0.00 PKD
ROOT
HETATM    1  N   UNL     1     -10.905  10.934  64.259  1.00  0.00    -0.356 NA 
HETATM    2  H2  UNL     1     -10.297  11.580  63.755  1.00  0.00     0.000 HD 
HETATM    3  C   UNL     1     -11.154  11.465  65.544  1.00  0.00    -0.136 A  
HETATM    4  H1  UNL     1     -10.525   9.992  64.163  1.00  0.00     0.000 HD 
HETATM    5  C   UNL     1     -11.680  12.771  65.677  1.00  0.00    -0.399 A  
HETATM    6  C   UNL     1     -11.849  13.372  66.926  1.00  0.00    -0.453 A  
HETATM    7 BR   UNL     1     -12.212  13.773  64.146  1.00  0.00    -0.387 Br 
HETATM    8  C   UNL     1     -11.452  12.683  68.064  1.00  0.00    -0.318 A  
HETATM    9  C   UNL     1     -10.870  11.425  67.962  1.00  0.00    -0.264 A  
HETATM   10 BR   UNL     1     -11.667  13.479  69.766  1.00  0.00    -0.342 Br 
HETATM   11  C   UNL     1     -10.691  10.807  66.705  1.00  0.00    -0.268 A  
ENDROOT
BRANCH  11  12
HETATM   12  C   UNL     1      -9.947   9.485  66.672  1.00  0.00    -0.247 C  
BRANCH  12  13
HETATM   13  N   UNL     1      -8.488   9.659  66.765  1.00  0.00    -0.126 NA 
HETATM   14  H   UNL     1      -8.208  10.597  66.482  1.00  0.00     0.000 HD 
BRANCH  13  15
HETATM   15  C   UNL     1      -7.980   9.329  68.114  1.00  0.00    -0.099 C  
HETATM   16  C   UNL     1      -8.555   7.977  68.582  1.00  0.00    -0.128 C  
HETATM   17  C   UNL     1      -8.009   6.780  67.797  1.00  0.00    -0.113 C  
HETATM   18  C   UNL     1      -6.481   6.770  67.724  1.00  0.00    -0.050 C  
HETATM   19  C   UNL     1      -5.910   8.117  67.286  1.00  0.00    -0.042 C  
HETATM   20  O   UNL     1      -5.946   6.457  69.011  1.00  0.00    -0.019 OA 
HETATM   21  C   UNL     1      -6.445   9.256  68.157  1.00  0.00    -0.058 C  
HETATM   22  H   UNL     1      -4.998   6.450  68.967  1.00  0.00     0.000 HD 
ENDBRANCH  13  15
ENDBRANCH  12  13
ENDBRANCH  11  12
TORSDOF 3
ENDMDL
MODEL      210
REMARK 921   NORMALIZED FREE ENERGY PREDICTED BY IDOCK:   -2.91 KCAL/MOL
REMARK 922        TOTAL FREE ENERGY PREDICTED BY IDOCK:   -4.09 KCAL/MOL
REMARK 923 INTER-LIGAND FREE ENERGY PREDICTED BY IDOCK:   -3.57 KCAL/MOL
REMARK 924 INTRA-LIGAND FREE ENERGY PREDICTED BY IDOCK:   -0.52 KCAL/MOL
REMARK 927      BINDING AFFINITY PREDICTED BY RF-SCORE:    0.00 PKD
ROOT
HETATM    1  N   UNL     1      -8.537  10.166  69.223  1.00  0.00    -0.163 NA 
HETATM    2  H2  UNL     1      -8.355  11.167  69.283  1.00  0.00     0.000 HD 
HETATM    3  C   UNL     1      -9.747   9.889  69.896  1.00  0.00    -0.235 A  
HETATM    4  H1  UNL     1      -7.685   9.667  69.482  1.00  0.00     0.000 HD 
HETATM    5  C   UNL     1     -10.927  10.581  69.537  1.00  0.00    -0.264 A  
HETATM    6  C   UNL     1     -12.122  10.412  70.241  1.00  0.00    -0.370 A  
HETATM    7 BR   UNL     1     -10.951  11.768  68.047  1.00  0.00    -0.300 Br 
HETATM    8  C   UNL     1     -12.139   9.572  71.346  1.00  0.00    -0.378 A  
HETATM    9  C   UNL     1     -10.978   8.931  71.765  1.00  0.00    -0.431 A  
HETATM   10 BR   UNL     1     -13.744   9.332  72.317  1.00  0.00    -0.500 Br 
HETATM   11  C   UNL     1      -9.763   9.095  71.064  1.00  0.00    -0.359 A  
ENDROOT
BRANCH  11  12
HETATM   12  C   UNL     1      -8.522   8.450  71.651  1.00  0.00    -0.163 C  
BRANCH  12  13
HETATM   13  N   UNL     1      -8.040   7.319  70.842  1.00  0.00    -0.105 NA 
HETATM   14  H   UNL     1      -7.183   7.558  70.344  1.00  0.00     0.000 HD 
BRANCH  13  15
HETATM   15  C   UNL     1      -7.867   6.096  71.654  1.00  0.00    -0.102 C  
HETATM   16  C   UNL     1      -7.932   4.847  70.752  1.00  0.00    -0.083 C  
HETATM   17  C   UNL     1      -6.727   4.711  69.815  1.00  0.00    -0.037 C  
HETATM   18  C   UNL     1      -5.391   4.831  70.552  1.00  0.00    -0.004 C  
HETATM   19  C   UNL     1      -5.337   6.054  71.465  1.00  0.00    -0.021 C  
HETATM   20  O   UNL     1      -5.184   3.667  71.353  1.00  0.00     0.000 OA 
HETATM   21  C   UNL     1      -6.534   6.087  72.419  1.00  0.00    -0.058 C  
HETATM   22  H   UNL     1      -4.355   3.741  71.810  1.00  0.00     0.000 HD 
ENDBRANCH  13  15
ENDBRANCH  12  13
ENDBRANCH  11  12
TORSDOF 3
ENDMDL
MODEL      211
REMARK 921   NORMALIZED FREE ENERGY PREDICTED BY IDOCK:   -2.91 KCAL/MOL
REMARK 922        TOTAL FREE ENERGY PREDICTED BY IDOCK:   -4.09 KCAL/MOL
REMARK 923 INTER-LIGAND FREE ENERGY PREDICTED BY IDOCK:   -4.02 KCAL/MOL
REMARK 924 INTRA-LIGAND FREE ENERGY PREDICTED BY IDOCK:   -0.06 KCAL/MOL
REMARK 927      BINDING AFFINITY PREDICTED BY RF-SCORE:    0.00 PKD
ROOT
HETATM    1  N   UNL     1      -8.327  12.160  66.509  1.00  0.00    -0.388 NA 
HETATM    2  H2  UNL     1      -8.007  12.451  65.586  1.00  0.00     0.000 HD 
HETATM    3  C   UNL     1      -8.504  10.759  66.499  1.00  0.00    -0.147 A  
HETATM    4  H1  UNL     1      -9.096  12.768  66.792  1.00  0.00     0.000 HD 
HETATM    5  C   UNL     1      -7.439   9.916  66.107  1.00  0.00    -0.104 A  
HETATM    6  C   UNL     1      -7.600   8.534  65.987  1.00  0.00    -0.089 A  
HETATM    7 BR   UNL     1      -5.709  10.629  65.745  1.00  0.00    -0.144 Br 
HETATM    8  C   UNL     1      -8.851   7.979  66.221  1.00  0.00    -0.162 A  
HETATM    9  C   UNL     1      -9.935   8.789  66.542  1.00  0.00    -0.360 A  
HETATM   10 BR   UNL     1      -9.093   6.111  66.060  1.00  0.00    -0.097 Br 
HETATM   11  C   UNL     1      -9.786  10.188  66.664  1.00  0.00    -0.253 A  
ENDROOT
BRANCH  11  12
HETATM   12  C   UNL     1     -11.039  11.008  66.906  1.00  0.00    -0.213 C  
BRANCH  12  13
HETATM   13  N   UNL     1     -10.839  12.438  66.618  1.00  0.00    -0.239 NA 
HETATM   14  H   UNL     1     -10.655  12.594  65.627  1.00  0.00     0.000 HD 
BRANCH  13  15
HETATM   15  C   UNL     1     -11.976  13.257  67.090  1.00  0.00    -0.348 C  
HETATM   16  C   UNL     1     -12.151  13.096  68.612  1.00  0.00    -0.222 C  
HETATM   17  C   UNL     1     -11.017  13.729  69.425  1.00  0.00    -0.142 C  
HETATM   18  C   UNL     1     -10.740  15.179  69.020  1.00  0.00    -0.239 C  
HETATM   19  C   UNL     1     -10.593  15.343  67.509  1.00  0.00    -0.283 C  
HETATM   20  O   UNL     1     -11.818  16.008  69.456  1.00  0.00    -0.319 OA 
HETATM   21  C   UNL     1     -11.792  14.749  66.767  1.00  0.00    -0.272 C  
HETATM   22  H   UNL     1     -11.646  16.908  69.205  1.00  0.00     0.000 HD 
ENDBRANCH  13  15
ENDBRANCH  12  13
ENDBRANCH  11  12
TORSDOF 3
ENDMDL
MODEL      212
REMARK 921   NORMALIZED FREE ENERGY PREDICTED BY IDOCK:   -2.90 KCAL/MOL
REMARK 922        TOTAL FREE ENERGY PREDICTED BY IDOCK:   -4.07 KCAL/MOL
REMARK 923 INTER-LIGAND FREE ENERGY PREDICTED BY IDOCK:   -3.76 KCAL/MOL
REMARK 924 INTRA-LIGAND FREE ENERGY PREDICTED BY IDOCK:   -0.31 KCAL/MOL
REMARK 927      BINDING AFFINITY PREDICTED BY RF-SCORE:    0.00 PKD
ROOT
HETATM    1  N   UNL     1      -8.203   6.580  70.767  1.00  0.00    -0.123 NA 
HETATM    2  H2  UNL     1      -8.465   5.856  70.098  1.00  0.00     0.000 HD 
HETATM    3  C   UNL     1      -9.371   7.272  71.157  1.00  0.00    -0.156 A  
HETATM    4  H1  UNL     1      -7.408   7.097  70.389  1.00  0.00     0.000 HD 
HETATM    5  C   UNL     1     -10.472   6.557  71.680  1.00  0.00    -0.213 A  
HETATM    6  C   UNL     1     -11.681   7.186  71.985  1.00  0.00    -0.326 A  
HETATM    7 BR   UNL     1     -10.352   4.685  72.021  1.00  0.00    -0.194 Br 
HETATM    8  C   UNL     1     -11.815   8.544  71.731  1.00  0.00    -0.331 A  
HETATM    9  C   UNL     1     -10.773   9.262  71.154  1.00  0.00    -0.403 A  
HETATM   10 BR   UNL     1     -13.444   9.417  72.131  1.00  0.00    -0.548 Br 
HETATM   11  C   UNL     1      -9.547   8.637  70.838  1.00  0.00    -0.252 A  
ENDROOT
BRANCH  11  12
HETATM   12  C   UNL     1      -8.504   9.465  70.110  1.00  0.00    -0.205 C  
BRANCH  12  13
HETATM   13  N   UNL     1      -9.073  10.681  69.508  1.00  0.00    -0.411 NA 
HETATM   14  H   UNL     1      -9.149  11.433  70.193  1.00  0.00     0.000 HD 
BRANCH  13  15
HETATM   15  C   UNL     1      -8.311  11.114  68.318  1.00  0.00    -0.143 C  
HETATM   16  C   UNL     1      -8.821  12.484  67.829  1.00  0.00    -0.178 C  
HETATM   17  C   UNL     1      -8.486  13.633  68.785  1.00  0.00     0.056 C  
HETATM   18  C   UNL     1      -7.006  13.666  69.172  1.00  0.00    -0.070 C  
HETATM   19  C   UNL     1      -6.494  12.302  69.630  1.00  0.00    -0.073 C  
HETATM   20  O   UNL     1      -6.230  14.078  68.046  1.00  0.00    -0.114 OA 
HETATM   21  C   UNL     1      -6.802  11.217  68.596  1.00  0.00    -0.076 C  
HETATM   22  H   UNL     1      -5.311  14.099  68.285  1.00  0.00     0.000 HD 
ENDBRANCH  13  15
ENDBRANCH  12  13
ENDBRANCH  11  12
TORSDOF 3
ENDMDL
MODEL      213
REMARK 921   NORMALIZED FREE ENERGY PREDICTED BY IDOCK:   -2.89 KCAL/MOL
REMARK 922        TOTAL FREE ENERGY PREDICTED BY IDOCK:   -4.06 KCAL/MOL
REMARK 923 INTER-LIGAND FREE ENERGY PREDICTED BY IDOCK:   -4.57 KCAL/MOL
REMARK 924 INTRA-LIGAND FREE ENERGY PREDICTED BY IDOCK:    0.51 KCAL/MOL
REMARK 927      BINDING AFFINITY PREDICTED BY RF-SCORE:    0.00 PKD
ROOT
HETATM    1  N   UNL     1      -8.819   7.295  70.375  1.00  0.00    -0.149 NA 
HETATM    2  H2  UNL     1      -9.292   6.541  69.877  1.00  0.00     0.000 HD 
HETATM    3  C   UNL     1      -9.791   8.221  70.813  1.00  0.00    -0.179 A  
HETATM    4  H1  UNL     1      -8.033   7.613  69.808  1.00  0.00     0.000 HD 
HETATM    5  C   UNL     1     -10.881   7.780  71.598  1.00  0.00    -0.229 A  
HETATM    6  C   UNL     1     -11.917   8.641  71.968  1.00  0.00    -0.442 A  
HETATM    7 BR   UNL     1     -10.978   5.980  72.216  1.00  0.00    -0.328 Br 
HETATM    8  C   UNL     1     -11.893   9.955  71.520  1.00  0.00    -0.365 A  
HETATM    9  C   UNL     1     -10.870  10.400  70.690  1.00  0.00    -0.090 A  
HETATM   10 BR   UNL     1     -13.287  11.137  72.005  1.00  0.00    -0.169 Br 
HETATM   11  C   UNL     1      -9.819   9.539  70.305  1.00  0.00    -0.313 A  
ENDROOT
BRANCH  11  12
HETATM   12  C   UNL     1      -8.805  10.071  69.310  1.00  0.00    -0.178 C  
BRANCH  12  13
HETATM   13  N   UNL     1      -8.958  11.515  69.070  1.00  0.00    -0.385 NA 
HETATM   14  H   UNL     1      -8.217  11.871  68.466  1.00  0.00     0.000 HD 
BRANCH  13  15
HETATM   15  C   UNL     1     -10.295  11.844  68.532  1.00  0.00    -0.218 C  
HETATM   16  C   UNL     1     -10.582  13.348  68.706  1.00  0.00    -0.230 C  
HETATM   17  C   UNL     1      -9.715  14.240  67.812  1.00  0.00    -0.222 C  
HETATM   18  C   UNL     1      -9.741  13.807  66.344  1.00  0.00    -0.294 C  
HETATM   19  C   UNL     1      -9.483  12.311  66.174  1.00  0.00    -0.221 C  
HETATM   20  O   UNL     1     -11.021  14.105  65.784  1.00  0.00    -0.293 OA 
HETATM   21  C   UNL     1     -10.431  11.482  67.044  1.00  0.00    -0.263 C  
HETATM   22  H   UNL     1     -11.038  13.837  64.873  1.00  0.00     0.000 HD 
ENDBRANCH  13  15
ENDBRANCH  12  13
ENDBRANCH  11  12
TORSDOF 3
ENDMDL
MODEL      214
REMARK 921   NORMALIZED FREE ENERGY PREDICTED BY IDOCK:   -2.88 KCAL/MOL
REMARK 922        TOTAL FREE ENERGY PREDICTED BY IDOCK:   -4.05 KCAL/MOL
REMARK 923 INTER-LIGAND FREE ENERGY PREDICTED BY IDOCK:   -3.35 KCAL/MOL
REMARK 924 INTRA-LIGAND FREE ENERGY PREDICTED BY IDOCK:   -0.70 KCAL/MOL
REMARK 927      BINDING AFFINITY PREDICTED BY RF-SCORE:    0.00 PKD
ROOT
HETATM    1  N   UNL     1      -9.774   3.227  67.064  1.00  0.00    -0.382 NA 
HETATM    2  H2  UNL     1      -9.313   2.423  66.639  1.00  0.00     0.000 HD 
HETATM    3  C   UNL     1      -9.197   4.404  66.536  1.00  0.00    -0.142 A  
HETATM    4  H1  UNL     1      -9.807   3.086  68.074  1.00  0.00     0.000 HD 
HETATM    5  C   UNL     1      -9.151   4.600  65.137  1.00  0.00    -0.155 A  
HETATM    6  C   UNL     1      -8.503   5.699  64.569  1.00  0.00    -0.070 A  
HETATM    7 BR   UNL     1     -10.002   3.377  63.948  1.00  0.00    -0.194 Br 
HETATM    8  C   UNL     1      -7.853   6.601  65.401  1.00  0.00    -0.111 A  
HETATM    9  C   UNL     1      -7.823   6.399  66.777  1.00  0.00    -0.104 A  
HETATM   10 BR   UNL     1      -6.965   8.094  64.654  1.00  0.00    -0.077 Br 
HETATM   11  C   UNL     1      -8.472   5.290  67.363  1.00  0.00    -0.106 A  
ENDROOT
BRANCH  11  12
HETATM   12  C   UNL     1      -8.296   5.083  68.856  1.00  0.00    -0.083 C  
BRANCH  12  13
HETATM   13  N   UNL     1      -9.581   4.954  69.560  1.00  0.00    -0.152 NA 
HETATM   14  H   UNL     1      -9.861   3.977  69.646  1.00  0.00     0.000 HD 
BRANCH  13  15
HETATM   15  C   UNL     1      -9.556   5.624  70.878  1.00  0.00    -0.169 C  
HETATM   16  C   UNL     1      -8.909   7.018  70.752  1.00  0.00    -0.149 C  
HETATM   17  C   UNL     1      -9.767   8.017  69.967  1.00  0.00    -0.173 C  
HETATM   18  C   UNL     1     -11.208   8.086  70.478  1.00  0.00    -0.250 C  
HETATM   19  C   UNL     1     -11.839   6.703  70.628  1.00  0.00    -0.443 C  
HETATM   20  O   UNL     1     -11.229   8.727  71.754  1.00  0.00    -0.292 OA 
HETATM   21  C   UNL     1     -10.962   5.782  71.480  1.00  0.00    -0.304 C  
HETATM   22  H   UNL     1     -12.123   8.770  72.071  1.00  0.00     0.000 HD 
ENDBRANCH  13  15
ENDBRANCH  12  13
ENDBRANCH  11  12
TORSDOF 3
ENDMDL
MODEL      215
REMARK 921   NORMALIZED FREE ENERGY PREDICTED BY IDOCK:   -2.87 KCAL/MOL
REMARK 922        TOTAL FREE ENERGY PREDICTED BY IDOCK:   -4.04 KCAL/MOL
REMARK 923 INTER-LIGAND FREE ENERGY PREDICTED BY IDOCK:   -4.42 KCAL/MOL
REMARK 924 INTRA-LIGAND FREE ENERGY PREDICTED BY IDOCK:    0.38 KCAL/MOL
REMARK 927      BINDING AFFINITY PREDICTED BY RF-SCORE:    0.00 PKD
ROOT
HETATM    1  N   UNL     1     -10.594  11.064  64.745  1.00  0.00    -0.308 NA 
HETATM    2  H2  UNL     1     -10.963  10.186  65.110  1.00  0.00     0.000 HD 
HETATM    3  C   UNL     1      -9.492  11.450  65.538  1.00  0.00    -0.227 A  
HETATM    4  H1  UNL     1     -11.373  11.709  64.607  1.00  0.00     0.000 HD 
HETATM    5  C   UNL     1      -8.413  10.556  65.730  1.00  0.00    -0.175 A  
HETATM    6  C   UNL     1      -7.351  10.857  66.585  1.00  0.00    -0.139 A  
HETATM    7 BR   UNL     1      -8.344   8.893  64.802  1.00  0.00    -0.191 Br 
HETATM    8  C   UNL     1      -7.376  12.049  67.296  1.00  0.00    -0.151 A  
HETATM    9  C   UNL     1      -8.455  12.918  67.181  1.00  0.00    -0.179 A  
HETATM   10 BR   UNL     1      -5.951  12.475  68.463  1.00  0.00    -0.060 Br 
HETATM   11  C   UNL     1      -9.537  12.625  66.322  1.00  0.00    -0.244 A  
ENDROOT
BRANCH  11  12
HETATM   12  C   UNL     1     -10.724  13.570  66.340  1.00  0.00    -0.287 C  
BRANCH  12  13
HETATM   13  N   UNL     1     -11.546  13.416  67.550  1.00  0.00    -0.323 NA 
HETATM   14  H   UNL     1     -12.037  12.522  67.554  1.00  0.00     0.000 HD 
BRANCH  13  15
HETATM   15  C   UNL     1     -10.750  13.597  68.783  1.00  0.00    -0.244 C  
HETATM   16  C   UNL     1     -10.231  15.046  68.871  1.00  0.00    -0.235 C  
HETATM   17  C   UNL     1     -11.340  16.074  69.123  1.00  0.00    -0.352 C  
HETATM   18  C   UNL     1     -12.233  15.700  70.308  1.00  0.00    -0.386 C  
HETATM   19  C   UNL     1     -12.724  14.256  70.234  1.00  0.00    -0.305 C  
HETATM   20  O   UNL     1     -11.499  15.860  71.523  1.00  0.00    -0.402 OA 
HETATM   21  C   UNL     1     -11.558  13.282  70.052  1.00  0.00    -0.212 C  
HETATM   22  H   UNL     1     -12.053  15.628  72.259  1.00  0.00     0.000 HD 
ENDBRANCH  13  15
ENDBRANCH  12  13
ENDBRANCH  11  12
TORSDOF 3
ENDMDL
MODEL      216
REMARK 921   NORMALIZED FREE ENERGY PREDICTED BY IDOCK:   -2.83 KCAL/MOL
REMARK 922        TOTAL FREE ENERGY PREDICTED BY IDOCK:   -3.99 KCAL/MOL
REMARK 923 INTER-LIGAND FREE ENERGY PREDICTED BY IDOCK:   -3.46 KCAL/MOL
REMARK 924 INTRA-LIGAND FREE ENERGY PREDICTED BY IDOCK:   -0.53 KCAL/MOL
REMARK 927      BINDING AFFINITY PREDICTED BY RF-SCORE:    0.00 PKD
ROOT
HETATM    1  N   UNL     1      -8.094   7.067  69.064  1.00  0.00    -0.120 NA 
HETATM    2  H2  UNL     1      -7.434   7.525  69.693  1.00  0.00     0.000 HD 
HETATM    3  C   UNL     1      -9.395   7.220  69.592  1.00  0.00    -0.153 A  
HETATM    4  H1  UNL     1      -7.740   6.136  68.846  1.00  0.00     0.000 HD 
HETATM    5  C   UNL     1      -9.886   8.511  69.895  1.00  0.00    -0.186 A  
HETATM    6  C   UNL     1     -11.125   8.701  70.511  1.00  0.00    -0.268 A  
HETATM    7 BR   UNL     1      -8.882  10.069  69.452  1.00  0.00    -0.207 Br 
HETATM    8  C   UNL     1     -11.876   7.590  70.869  1.00  0.00    -0.267 A  
HETATM    9  C   UNL     1     -11.390   6.306  70.646  1.00  0.00    -0.409 A  
HETATM   10 BR   UNL     1     -13.555   7.823  71.707  1.00  0.00    -0.366 Br 
HETATM   11  C   UNL     1     -10.138   6.100  70.027  1.00  0.00    -0.228 A  
ENDROOT
BRANCH  11  12
HETATM   12  C   UNL     1      -9.633   4.673  69.922  1.00  0.00    -0.191 C  
BRANCH  12  13
HETATM   13  N   UNL     1      -8.845   4.444  68.701  1.00  0.00    -0.099 NA 
HETATM   14  H   UNL     1      -7.978   3.948  68.906  1.00  0.00     0.000 HD 
BRANCH  13  15
HETATM   15  C   UNL     1      -9.632   3.745  67.662  1.00  0.00    -0.147 C  
HETATM   16  C   UNL     1     -10.028   4.729  66.544  1.00  0.00    -0.262 C  
HETATM   17  C   UNL     1      -8.839   5.199  65.699  1.00  0.00    -0.146 C  
HETATM   18  C   UNL     1      -7.988   4.038  65.180  1.00  0.00    -0.093 C  
HETATM   19  C   UNL     1      -7.619   3.048  66.283  1.00  0.00    -0.077 C  
HETATM   20  O   UNL     1      -8.714   3.331  64.173  1.00  0.00    -0.093 OA 
HETATM   21  C   UNL     1      -8.861   2.570  67.039  1.00  0.00    -0.151 C  
HETATM   22  H   UNL     1      -8.187   2.610  63.850  1.00  0.00     0.000 HD 
ENDBRANCH  13  15
ENDBRANCH  12  13
ENDBRANCH  11  12
TORSDOF 3
ENDMDL
MODEL      217
REMARK 921   NORMALIZED FREE ENERGY PREDICTED BY IDOCK:   -2.83 KCAL/MOL
REMARK 922        TOTAL FREE ENERGY PREDICTED BY IDOCK:   -3.99 KCAL/MOL
REMARK 923 INTER-LIGAND FREE ENERGY PREDICTED BY IDOCK:   -3.75 KCAL/MOL
REMARK 924 INTRA-LIGAND FREE ENERGY PREDICTED BY IDOCK:   -0.24 KCAL/MOL
REMARK 927      BINDING AFFINITY PREDICTED BY RF-SCORE:    0.00 PKD
ROOT
HETATM    1  N   UNL     1      -7.936   9.517  68.821  1.00  0.00    -0.087 NA 
HETATM    2  H2  UNL     1      -6.947   9.751  68.900  1.00  0.00     0.000 HD 
HETATM    3  C   UNL     1      -8.075   8.472  67.882  1.00  0.00    -0.115 A  
HETATM    4  H1  UNL     1      -8.464  10.382  68.701  1.00  0.00     0.000 HD 
HETATM    5  C   UNL     1      -7.343   7.274  68.047  1.00  0.00    -0.097 A  
HETATM    6  C   UNL     1      -7.373   6.255  67.092  1.00  0.00    -0.083 A  
HETATM    7 BR   UNL     1      -6.290   6.977  69.608  1.00  0.00    -0.036 Br 
HETATM    8  C   UNL     1      -8.111   6.443  65.931  1.00  0.00    -0.124 A  
HETATM    9  C   UNL     1      -8.787   7.637  65.708  1.00  0.00    -0.134 A  
HETATM   10 BR   UNL     1      -8.162   5.079  64.622  1.00  0.00    -0.134 Br 
HETATM   11  C   UNL     1      -8.762   8.676  66.664  1.00  0.00    -0.137 A  
ENDROOT
BRANCH  11  12
HETATM   12  C   UNL     1      -9.432   9.986  66.294  1.00  0.00    -0.191 C  
BRANCH  12  13
HETATM   13  N   UNL     1      -9.940  10.709  67.471  1.00  0.00    -0.168 NA 
HETATM   14  H   UNL     1      -9.335  11.494  67.714  1.00  0.00     0.000 HD 
BRANCH  13  15
HETATM   15  C   UNL     1     -11.340  11.146  67.286  1.00  0.00    -0.226 C  
HETATM   16  C   UNL     1     -11.870  11.792  68.582  1.00  0.00    -0.369 C  
HETATM   17  C   UNL     1     -11.216  13.140  68.901  1.00  0.00    -0.324 C  
HETATM   18  C   UNL     1     -11.245  14.105  67.713  1.00  0.00    -0.287 C  
HETATM   19  C   UNL     1     -10.745  13.457  66.424  1.00  0.00    -0.289 C  
HETATM   20  O   UNL     1     -12.584  14.552  67.497  1.00  0.00    -0.517 OA 
HETATM   21  C   UNL     1     -11.490  12.152  66.133  1.00  0.00    -0.429 C  
HETATM   22  H   UNL     1     -12.603  15.151  66.760  1.00  0.00     0.000 HD 
ENDBRANCH  13  15
ENDBRANCH  12  13
ENDBRANCH  11  12
TORSDOF 3
ENDMDL
MODEL      218
REMARK 921   NORMALIZED FREE ENERGY PREDICTED BY IDOCK:   -2.78 KCAL/MOL
REMARK 922        TOTAL FREE ENERGY PREDICTED BY IDOCK:   -3.93 KCAL/MOL
REMARK 923 INTER-LIGAND FREE ENERGY PREDICTED BY IDOCK:   -3.39 KCAL/MOL
REMARK 924 INTRA-LIGAND FREE ENERGY PREDICTED BY IDOCK:   -0.54 KCAL/MOL
REMARK 927      BINDING AFFINITY PREDICTED BY RF-SCORE:    0.00 PKD
ROOT
HETATM    1  N   UNL     1      -8.828   5.618  66.079  1.00  0.00    -0.143 NA 
HETATM    2  H2  UNL     1      -7.849   5.623  66.367  1.00  0.00     0.000 HD 
HETATM    3  C   UNL     1      -9.340   6.927  66.217  1.00  0.00    -0.099 A  
HETATM    4  H1  UNL     1      -9.297   4.837  66.539  1.00  0.00     0.000 HD 
HETATM    5  C   UNL     1      -8.691   8.009  65.581  1.00  0.00    -0.125 A  
HETATM    6  C   UNL     1      -9.104   9.330  65.770  1.00  0.00    -0.260 A  
HETATM    7 BR   UNL     1      -7.223   7.714  64.402  1.00  0.00    -0.083 Br 
HETATM    8  C   UNL     1     -10.156   9.588  66.639  1.00  0.00    -0.252 A  
HETATM    9  C   UNL     1     -10.771   8.551  67.332  1.00  0.00    -0.215 A  
HETATM   10 BR   UNL     1     -10.729  11.369  66.915  1.00  0.00    -0.327 Br 
HETATM   11  C   UNL     1     -10.361   7.212  67.151  1.00  0.00    -0.359 A  
ENDROOT
BRANCH  11  12
HETATM   12  C   UNL     1     -11.009   6.156  68.028  1.00  0.00    -0.305 C  
BRANCH  12  13
HETATM   13  N   UNL     1     -10.438   6.125  69.384  1.00  0.00    -0.227 NA 
HETATM   14  H   UNL     1     -11.168   6.176  70.095  1.00  0.00     0.000 HD 
BRANCH  13  15
HETATM   15  C   UNL     1      -9.570   4.945  69.588  1.00  0.00    -0.173 C  
HETATM   16  C   UNL     1      -8.101   5.386  69.739  1.00  0.00    -0.096 C  
HETATM   17  C   UNL     1      -7.825   6.142  71.043  1.00  0.00    -0.114 C  
HETATM   18  C   UNL     1      -8.341   5.398  72.276  1.00  0.00    -0.122 C  
HETATM   19  C   UNL     1      -9.788   4.938  72.116  1.00  0.00    -0.226 C  
HETATM   20  O   UNL     1      -7.529   4.246  72.509  1.00  0.00    -0.069 OA 
HETATM   21  C   UNL     1      -9.974   4.131  70.828  1.00  0.00    -0.192 C  
HETATM   22  H   UNL     1      -7.849   3.784  73.275  1.00  0.00     0.000 HD 
ENDBRANCH  13  15
ENDBRANCH  12  13
ENDBRANCH  11  12
TORSDOF 3
ENDMDL
MODEL      219
REMARK 921   NORMALIZED FREE ENERGY PREDICTED BY IDOCK:   -2.77 KCAL/MOL
REMARK 922        TOTAL FREE ENERGY PREDICTED BY IDOCK:   -3.92 KCAL/MOL
REMARK 923 INTER-LIGAND FREE ENERGY PREDICTED BY IDOCK:   -3.49 KCAL/MOL
REMARK 924 INTRA-LIGAND FREE ENERGY PREDICTED BY IDOCK:   -0.43 KCAL/MOL
REMARK 927      BINDING AFFINITY PREDICTED BY RF-SCORE:    0.00 PKD
ROOT
HETATM    1  N   UNL     1     -10.173   8.472  69.728  1.00  0.00    -0.201 NA 
HETATM    2  H2  UNL     1     -11.122   8.153  69.918  1.00  0.00     0.000 HD 
HETATM    3  C   UNL     1     -10.169   9.151  68.489  1.00  0.00    -0.198 A  
HETATM    4  H1  UNL     1      -9.532   7.693  69.882  1.00  0.00     0.000 HD 
HETATM    5  C   UNL     1     -11.057  10.231  68.274  1.00  0.00    -0.254 A  
HETATM    6  C   UNL     1     -11.157  10.865  67.034  1.00  0.00    -0.271 A  
HETATM    7 BR   UNL     1     -12.151  10.895  69.687  1.00  0.00    -0.367 Br 
HETATM    8  C   UNL     1     -10.393  10.397  65.975  1.00  0.00    -0.192 A  
HETATM    9  C   UNL     1      -9.561   9.294  66.136  1.00  0.00    -0.327 A  
HETATM   10 BR   UNL     1     -10.516  11.237  64.285  1.00  0.00    -0.441 Br 
HETATM   11  C   UNL     1      -9.452   8.642  67.384  1.00  0.00    -0.187 A  
ENDROOT
BRANCH  11  12
HETATM   12  C   UNL     1      -8.610   7.382  67.445  1.00  0.00    -0.118 C  
BRANCH  12  13
HETATM   13  N   UNL     1      -9.392   6.202  67.850  1.00  0.00    -0.115 NA 
HETATM   14  H   UNL     1      -9.491   5.541  67.080  1.00  0.00     0.000 HD 
BRANCH  13  15
HETATM   15  C   UNL     1      -8.823   5.550  69.049  1.00  0.00    -0.105 C  
HETATM   16  C   UNL     1      -9.653   4.306  69.421  1.00  0.00    -0.267 C  
HETATM   17  C   UNL     1      -9.518   3.161  68.412  1.00  0.00    -0.211 C  
HETATM   18  C   UNL     1      -8.059   2.818  68.102  1.00  0.00    -0.061 C  
HETATM   19  C   UNL     1      -7.231   4.054  67.759  1.00  0.00    -0.063 C  
HETATM   20  O   UNL     1      -7.468   2.186  69.238  1.00  0.00    -0.043 OA 
HETATM   21  C   UNL     1      -7.359   5.126  68.843  1.00  0.00    -0.065 C  
HETATM   22  H   UNL     1      -6.563   1.972  69.046  1.00  0.00     0.000 HD 
ENDBRANCH  13  15
ENDBRANCH  12  13
ENDBRANCH  11  12
TORSDOF 3
ENDMDL
MODEL      220
REMARK 921   NORMALIZED FREE ENERGY PREDICTED BY IDOCK:   -2.75 KCAL/MOL
REMARK 922        TOTAL FREE ENERGY PREDICTED BY IDOCK:   -3.90 KCAL/MOL
REMARK 923 INTER-LIGAND FREE ENERGY PREDICTED BY IDOCK:   -4.16 KCAL/MOL
REMARK 924 INTRA-LIGAND FREE ENERGY PREDICTED BY IDOCK:    0.26 KCAL/MOL
REMARK 927      BINDING AFFINITY PREDICTED BY RF-SCORE:    0.00 PKD
ROOT
HETATM    1  N   UNL     1      -9.774  18.110  68.878  1.00  0.00    -0.307 NA 
HETATM    2  H2  UNL     1     -10.470  18.849  68.973  1.00  0.00     0.000 HD 
HETATM    3  C   UNL     1     -10.155  17.272  67.807  1.00  0.00    -0.311 A  
HETATM    4  H1  UNL     1      -9.599  17.709  69.800  1.00  0.00     0.000 HD 
HETATM    5  C   UNL     1     -10.398  17.827  66.529  1.00  0.00    -0.345 A  
HETATM    6  C   UNL     1     -10.873  17.053  65.468  1.00  0.00    -0.073 A  
HETATM    7 BR   UNL     1     -10.062  19.671  66.183  1.00  0.00    -0.587 Br 
HETATM    8  C   UNL     1     -11.151  15.711  65.687  1.00  0.00    -0.194 A  
HETATM    9  C   UNL     1     -10.986  15.151  66.949  1.00  0.00    -0.323 A  
HETATM   10 BR   UNL     1     -11.799  14.644  64.266  1.00  0.00    -0.289 Br 
HETATM   11  C   UNL     1     -10.510  15.923  68.031  1.00  0.00    -0.274 A  
ENDROOT
BRANCH  11  12
HETATM   12  C   UNL     1     -10.466  15.265  69.397  1.00  0.00    -0.251 C  
BRANCH  12  13
HETATM   13  N   UNL     1      -9.144  14.696  69.704  1.00  0.00    -0.367 NA 
HETATM   14  H   UNL     1      -9.228  13.771  70.126  1.00  0.00     0.000 HD 
BRANCH  13  15
HETATM   15  C   UNL     1      -8.268  14.668  68.514  1.00  0.00    -0.152 C  
HETATM   16  C   UNL     1      -6.796  14.844  68.935  1.00  0.00    -0.104 C  
HETATM   17  C   UNL     1      -6.235  13.640  69.700  1.00  0.00    -0.122 C  
HETATM   18  C   UNL     1      -6.481  12.314  68.977  1.00  0.00    -0.096 C  
HETATM   19  C   UNL     1      -7.935  12.153  68.537  1.00  0.00    -0.119 C  
HETATM   20  O   UNL     1      -5.653  12.246  67.815  1.00  0.00    -0.069 OA 
HETATM   21  C   UNL     1      -8.404  13.359  67.720  1.00  0.00    -0.178 C  
HETATM   22  H   UNL     1      -5.806  11.424  67.366  1.00  0.00     0.000 HD 
ENDBRANCH  13  15
ENDBRANCH  12  13
ENDBRANCH  11  12
TORSDOF 3
ENDMDL
MODEL      221
REMARK 921   NORMALIZED FREE ENERGY PREDICTED BY IDOCK:   -2.74 KCAL/MOL
REMARK 922        TOTAL FREE ENERGY PREDICTED BY IDOCK:   -3.89 KCAL/MOL
REMARK 923 INTER-LIGAND FREE ENERGY PREDICTED BY IDOCK:   -3.48 KCAL/MOL
REMARK 924 INTRA-LIGAND FREE ENERGY PREDICTED BY IDOCK:   -0.41 KCAL/MOL
REMARK 927      BINDING AFFINITY PREDICTED BY RF-SCORE:    0.00 PKD
ROOT
HETATM    1  N   UNL     1      -9.601   3.755  67.952  1.00  0.00    -0.165 NA 
HETATM    2  H2  UNL     1      -8.598   3.659  67.792  1.00  0.00     0.000 HD 
HETATM    3  C   UNL     1      -9.934   5.127  67.892  1.00  0.00    -0.152 A  
HETATM    4  H1  UNL     1      -9.851   3.207  68.774  1.00  0.00     0.000 HD 
HETATM    5  C   UNL     1      -9.587   5.888  66.752  1.00  0.00    -0.148 A  
HETATM    6  C   UNL     1      -9.807   7.265  66.692  1.00  0.00    -0.257 A  
HETATM    7 BR   UNL     1      -8.818   5.058  65.218  1.00  0.00    -0.149 Br 
HETATM    8  C   UNL     1     -10.345   7.910  67.798  1.00  0.00    -0.226 A  
HETATM    9  C   UNL     1     -10.634   7.200  68.958  1.00  0.00    -0.225 A  
HETATM   10 BR   UNL     1     -10.648   9.775  67.741  1.00  0.00    -0.326 Br 
HETATM   11  C   UNL     1     -10.414   5.808  69.033  1.00  0.00    -0.336 A  
ENDROOT
BRANCH  11  12
HETATM   12  C   UNL     1     -10.650   5.130  70.370  1.00  0.00    -0.154 C  
BRANCH  12  13
HETATM   13  N   UNL     1     -10.293   5.993  71.508  1.00  0.00    -0.207 NA 
HETATM   14  H   UNL     1     -10.719   5.662  72.373  1.00  0.00     0.000 HD 
BRANCH  13  15
HETATM   15  C   UNL     1      -8.828   6.136  71.650  1.00  0.00    -0.138 C  
HETATM   16  C   UNL     1      -8.453   7.622  71.816  1.00  0.00    -0.124 C  
HETATM   17  C   UNL     1      -8.905   8.217  73.154  1.00  0.00    -0.325 C  
HETATM   18  C   UNL     1      -8.473   7.369  74.352  1.00  0.00    -0.210 C  
HETATM   19  C   UNL     1      -8.821   5.892  74.176  1.00  0.00    -0.123 C  
HETATM   20  O   UNL     1      -7.060   7.476  74.525  1.00  0.00    -0.106 OA 
HETATM   21  C   UNL     1      -8.280   5.349  72.852  1.00  0.00    -0.109 C  
HETATM   22  H   UNL     1      -6.791   6.950  75.269  1.00  0.00     0.000 HD 
ENDBRANCH  13  15
ENDBRANCH  12  13
ENDBRANCH  11  12
TORSDOF 3
ENDMDL
MODEL      222
REMARK 921   NORMALIZED FREE ENERGY PREDICTED BY IDOCK:   -2.74 KCAL/MOL
REMARK 922        TOTAL FREE ENERGY PREDICTED BY IDOCK:   -3.88 KCAL/MOL
REMARK 923 INTER-LIGAND FREE ENERGY PREDICTED BY IDOCK:   -3.57 KCAL/MOL
REMARK 924 INTRA-LIGAND FREE ENERGY PREDICTED BY IDOCK:   -0.31 KCAL/MOL
REMARK 927      BINDING AFFINITY PREDICTED BY RF-SCORE:    0.00 PKD
ROOT
HETATM    1  N   UNL     1      -6.117   9.081  67.739  1.00  0.00    -0.050 NA 
HETATM    2  H2  UNL     1      -6.263   9.037  66.730  1.00  0.00     0.000 HD 
HETATM    3  C   UNL     1      -6.980   8.151  68.357  1.00  0.00    -0.073 A  
HETATM    4  H1  UNL     1      -6.134  10.060  68.025  1.00  0.00     0.000 HD 
HETATM    5  C   UNL     1      -6.957   6.794  67.960  1.00  0.00    -0.080 A  
HETATM    6  C   UNL     1      -7.860   5.861  68.474  1.00  0.00    -0.102 A  
HETATM    7 BR   UNL     1      -5.662   6.162  66.713  1.00  0.00    -0.017 Br 
HETATM    8  C   UNL     1      -8.833   6.288  69.368  1.00  0.00    -0.127 A  
HETATM    9  C   UNL     1      -8.925   7.628  69.726  1.00  0.00    -0.140 A  
HETATM   10 BR   UNL     1     -10.070   5.043  70.072  1.00  0.00    -0.337 Br 
HETATM   11  C   UNL     1      -8.019   8.582  69.212  1.00  0.00    -0.111 A  
ENDROOT
BRANCH  11  12
HETATM   12  C   UNL     1      -8.258  10.038  69.566  1.00  0.00    -0.167 C  
BRANCH  12  13
HETATM   13  N   UNL     1      -9.666  10.312  69.895  1.00  0.00    -0.412 NA 
HETATM   14  H   UNL     1      -9.750  11.102  70.536  1.00  0.00     0.000 HD 
BRANCH  13  15
HETATM   15  C   UNL     1     -10.486  10.515  68.682  1.00  0.00    -0.191 C  
HETATM   16  C   UNL     1     -11.898  10.996  69.069  1.00  0.00    -0.399 C  
HETATM   17  C   UNL     1     -11.920  12.418  69.639  1.00  0.00    -0.341 C  
HETATM   18  C   UNL     1     -11.185  13.423  68.748  1.00  0.00    -0.275 C  
HETATM   19  C   UNL     1      -9.796  12.933  68.343  1.00  0.00    -0.197 C  
HETATM   20  O   UNL     1     -11.944  13.646  67.559  1.00  0.00    -0.363 OA 
HETATM   21  C   UNL     1      -9.860  11.537  67.719  1.00  0.00    -0.186 C  
HETATM   22  H   UNL     1     -11.488  14.269  67.006  1.00  0.00     0.000 HD 
ENDBRANCH  13  15
ENDBRANCH  12  13
ENDBRANCH  11  12
TORSDOF 3
ENDMDL
MODEL      223
REMARK 921   NORMALIZED FREE ENERGY PREDICTED BY IDOCK:   -2.72 KCAL/MOL
REMARK 922        TOTAL FREE ENERGY PREDICTED BY IDOCK:   -3.86 KCAL/MOL
REMARK 923 INTER-LIGAND FREE ENERGY PREDICTED BY IDOCK:   -3.24 KCAL/MOL
REMARK 924 INTRA-LIGAND FREE ENERGY PREDICTED BY IDOCK:   -0.62 KCAL/MOL
REMARK 927      BINDING AFFINITY PREDICTED BY RF-SCORE:    0.00 PKD
ROOT
HETATM    1  N   UNL     1      -7.401   6.103  68.859  1.00  0.00    -0.083 NA 
HETATM    2  H2  UNL     1      -7.519   7.104  68.706  1.00  0.00     0.000 HD 
HETATM    3  C   UNL     1      -8.032   5.411  67.802  1.00  0.00    -0.100 A  
HETATM    4  H1  UNL     1      -7.650   5.892  69.826  1.00  0.00     0.000 HD 
HETATM    5  C   UNL     1      -7.688   5.703  66.463  1.00  0.00    -0.100 A  
HETATM    6  C   UNL     1      -8.356   5.116  65.386  1.00  0.00    -0.132 A  
HETATM    7 BR   UNL     1      -6.264   6.904  66.058  1.00  0.00    -0.040 Br 
HETATM    8  C   UNL     1      -9.413   4.253  65.639  1.00  0.00    -0.176 A  
HETATM    9  C   UNL     1      -9.820   3.998  66.944  1.00  0.00    -0.157 A  
HETATM   10 BR   UNL     1     -10.335   3.451  64.197  1.00  0.00    -0.164 Br 
HETATM   11  C   UNL     1      -9.155   4.587  68.042  1.00  0.00    -0.151 A  
ENDROOT
BRANCH  11  12
HETATM   12  C   UNL     1      -9.732   4.345  69.424  1.00  0.00    -0.197 C  
BRANCH  12  13
HETATM   13  N   UNL     1     -10.217   5.583  70.055  1.00  0.00    -0.242 NA 
HETATM   14  H   UNL     1     -10.965   6.009  69.507  1.00  0.00     0.000 HD 
BRANCH  13  15
HETATM   15  C   UNL     1     -10.636   5.359  71.455  1.00  0.00    -0.212 C  
HETATM   16  C   UNL     1      -9.399   5.169  72.355  1.00  0.00    -0.155 C  
HETATM   17  C   UNL     1      -8.574   6.449  72.530  1.00  0.00    -0.123 C  
HETATM   18  C   UNL     1      -9.427   7.647  72.954  1.00  0.00    -0.206 C  
HETATM   19  C   UNL     1     -10.666   7.818  72.079  1.00  0.00    -0.282 C  
HETATM   20  O   UNL     1      -9.856   7.470  74.305  1.00  0.00    -0.382 OA 
HETATM   21  C   UNL     1     -11.477   6.522  72.005  1.00  0.00    -0.342 C  
HETATM   22  H   UNL     1     -10.385   8.213  74.569  1.00  0.00     0.000 HD 
ENDBRANCH  13  15
ENDBRANCH  12  13
ENDBRANCH  11  12
TORSDOF 3
ENDMDL
MODEL      224
REMARK 921   NORMALIZED FREE ENERGY PREDICTED BY IDOCK:   -2.72 KCAL/MOL
REMARK 922        TOTAL FREE ENERGY PREDICTED BY IDOCK:   -3.86 KCAL/MOL
REMARK 923 INTER-LIGAND FREE ENERGY PREDICTED BY IDOCK:   -3.63 KCAL/MOL
REMARK 924 INTRA-LIGAND FREE ENERGY PREDICTED BY IDOCK:   -0.23 KCAL/MOL
REMARK 927      BINDING AFFINITY PREDICTED BY RF-SCORE:    0.00 PKD
ROOT
HETATM    1  N   UNL     1     -11.676   6.709  69.430  1.00  0.00    -0.648 NA 
HETATM    2  H2  UNL     1     -12.069   7.425  70.040  1.00  0.00     0.000 HD 
HETATM    3  C   UNL     1     -10.289   6.620  69.680  1.00  0.00    -0.194 A  
HETATM    4  H1  UNL     1     -12.012   6.872  68.480  1.00  0.00     0.000 HD 
HETATM    5  C   UNL     1      -9.822   6.394  70.995  1.00  0.00    -0.180 A  
HETATM    6  C   UNL     1      -8.460   6.399  71.304  1.00  0.00    -0.123 A  
HETATM    7 BR   UNL     1     -11.039   6.042  72.418  1.00  0.00    -0.339 Br 
HETATM    8  C   UNL     1      -7.543   6.673  70.298  1.00  0.00    -0.096 A  
HETATM    9  C   UNL     1      -7.974   6.966  69.009  1.00  0.00    -0.116 A  
HETATM   10 BR   UNL     1      -5.694   6.689  70.694  1.00  0.00    -0.024 Br 
HETATM   11  C   UNL     1      -9.348   6.968  68.684  1.00  0.00    -0.136 A  
ENDROOT
BRANCH  11  12
HETATM   12  C   UNL     1      -9.738   7.407  67.285  1.00  0.00    -0.157 C  
BRANCH  12  13
HETATM   13  N   UNL     1      -9.549   6.341  66.288  1.00  0.00    -0.316 NA 
HETATM   14  H   UNL     1      -8.562   6.107  66.178  1.00  0.00     0.000 HD 
BRANCH  13  15
HETATM   15  C   UNL     1     -10.354   5.142  66.606  1.00  0.00    -0.281 C  
HETATM   16  C   UNL     1     -10.979   4.566  65.321  1.00  0.00    -0.014 C  
HETATM   17  C   UNL     1      -9.950   3.945  64.370  1.00  0.00    -0.199 C  
HETATM   18  C   UNL     1      -9.029   2.944  65.071  1.00  0.00    -0.136 C  
HETATM   19  C   UNL     1      -8.431   3.506  66.359  1.00  0.00    -0.108 C  
HETATM   20  O   UNL     1      -9.769   1.767  65.399  1.00  0.00    -0.332 OA 
HETATM   21  C   UNL     1      -9.521   4.044  67.288  1.00  0.00    -0.229 C  
HETATM   22  H   UNL     1      -9.198   1.145  65.834  1.00  0.00     0.000 HD 
ENDBRANCH  13  15
ENDBRANCH  12  13
ENDBRANCH  11  12
TORSDOF 3
ENDMDL
MODEL      225
REMARK 921   NORMALIZED FREE ENERGY PREDICTED BY IDOCK:   -2.71 KCAL/MOL
REMARK 922        TOTAL FREE ENERGY PREDICTED BY IDOCK:   -3.84 KCAL/MOL
REMARK 923 INTER-LIGAND FREE ENERGY PREDICTED BY IDOCK:   -3.80 KCAL/MOL
REMARK 924 INTRA-LIGAND FREE ENERGY PREDICTED BY IDOCK:   -0.04 KCAL/MOL
REMARK 927      BINDING AFFINITY PREDICTED BY RF-SCORE:    0.00 PKD
ROOT
HETATM    1  N   UNL     1      -7.924  19.392  68.280  1.00  0.00    -0.319 NA 
HETATM    2  H2  UNL     1      -7.180  19.621  67.621  1.00  0.00     0.000 HD 
HETATM    3  C   UNL     1      -7.616  18.156  68.891  1.00  0.00    -0.214 A  
HETATM    4  H1  UNL     1      -8.821  19.518  67.811  1.00  0.00     0.000 HD 
HETATM    5  C   UNL     1      -6.372  17.981  69.540  1.00  0.00    -0.215 A  
HETATM    6  C   UNL     1      -5.986  16.748  70.070  1.00  0.00    -0.187 A  
HETATM    7 BR   UNL     1      -5.163  19.440  69.749  1.00  0.00    -0.221 Br 
HETATM    8  C   UNL     1      -6.830  15.656  69.918  1.00  0.00    -0.073 A  
HETATM    9  C   UNL     1      -8.029  15.780  69.225  1.00  0.00    -0.239 A  
HETATM   10 BR   UNL     1      -6.325  13.976  70.623  1.00  0.00     0.076 Br 
HETATM   11  C   UNL     1      -8.430  17.021  68.683  1.00  0.00    -0.262 A  
ENDROOT
BRANCH  11  12
HETATM   12  C   UNL     1      -9.696  17.044  67.847  1.00  0.00    -0.263 C  
BRANCH  12  13
HETATM   13  N   UNL     1     -10.673  16.031  68.278  1.00  0.00    -0.285 NA 
HETATM   14  H   UNL     1     -11.292  16.397  69.001  1.00  0.00     0.000 HD 
BRANCH  13  15
HETATM   15  C   UNL     1     -11.440  15.487  67.138  1.00  0.00    -0.067 C  
HETATM   16  C   UNL     1     -10.859  16.010  65.809  1.00  0.00    -0.236 C  
HETATM   17  C   UNL     1      -9.474  15.441  65.486  1.00  0.00    -0.160 C  
HETATM   18  C   UNL     1      -9.425  13.915  65.584  1.00  0.00     0.083 C  
HETATM   19  C   UNL     1     -10.026  13.396  66.889  1.00  0.00    -0.252 C  
HETATM   20  O   UNL     1     -10.159  13.346  64.499  1.00  0.00    -0.601 OA 
HETATM   21  C   UNL     1     -11.435  13.950  67.111  1.00  0.00    -0.370 C  
HETATM   22  H   UNL     1     -10.129  12.399  64.559  1.00  0.00     0.000 HD 
ENDBRANCH  13  15
ENDBRANCH  12  13
ENDBRANCH  11  12
TORSDOF 3
ENDMDL
MODEL      226
REMARK 921   NORMALIZED FREE ENERGY PREDICTED BY IDOCK:   -2.70 KCAL/MOL
REMARK 922        TOTAL FREE ENERGY PREDICTED BY IDOCK:   -3.84 KCAL/MOL
REMARK 923 INTER-LIGAND FREE ENERGY PREDICTED BY IDOCK:   -3.36 KCAL/MOL
REMARK 924 INTRA-LIGAND FREE ENERGY PREDICTED BY IDOCK:   -0.48 KCAL/MOL
REMARK 927      BINDING AFFINITY PREDICTED BY RF-SCORE:    0.00 PKD
ROOT
HETATM    1  N   UNL     1      -5.615  15.643  70.759  1.00  0.00    -0.086 NA 
HETATM    2  H2  UNL     1      -4.686  15.734  71.170  1.00  0.00     0.000 HD 
HETATM    3  C   UNL     1      -5.752  14.332  70.251  1.00  0.00    -0.135 A  
HETATM    4  H1  UNL     1      -5.778  16.444  70.149  1.00  0.00     0.000 HD 
HETATM    5  C   UNL     1      -5.525  13.221  71.096  1.00  0.00    -0.197 A  
HETATM    6  C   UNL     1      -5.552  11.911  70.612  1.00  0.00    -0.149 A  
HETATM    7 BR   UNL     1      -5.194  13.459  72.957  1.00  0.00     0.093 Br 
HETATM    8  C   UNL     1      -5.768  11.698  69.258  1.00  0.00    -0.057 A  
HETATM    9  C   UNL     1      -5.928  12.773  68.389  1.00  0.00    -0.068 A  
HETATM   10 BR   UNL     1      -5.804   9.933  68.580  1.00  0.00    -0.042 Br 
HETATM   11  C   UNL     1      -5.900  14.102  68.865  1.00  0.00    -0.086 A  
ENDROOT
BRANCH  11  12
HETATM   12  C   UNL     1      -5.969  15.216  67.837  1.00  0.00    -0.150 C  
BRANCH  12  13
HETATM   13  N   UNL     1      -7.276  15.894  67.831  1.00  0.00    -0.127 NA 
HETATM   14  H   UNL     1      -7.257  16.742  68.398  1.00  0.00     0.000 HD 
BRANCH  13  15
HETATM   15  C   UNL     1      -7.742  16.176  66.457  1.00  0.00    -0.184 C  
HETATM   16  C   UNL     1      -9.219  15.763  66.303  1.00  0.00    -0.368 C  
HETATM   17  C   UNL     1     -10.184  16.653  67.094  1.00  0.00    -0.290 C  
HETATM   18  C   UNL     1      -9.964  18.144  66.828  1.00  0.00    -0.351 C  
HETATM   19  C   UNL     1      -8.496  18.546  66.955  1.00  0.00    -0.277 C  
HETATM   20  O   UNL     1     -10.401  18.460  65.505  1.00  0.00    -0.570 OA 
HETATM   21  C   UNL     1      -7.601  17.661  66.086  1.00  0.00    -0.315 C  
HETATM   22  H   UNL     1     -10.264  19.385  65.340  1.00  0.00     0.000 HD 
ENDBRANCH  13  15
ENDBRANCH  12  13
ENDBRANCH  11  12
TORSDOF 3
ENDMDL
MODEL      227
REMARK 921   NORMALIZED FREE ENERGY PREDICTED BY IDOCK:   -2.67 KCAL/MOL
REMARK 922        TOTAL FREE ENERGY PREDICTED BY IDOCK:   -3.80 KCAL/MOL
REMARK 923 INTER-LIGAND FREE ENERGY PREDICTED BY IDOCK:   -3.42 KCAL/MOL
REMARK 924 INTRA-LIGAND FREE ENERGY PREDICTED BY IDOCK:   -0.38 KCAL/MOL
REMARK 927      BINDING AFFINITY PREDICTED BY RF-SCORE:    0.00 PKD
ROOT
HETATM    1  N   UNL     1     -11.288   8.986  69.477  1.00  0.00    -0.432 NA 
HETATM    2  H2  UNL     1     -12.093   9.507  69.826  1.00  0.00     0.000 HD 
HETATM    3  C   UNL     1     -10.489   8.609  70.579  1.00  0.00    -0.206 A  
HETATM    4  H1  UNL     1     -10.875   9.507  68.704  1.00  0.00     0.000 HD 
HETATM    5  C   UNL     1     -11.061   7.886  71.651  1.00  0.00    -0.244 A  
HETATM    6  C   UNL     1     -10.333   7.580  72.803  1.00  0.00    -0.331 A  
HETATM    7 BR   UNL     1     -12.862   7.268  71.564  1.00  0.00    -0.424 Br 
HETATM    8  C   UNL     1      -9.025   8.032  72.913  1.00  0.00    -0.239 A  
HETATM    9  C   UNL     1      -8.456   8.802  71.905  1.00  0.00    -0.151 A  
HETATM   10 BR   UNL     1      -8.023   7.633  74.466  1.00  0.00    -0.264 Br 
HETATM   11  C   UNL     1      -9.182   9.121  70.736  1.00  0.00    -0.321 A  
ENDROOT
BRANCH  11  12
HETATM   12  C   UNL     1      -8.527  10.058  69.738  1.00  0.00    -0.172 C  
BRANCH  12  13
HETATM   13  N   UNL     1      -8.103   9.364  68.511  1.00  0.00    -0.104 NA 
HETATM   14  H   UNL     1      -7.271   9.795  68.110  1.00  0.00     0.000 HD 
BRANCH  13  15
HETATM   15  C   UNL     1      -7.903   7.917  68.740  1.00  0.00    -0.118 C  
HETATM   16  C   UNL     1      -8.657   7.102  67.671  1.00  0.00    -0.122 C  
HETATM   17  C   UNL     1      -8.051   7.231  66.269  1.00  0.00    -0.121 C  
HETATM   18  C   UNL     1      -6.544   6.965  66.251  1.00  0.00    -0.052 C  
HETATM   19  C   UNL     1      -5.801   7.753  67.328  1.00  0.00    -0.037 C  
HETATM   20  O   UNL     1      -6.304   5.575  66.471  1.00  0.00    -0.036 OA 
HETATM   21  C   UNL     1      -6.418   7.522  68.710  1.00  0.00    -0.048 C  
HETATM   22  H   UNL     1      -5.369   5.409  66.460  1.00  0.00     0.000 HD 
ENDBRANCH  13  15
ENDBRANCH  12  13
ENDBRANCH  11  12
TORSDOF 3
ENDMDL
MODEL      228
REMARK 921   NORMALIZED FREE ENERGY PREDICTED BY IDOCK:   -2.64 KCAL/MOL
REMARK 922        TOTAL FREE ENERGY PREDICTED BY IDOCK:   -3.77 KCAL/MOL
REMARK 923 INTER-LIGAND FREE ENERGY PREDICTED BY IDOCK:   -5.28 KCAL/MOL
REMARK 924 INTRA-LIGAND FREE ENERGY PREDICTED BY IDOCK:    1.51 KCAL/MOL
REMARK 927      BINDING AFFINITY PREDICTED BY RF-SCORE:    0.00 PKD
ROOT
HETATM    1  N   UNL     1      -7.849  12.928  68.918  1.00  0.00    -0.326 NA 
HETATM    2  H2  UNL     1      -8.212  13.143  69.846  1.00  0.00     0.000 HD 
HETATM    3  C   UNL     1      -7.566  14.143  68.255  1.00  0.00    -0.130 A  
HETATM    4  H1  UNL     1      -8.464  12.242  68.481  1.00  0.00     0.000 HD 
HETATM    5  C   UNL     1      -6.713  15.094  68.861  1.00  0.00    -0.110 A  
HETATM    6  C   UNL     1      -6.486  16.348  68.289  1.00  0.00    -0.133 A  
HETATM    7 BR   UNL     1      -5.804  14.698  70.488  1.00  0.00    -0.169 Br 
HETATM    8  C   UNL     1      -7.147  16.682  67.115  1.00  0.00    -0.186 A  
HETATM    9  C   UNL     1      -8.044  15.795  66.531  1.00  0.00    -0.231 A  
HETATM   10 BR   UNL     1      -6.858  18.376  66.326  1.00  0.00    -0.289 Br 
HETATM   11  C   UNL     1      -8.285  14.525  67.101  1.00  0.00    -0.214 A  
ENDROOT
BRANCH  11  12
HETATM   12  C   UNL     1      -9.360  13.663  66.465  1.00  0.00    -0.228 C  
BRANCH  12  13
HETATM   13  N   UNL     1      -8.897  12.291  66.203  1.00  0.00    -0.418 NA 
HETATM   14  H   UNL     1      -8.581  11.836  67.059  1.00  0.00     0.000 HD 
BRANCH  13  15
HETATM   15  C   UNL     1      -9.928  11.485  65.515  1.00  0.00    -0.242 C  
HETATM   16  C   UNL     1     -11.133  11.256  66.449  1.00  0.00    -0.257 C  
HETATM   17  C   UNL     1     -11.939  12.530  66.726  1.00  0.00    -0.327 C  
HETATM   18  C   UNL     1     -12.326  13.272  65.445  1.00  0.00    -0.479 C  
HETATM   19  C   UNL     1     -11.137  13.475  64.507  1.00  0.00    -0.394 C  
HETATM   20  O   UNL     1     -13.322  12.524  64.746  1.00  0.00    -0.773 OA 
HETATM   21  C   UNL     1     -10.424  12.152  64.221  1.00  0.00    -0.373 C  
HETATM   22  H   UNL     1     -13.563  12.985  63.951  1.00  0.00     0.000 HD 
ENDBRANCH  13  15
ENDBRANCH  12  13
ENDBRANCH  11  12
TORSDOF 3
ENDMDL
MODEL      229
REMARK 921   NORMALIZED FREE ENERGY PREDICTED BY IDOCK:   -2.64 KCAL/MOL
REMARK 922        TOTAL FREE ENERGY PREDICTED BY IDOCK:   -3.76 KCAL/MOL
REMARK 923 INTER-LIGAND FREE ENERGY PREDICTED BY IDOCK:   -3.37 KCAL/MOL
REMARK 924 INTRA-LIGAND FREE ENERGY PREDICTED BY IDOCK:   -0.39 KCAL/MOL
REMARK 927      BINDING AFFINITY PREDICTED BY RF-SCORE:    0.00 PKD
ROOT
HETATM    1  N   UNL     1     -10.556  11.104  64.454  1.00  0.00    -0.348 NA 
HETATM    2  H2  UNL     1     -10.038  11.682  63.791  1.00  0.00     0.000 HD 
HETATM    3  C   UNL     1     -10.805  11.869  65.614  1.00  0.00    -0.286 A  
HETATM    4  H1  UNL     1     -10.087  10.201  64.531  1.00  0.00     0.000 HD 
HETATM    5  C   UNL     1     -11.454  13.120  65.508  1.00  0.00    -0.315 A  
HETATM    6  C   UNL     1     -11.632  13.954  66.615  1.00  0.00    -0.392 A  
HETATM    7 BR   UNL     1     -12.148  13.724  63.839  1.00  0.00    -0.337 Br 
HETATM    8  C   UNL     1     -11.121  13.559  67.844  1.00  0.00    -0.265 A  
HETATM    9  C   UNL     1     -10.418  12.365  67.966  1.00  0.00    -0.227 A  
HETATM   10 BR   UNL     1     -11.345  14.673  69.355  1.00  0.00    -0.335 Br 
HETATM   11  C   UNL     1     -10.229  11.515  66.855  1.00  0.00    -0.249 A  
ENDROOT
BRANCH  11  12
HETATM   12  C   UNL     1      -9.357  10.289  67.050  1.00  0.00    -0.154 C  
BRANCH  12  13
HETATM   13  N   UNL     1      -8.128  10.587  67.804  1.00  0.00    -0.106 NA 
HETATM   14  H   UNL     1      -8.324  11.176  68.614  1.00  0.00     0.000 HD 
BRANCH  13  15
HETATM   15  C   UNL     1      -7.410   9.356  68.194  1.00  0.00    -0.078 C  
HETATM   16  C   UNL     1      -5.887   9.586  68.127  1.00  0.00    -0.040 C  
HETATM   17  C   UNL     1      -5.369  10.543  69.206  1.00  0.00    -0.038 C  
HETATM   18  C   UNL     1      -5.841  10.159  70.611  1.00  0.00    -0.096 C  
HETATM   19  C   UNL     1      -7.346   9.905  70.670  1.00  0.00    -0.000 C  
HETATM   20  O   UNL     1      -5.171   8.968  71.027  1.00  0.00    -0.027 OA 
HETATM   21  C   UNL     1      -7.780   8.889  69.611  1.00  0.00    -0.078 C  
HETATM   22  H   UNL     1      -5.464   8.730  71.899  1.00  0.00     0.000 HD 
ENDBRANCH  13  15
ENDBRANCH  12  13
ENDBRANCH  11  12
TORSDOF 3
ENDMDL
MODEL      230
REMARK 921   NORMALIZED FREE ENERGY PREDICTED BY IDOCK:   -2.62 KCAL/MOL
REMARK 922        TOTAL FREE ENERGY PREDICTED BY IDOCK:   -3.75 KCAL/MOL
REMARK 923 INTER-LIGAND FREE ENERGY PREDICTED BY IDOCK:   -3.27 KCAL/MOL
REMARK 924 INTRA-LIGAND FREE ENERGY PREDICTED BY IDOCK:   -0.48 KCAL/MOL
REMARK 927      BINDING AFFINITY PREDICTED BY RF-SCORE:    0.00 PKD
ROOT
HETATM    1  N   UNL     1     -11.322   9.319  69.751  1.00  0.00    -0.432 NA 
HETATM    2  H2  UNL     1     -11.436   9.639  70.713  1.00  0.00     0.000 HD 
HETATM    3  C   UNL     1     -10.795   8.009  69.775  1.00  0.00    -0.194 A  
HETATM    4  H1  UNL     1     -10.846  10.049  69.222  1.00  0.00     0.000 HD 
HETATM    5  C   UNL     1     -11.454   6.996  70.509  1.00  0.00    -0.319 A  
HETATM    6  C   UNL     1     -10.916   5.714  70.642  1.00  0.00    -0.258 A  
HETATM    7 BR   UNL     1     -13.137   7.328  71.340  1.00  0.00    -0.362 Br 
HETATM    8  C   UNL     1      -9.682   5.440  70.069  1.00  0.00    -0.185 A  
HETATM    9  C   UNL     1      -8.977   6.434  69.398  1.00  0.00    -0.131 A  
HETATM   10 BR   UNL     1      -8.932   3.713  70.240  1.00  0.00    -0.188 Br 
HETATM   11  C   UNL     1      -9.508   7.734  69.260  1.00  0.00    -0.155 A  
ENDROOT
BRANCH  11  12
HETATM   12  C   UNL     1      -8.628   8.787  68.612  1.00  0.00    -0.134 C  
BRANCH  12  13
HETATM   13  N   UNL     1      -9.130   9.205  67.294  1.00  0.00    -0.126 NA 
HETATM   14  H   UNL     1     -10.109   9.487  67.342  1.00  0.00     0.000 HD 
BRANCH  13  15
HETATM   15  C   UNL     1      -8.292  10.269  66.699  1.00  0.00    -0.125 C  
HETATM   16  C   UNL     1      -6.799   9.950  66.911  1.00  0.00    -0.087 C  
HETATM   17  C   UNL     1      -6.313   8.747  66.095  1.00  0.00    -0.064 C  
HETATM   18  C   UNL     1      -6.683   8.852  64.614  1.00  0.00    -0.073 C  
HETATM   19  C   UNL     1      -8.156   9.194  64.405  1.00  0.00    -0.145 C  
HETATM   20  O   UNL     1      -5.896   9.873  63.999  1.00  0.00    -0.100 OA 
HETATM   21  C   UNL     1      -8.553  10.444  65.194  1.00  0.00    -0.189 C  
HETATM   22  H   UNL     1      -6.125   9.938  63.080  1.00  0.00     0.000 HD 
ENDBRANCH  13  15
ENDBRANCH  12  13
ENDBRANCH  11  12
TORSDOF 3
ENDMDL
MODEL      231
REMARK 921   NORMALIZED FREE ENERGY PREDICTED BY IDOCK:   -2.62 KCAL/MOL
REMARK 922        TOTAL FREE ENERGY PREDICTED BY IDOCK:   -3.75 KCAL/MOL
REMARK 923 INTER-LIGAND FREE ENERGY PREDICTED BY IDOCK:   -2.99 KCAL/MOL
REMARK 924 INTRA-LIGAND FREE ENERGY PREDICTED BY IDOCK:   -0.76 KCAL/MOL
REMARK 927      BINDING AFFINITY PREDICTED BY RF-SCORE:    0.00 PKD
ROOT
HETATM    1  N   UNL     1      -9.317  10.482  68.665  1.00  0.00    -0.164 NA 
HETATM    2  H2  UNL     1     -10.203  10.010  68.847  1.00  0.00     0.000 HD 
HETATM    3  C   UNL     1      -9.130  10.557  67.268  1.00  0.00    -0.143 A  
HETATM    4  H1  UNL     1      -8.598  10.059  69.253  1.00  0.00     0.000 HD 
HETATM    5  C   UNL     1     -10.126  11.142  66.453  1.00  0.00    -0.226 A  
HETATM    6  C   UNL     1     -10.027  11.148  65.060  1.00  0.00    -0.325 A  
HETATM    7 BR   UNL     1     -11.653  11.982  67.224  1.00  0.00    -0.349 Br 
HETATM    8  C   UNL     1      -8.941  10.527  64.459  1.00  0.00    -0.209 A  
HETATM    9  C   UNL     1      -7.979   9.884  65.230  1.00  0.00    -0.137 A  
HETATM   10 BR   UNL     1      -8.789  10.518  62.574  1.00  0.00    -0.329 Br 
HETATM   11  C   UNL     1      -8.068   9.868  66.639  1.00  0.00    -0.117 A  
ENDROOT
BRANCH  11  12
HETATM   12  C   UNL     1      -7.040   9.050  67.399  1.00  0.00    -0.079 C  
BRANCH  12  13
HETATM   13  N   UNL     1      -7.659   8.043  68.275  1.00  0.00    -0.106 NA 
HETATM   14  H   UNL     1      -8.566   8.358  68.619  1.00  0.00     0.000 HD 
BRANCH  13  15
HETATM   15  C   UNL     1      -7.764   6.726  67.612  1.00  0.00    -0.111 C  
HETATM   16  C   UNL     1      -7.503   5.598  68.629  1.00  0.00    -0.084 C  
HETATM   17  C   UNL     1      -8.615   5.452  69.674  1.00  0.00    -0.103 C  
HETATM   18  C   UNL     1     -10.007   5.361  69.045  1.00  0.00    -0.190 C  
HETATM   19  C   UNL     1     -10.254   6.464  68.017  1.00  0.00    -0.195 C  
HETATM   20  O   UNL     1     -10.150   4.101  68.389  1.00  0.00     0.009 OA 
HETATM   21  C   UNL     1      -9.142   6.505  66.967  1.00  0.00    -0.133 C  
HETATM   22  H   UNL     1     -11.013   4.044  67.998  1.00  0.00     0.000 HD 
ENDBRANCH  13  15
ENDBRANCH  12  13
ENDBRANCH  11  12
TORSDOF 3
ENDMDL
MODEL      232
REMARK 921   NORMALIZED FREE ENERGY PREDICTED BY IDOCK:   -2.58 KCAL/MOL
REMARK 922        TOTAL FREE ENERGY PREDICTED BY IDOCK:   -3.70 KCAL/MOL
REMARK 923 INTER-LIGAND FREE ENERGY PREDICTED BY IDOCK:   -3.09 KCAL/MOL
REMARK 924 INTRA-LIGAND FREE ENERGY PREDICTED BY IDOCK:   -0.61 KCAL/MOL
REMARK 927      BINDING AFFINITY PREDICTED BY RF-SCORE:    0.00 PKD
ROOT
HETATM    1  N   UNL     1      -9.167  10.650  68.453  1.00  0.00    -0.152 NA 
HETATM    2  H2  UNL     1     -10.103  10.399  68.134  1.00  0.00     0.000 HD 
HETATM    3  C   UNL     1      -8.227  10.104  67.551  1.00  0.00    -0.114 A  
HETATM    4  H1  UNL     1      -9.097  10.441  69.449  1.00  0.00     0.000 HD 
HETATM    5  C   UNL     1      -8.323  10.393  66.171  1.00  0.00    -0.149 A  
HETATM    6  C   UNL     1      -7.477   9.797  65.233  1.00  0.00    -0.120 A  
HETATM    7 BR   UNL     1      -9.607  11.642  65.520  1.00  0.00    -0.216 Br 
HETATM    8  C   UNL     1      -6.543   8.866  65.666  1.00  0.00    -0.064 A  
HETATM    9  C   UNL     1      -6.469   8.510  67.008  1.00  0.00    -0.057 A  
HETATM   10 BR   UNL     1      -5.390   8.042  64.413  1.00  0.00    -0.037 Br 
HETATM   11  C   UNL     1      -7.320   9.103  67.966  1.00  0.00    -0.083 A  
ENDROOT
BRANCH  11  12
HETATM   12  C   UNL     1      -7.251   8.577  69.387  1.00  0.00    -0.062 C  
BRANCH  12  13
HETATM   13  N   UNL     1      -8.541   8.046  69.853  1.00  0.00    -0.133 NA 
HETATM   14  H   UNL     1      -8.723   7.120  69.465  1.00  0.00     0.000 HD 
BRANCH  13  15
HETATM   15  C   UNL     1      -8.632   8.038  71.329  1.00  0.00    -0.126 C  
HETATM   16  C   UNL     1      -9.598   9.140  71.807  1.00  0.00    -0.135 C  
HETATM   17  C   UNL     1     -11.063   8.859  71.454  1.00  0.00    -0.376 C  
HETATM   18  C   UNL     1     -11.515   7.461  71.881  1.00  0.00    -0.266 C  
HETATM   19  C   UNL     1     -10.543   6.372  71.430  1.00  0.00    -0.274 C  
HETATM   20  O   UNL     1     -11.614   7.408  73.305  1.00  0.00    -0.584 OA 
HETATM   21  C   UNL     1      -9.113   6.684  71.877  1.00  0.00    -0.143 C  
HETATM   22  H   UNL     1     -11.894   6.540  73.570  1.00  0.00     0.000 HD 
ENDBRANCH  13  15
ENDBRANCH  12  13
ENDBRANCH  11  12
TORSDOF 3
ENDMDL
MODEL      233
REMARK 921   NORMALIZED FREE ENERGY PREDICTED BY IDOCK:   -2.58 KCAL/MOL
REMARK 922        TOTAL FREE ENERGY PREDICTED BY IDOCK:   -3.69 KCAL/MOL
REMARK 923 INTER-LIGAND FREE ENERGY PREDICTED BY IDOCK:   -3.28 KCAL/MOL
REMARK 924 INTRA-LIGAND FREE ENERGY PREDICTED BY IDOCK:   -0.42 KCAL/MOL
REMARK 927      BINDING AFFINITY PREDICTED BY RF-SCORE:    0.00 PKD
ROOT
HETATM    1  N   UNL     1      -9.021   6.556  72.254  1.00  0.00    -0.138 NA 
HETATM    2  H2  UNL     1      -8.380   6.107  72.909  1.00  0.00     0.000 HD 
HETATM    3  C   UNL     1      -9.159   5.723  71.122  1.00  0.00    -0.146 A  
HETATM    4  H1  UNL     1      -8.736   7.529  72.139  1.00  0.00     0.000 HD 
HETATM    5  C   UNL     1      -9.553   4.375  71.282  1.00  0.00    -0.172 A  
HETATM    6  C   UNL     1      -9.606   3.490  70.202  1.00  0.00    -0.225 A  
HETATM    7 BR   UNL     1     -10.061   3.700  72.990  1.00  0.00    -0.234 Br 
HETATM    8  C   UNL     1      -9.222   3.939  68.946  1.00  0.00    -0.152 A  
HETATM    9  C   UNL     1      -8.765   5.240  68.768  1.00  0.00    -0.093 A  
HETATM   10 BR   UNL     1      -9.281   2.758  67.470  1.00  0.00    -0.208 Br 
HETATM   11  C   UNL     1      -8.704   6.143  69.852  1.00  0.00    -0.136 A  
ENDROOT
BRANCH  11  12
HETATM   12  C   UNL     1      -8.089   7.507  69.595  1.00  0.00    -0.127 C  
BRANCH  12  13
HETATM   13  N   UNL     1      -8.660   8.166  68.410  1.00  0.00    -0.130 NA 
HETATM   14  H   UNL     1      -9.631   7.891  68.264  1.00  0.00     0.000 HD 
BRANCH  13  15
HETATM   15  C   UNL     1      -8.522   9.636  68.479  1.00  0.00    -0.118 C  
HETATM   16  C   UNL     1      -9.024  10.279  67.171  1.00  0.00    -0.145 C  
HETATM   17  C   UNL     1     -10.541  10.168  66.983  1.00  0.00    -0.290 C  
HETATM   18  C   UNL     1     -11.324  10.647  68.207  1.00  0.00    -0.289 C  
HETATM   19  C   UNL     1     -10.809  10.031  69.506  1.00  0.00    -0.283 C  
HETATM   20  O   UNL     1     -11.215  12.068  68.313  1.00  0.00    -0.222 OA 
HETATM   21  C   UNL     1      -9.301  10.240  69.660  1.00  0.00    -0.167 C  
HETATM   22  H   UNL     1     -11.701  12.366  69.073  1.00  0.00     0.000 HD 
ENDBRANCH  13  15
ENDBRANCH  12  13
ENDBRANCH  11  12
TORSDOF 3
ENDMDL
MODEL      234
REMARK 921   NORMALIZED FREE ENERGY PREDICTED BY IDOCK:   -2.51 KCAL/MOL
REMARK 922        TOTAL FREE ENERGY PREDICTED BY IDOCK:   -3.62 KCAL/MOL
REMARK 923 INTER-LIGAND FREE ENERGY PREDICTED BY IDOCK:   -3.11 KCAL/MOL
REMARK 924 INTRA-LIGAND FREE ENERGY PREDICTED BY IDOCK:   -0.51 KCAL/MOL
REMARK 927      BINDING AFFINITY PREDICTED BY RF-SCORE:    0.00 PKD
ROOT
HETATM    1  N   UNL     1     -11.068   9.407  67.456  1.00  0.00    -0.415 NA 
HETATM    2  H2  UNL     1     -11.444   9.470  66.509  1.00  0.00     0.000 HD 
HETATM    3  C   UNL     1      -9.792  10.013  67.471  1.00  0.00    -0.175 A  
HETATM    4  H1  UNL     1     -11.180   8.448  67.785  1.00  0.00     0.000 HD 
HETATM    5  C   UNL     1      -9.637  11.341  67.014  1.00  0.00    -0.178 A  
HETATM    6  C   UNL     1      -8.381  11.945  66.919  1.00  0.00    -0.169 A  
HETATM    7 BR   UNL     1     -11.151  12.392  66.527  1.00  0.00    -0.367 Br 
HETATM    8  C   UNL     1      -7.253  11.205  67.244  1.00  0.00    -0.113 A  
HETATM    9  C   UNL     1      -7.367   9.874  67.631  1.00  0.00    -0.090 A  
HETATM   10 BR   UNL     1      -5.542  12.000  67.117  1.00  0.00    -0.109 Br 
HETATM   11  C   UNL     1      -8.630   9.252  67.729  1.00  0.00    -0.117 A  
ENDROOT
BRANCH  11  12
HETATM   12  C   UNL     1      -8.659   7.769  68.050  1.00  0.00    -0.123 C  
BRANCH  12  13
HETATM   13  N   UNL     1      -9.059   7.503  69.441  1.00  0.00    -0.143 NA 
HETATM   14  H   UNL     1      -9.203   8.370  69.958  1.00  0.00     0.000 HD 
BRANCH  13  15
HETATM   15  C   UNL     1     -10.251   6.631  69.513  1.00  0.00    -0.183 C  
HETATM   16  C   UNL     1      -9.834   5.152  69.388  1.00  0.00    -0.269 C  
HETATM   17  C   UNL     1      -9.058   4.634  70.603  1.00  0.00    -0.181 C  
HETATM   18  C   UNL     1      -9.769   4.931  71.926  1.00  0.00    -0.163 C  
HETATM   19  C   UNL     1     -10.205   6.390  72.038  1.00  0.00    -0.216 C  
HETATM   20  O   UNL     1     -10.931   4.108  72.035  1.00  0.00     0.206 OA 
HETATM   21  C   UNL     1     -11.033   6.817  70.823  1.00  0.00    -0.306 C  
HETATM   22  H   UNL     1     -11.372   4.292  72.856  1.00  0.00     0.000 HD 
ENDBRANCH  13  15
ENDBRANCH  12  13
ENDBRANCH  11  12
TORSDOF 3
ENDMDL
MODEL      235
REMARK 921   NORMALIZED FREE ENERGY PREDICTED BY IDOCK:   -2.50 KCAL/MOL
REMARK 922        TOTAL FREE ENERGY PREDICTED BY IDOCK:   -3.60 KCAL/MOL
REMARK 923 INTER-LIGAND FREE ENERGY PREDICTED BY IDOCK:   -3.07 KCAL/MOL
REMARK 924 INTRA-LIGAND FREE ENERGY PREDICTED BY IDOCK:   -0.53 KCAL/MOL
REMARK 927      BINDING AFFINITY PREDICTED BY RF-SCORE:    0.00 PKD
ROOT
HETATM    1  N   UNL     1     -11.236   8.219  69.044  1.00  0.00    -0.306 NA 
HETATM    2  H2  UNL     1     -11.367   8.993  69.695  1.00  0.00     0.000 HD 
HETATM    3  C   UNL     1     -10.668   7.134  69.748  1.00  0.00    -0.239 A  
HETATM    4  H1  UNL     1     -10.779   8.575  68.205  1.00  0.00     0.000 HD 
HETATM    5  C   UNL     1     -11.301   6.639  70.911  1.00  0.00    -0.325 A  
HETATM    6  C   UNL     1     -10.724   5.636  71.693  1.00  0.00    -0.313 A  
HETATM    7 BR   UNL     1     -13.000   7.307  71.460  1.00  0.00    -0.411 Br 
HETATM    8  C   UNL     1      -9.477   5.140  71.338  1.00  0.00    -0.152 A  
HETATM    9  C   UNL     1      -8.799   5.653  70.238  1.00  0.00    -0.146 A  
HETATM   10 BR   UNL     1      -8.675   3.785  72.385  1.00  0.00    -0.117 Br 
HETATM   11  C   UNL     1      -9.370   6.669  69.442  1.00  0.00    -0.147 A  
ENDROOT
BRANCH  11  12
HETATM   12  C   UNL     1      -8.517   7.250  68.329  1.00  0.00    -0.124 C  
BRANCH  12  13
HETATM   13  N   UNL     1      -8.106   8.637  68.602  1.00  0.00    -0.115 NA 
HETATM   14  H   UNL     1      -7.463   8.684  69.391  1.00  0.00     0.000 HD 
BRANCH  13  15
HETATM   15  C   UNL     1      -7.536   9.287  67.403  1.00  0.00    -0.087 C  
HETATM   16  C   UNL     1      -8.295  10.592  67.095  1.00  0.00    -0.125 C  
HETATM   17  C   UNL     1      -8.053  11.696  68.130  1.00  0.00    -0.148 C  
HETATM   18  C   UNL     1      -6.565  11.935  68.399  1.00  0.00    -0.056 C  
HETATM   19  C   UNL     1      -5.808  10.638  68.677  1.00  0.00    -0.040 C  
HETATM   20  O   UNL     1      -5.972  12.562  67.261  1.00  0.00    -0.170 OA 
HETATM   21  C   UNL     1      -6.042   9.610  67.569  1.00  0.00    -0.052 C  
HETATM   22  H   UNL     1      -5.049  12.711  67.427  1.00  0.00     0.000 HD 
ENDBRANCH  13  15
ENDBRANCH  12  13
ENDBRANCH  11  12
TORSDOF 3
ENDMDL
MODEL      236
REMARK 921   NORMALIZED FREE ENERGY PREDICTED BY IDOCK:   -2.38 KCAL/MOL
REMARK 922        TOTAL FREE ENERGY PREDICTED BY IDOCK:   -3.46 KCAL/MOL
REMARK 923 INTER-LIGAND FREE ENERGY PREDICTED BY IDOCK:   -3.13 KCAL/MOL
REMARK 924 INTRA-LIGAND FREE ENERGY PREDICTED BY IDOCK:   -0.33 KCAL/MOL
REMARK 927      BINDING AFFINITY PREDICTED BY RF-SCORE:    0.00 PKD
ROOT
HETATM    1  N   UNL     1      -6.797   4.750  67.773  1.00  0.00    -0.058 NA 
HETATM    2  H2  UNL     1      -5.866   4.340  67.699  1.00  0.00     0.000 HD 
HETATM    3  C   UNL     1      -6.732   6.090  67.333  1.00  0.00    -0.061 A  
HETATM    4  H1  UNL     1      -7.172   4.536  68.698  1.00  0.00     0.000 HD 
HETATM    5  C   UNL     1      -6.213   6.388  66.052  1.00  0.00    -0.038 A  
HETATM    6  C   UNL     1      -6.038   7.703  65.616  1.00  0.00    -0.038 A  
HETATM    7 BR   UNL     1      -5.746   4.995  64.838  1.00  0.00    -0.017 Br 
HETATM    8  C   UNL     1      -6.346   8.745  66.480  1.00  0.00    -0.062 A  
HETATM    9  C   UNL     1      -6.795   8.485  67.770  1.00  0.00    -0.067 A  
HETATM   10 BR   UNL     1      -6.112  10.534  65.913  1.00  0.00    -0.138 Br 
HETATM   11  C   UNL     1      -6.973   7.160  68.225  1.00  0.00    -0.076 A  
ENDROOT
BRANCH  11  12
HETATM   12  C   UNL     1      -7.359   6.962  69.679  1.00  0.00    -0.086 C  
BRANCH  12  13
HETATM   13  N   UNL     1      -8.759   7.329  69.944  1.00  0.00    -0.141 NA 
HETATM   14  H   UNL     1      -9.341   7.191  69.118  1.00  0.00     0.000 HD 
BRANCH  13  15
HETATM   15  C   UNL     1      -9.304   6.609  71.114  1.00  0.00    -0.163 C  
HETATM   16  C   UNL     1      -9.751   7.612  72.195  1.00  0.00    -0.220 C  
HETATM   17  C   UNL     1     -10.984   8.429  71.793  1.00  0.00    -0.359 C  
HETATM   18  C   UNL     1     -12.137   7.552  71.299  1.00  0.00    -0.323 C  
HETATM   19  C   UNL     1     -11.688   6.539  70.247  1.00  0.00    -0.430 C  
HETATM   20  O   UNL     1     -12.693   6.833  72.401  1.00  0.00    -0.520 OA 
HETATM   21  C   UNL     1     -10.498   5.714  70.743  1.00  0.00    -0.335 C  
HETATM   22  H   UNL     1     -13.408   6.289  72.094  1.00  0.00     0.000 HD 
ENDBRANCH  13  15
ENDBRANCH  12  13
ENDBRANCH  11  12
TORSDOF 3
ENDMDL
MODEL      237
REMARK 921   NORMALIZED FREE ENERGY PREDICTED BY IDOCK:   -2.32 KCAL/MOL
REMARK 922        TOTAL FREE ENERGY PREDICTED BY IDOCK:   -3.39 KCAL/MOL
REMARK 923 INTER-LIGAND FREE ENERGY PREDICTED BY IDOCK:   -3.49 KCAL/MOL
REMARK 924 INTRA-LIGAND FREE ENERGY PREDICTED BY IDOCK:    0.09 KCAL/MOL
REMARK 927      BINDING AFFINITY PREDICTED BY RF-SCORE:    0.00 PKD
ROOT
HETATM    1  N   UNL     1      -6.923  18.944  67.972  1.00  0.00    -0.229 NA 
HETATM    2  H2  UNL     1      -6.004  19.360  67.820  1.00  0.00     0.000 HD 
HETATM    3  C   UNL     1      -6.744  17.641  68.487  1.00  0.00    -0.208 A  
HETATM    4  H1  UNL     1      -7.485  19.087  67.133  1.00  0.00     0.000 HD 
HETATM    5  C   UNL     1      -5.965  17.443  69.650  1.00  0.00    -0.248 A  
HETATM    6  C   UNL     1      -5.680  16.165  70.136  1.00  0.00    -0.176 A  
HETATM    7 BR   UNL     1      -5.280  18.925  70.634  1.00  0.00    -0.253 Br 
HETATM    8  C   UNL     1      -6.143  15.060  69.435  1.00  0.00    -0.110 A  
HETATM    9  C   UNL     1      -6.855  15.221  68.252  1.00  0.00    -0.122 A  
HETATM   10 BR   UNL     1      -5.765  13.320  70.073  1.00  0.00    -0.138 Br 
HETATM   11  C   UNL     1      -7.147  16.507  67.747  1.00  0.00    -0.154 A  
ENDROOT
BRANCH  11  12
HETATM   12  C   UNL     1      -7.829  16.592  66.395  1.00  0.00    -0.312 C  
BRANCH  12  13
HETATM   13  N   UNL     1      -8.349  17.940  66.112  1.00  0.00    -0.486 NA 
HETATM   14  H   UNL     1      -7.988  18.299  65.228  1.00  0.00     0.000 HD 
BRANCH  13  15
HETATM   15  C   UNL     1      -9.826  17.976  66.145  1.00  0.00    -0.249 C  
HETATM   16  C   UNL     1     -10.336  17.603  67.551  1.00  0.00    -0.365 C  
HETATM   17  C   UNL     1     -10.024  18.665  68.612  1.00  0.00    -0.431 C  
HETATM   18  C   UNL     1     -10.460  20.069  68.187  1.00  0.00    -0.288 C  
HETATM   19  C   UNL     1      -9.979  20.428  66.782  1.00  0.00    -0.525 C  
HETATM   20  O   UNL     1     -11.887  20.148  68.202  1.00  0.00     1.237 OA 
HETATM   21  C   UNL     1     -10.384  19.358  65.766  1.00  0.00    -0.431 C  
HETATM   22  H   UNL     1     -12.158  21.019  67.938  1.00  0.00     0.000 HD 
ENDBRANCH  13  15
ENDBRANCH  12  13
ENDBRANCH  11  12
TORSDOF 3
ENDMDL
MODEL      238
REMARK 921   NORMALIZED FREE ENERGY PREDICTED BY IDOCK:   -2.28 KCAL/MOL
REMARK 922        TOTAL FREE ENERGY PREDICTED BY IDOCK:   -3.35 KCAL/MOL
REMARK 923 INTER-LIGAND FREE ENERGY PREDICTED BY IDOCK:   -2.83 KCAL/MOL
REMARK 924 INTRA-LIGAND FREE ENERGY PREDICTED BY IDOCK:   -0.52 KCAL/MOL
REMARK 927      BINDING AFFINITY PREDICTED BY RF-SCORE:    0.00 PKD
ROOT
HETATM    1  N   UNL     1      -8.774   6.493  65.312  1.00  0.00    -0.348 NA 
HETATM    2  H2  UNL     1      -9.748   6.676  65.070  1.00  0.00     0.000 HD 
HETATM    3  C   UNL     1      -8.742   5.494  66.310  1.00  0.00    -0.128 A  
HETATM    4  H1  UNL     1      -8.307   7.386  65.471  1.00  0.00     0.000 HD 
HETATM    5  C   UNL     1      -9.389   4.257  66.091  1.00  0.00    -0.164 A  
HETATM    6  C   UNL     1      -9.467   3.280  67.086  1.00  0.00    -0.178 A  
HETATM    7 BR   UNL     1     -10.171   3.847  64.401  1.00  0.00    -0.215 Br 
HETATM    8  C   UNL     1      -8.928   3.549  68.337  1.00  0.00    -0.132 A  
HETATM    9  C   UNL     1      -8.345   4.783  68.605  1.00  0.00    -0.083 A  
HETATM   10 BR   UNL     1      -9.027   2.244  69.701  1.00  0.00    -0.172 Br 
HETATM   11  C   UNL     1      -8.262   5.780  67.608  1.00  0.00    -0.101 A  
ENDROOT
BRANCH  11  12
HETATM   12  C   UNL     1      -7.713   7.135  68.014  1.00  0.00    -0.113 C  
BRANCH  12  13
HETATM   13  N   UNL     1      -8.609   8.240  67.639  1.00  0.00    -0.130 NA 
HETATM   14  H   UNL     1      -9.477   7.892  67.231  1.00  0.00     0.000 HD 
BRANCH  13  15
HETATM   15  C   UNL     1      -8.874   9.144  68.778  1.00  0.00    -0.132 C  
HETATM   16  C   UNL     1      -7.547   9.674  69.355  1.00  0.00    -0.097 C  
HETATM   17  C   UNL     1      -6.819  10.643  68.417  1.00  0.00    -0.064 C  
HETATM   18  C   UNL     1      -7.726  11.767  67.912  1.00  0.00    -0.125 C  
HETATM   19  C   UNL     1      -9.053  11.244  67.364  1.00  0.00    -0.151 C  
HETATM   20  O   UNL     1      -8.011  12.666  68.985  1.00  0.00    -0.328 OA 
HETATM   21  C   UNL     1      -9.755  10.340  68.381  1.00  0.00    -0.165 C  
HETATM   22  H   UNL     1      -8.573  13.364  68.672  1.00  0.00     0.000 HD 
ENDBRANCH  13  15
ENDBRANCH  12  13
ENDBRANCH  11  12
TORSDOF 3
ENDMDL
MODEL      239
REMARK 921   NORMALIZED FREE ENERGY PREDICTED BY IDOCK:   -1.96 KCAL/MOL
REMARK 922        TOTAL FREE ENERGY PREDICTED BY IDOCK:   -2.97 KCAL/MOL
REMARK 923 INTER-LIGAND FREE ENERGY PREDICTED BY IDOCK:   -2.99 KCAL/MOL
REMARK 924 INTRA-LIGAND FREE ENERGY PREDICTED BY IDOCK:    0.02 KCAL/MOL
REMARK 927      BINDING AFFINITY PREDICTED BY RF-SCORE:    0.00 PKD
ROOT
HETATM    1  N   UNL     1      -8.320  15.441  65.764  1.00  0.00     0.362 NA 
HETATM    2  H2  UNL     1      -7.672  15.703  65.020  1.00  0.00     0.000 HD 
HETATM    3  C   UNL     1      -7.701  15.697  67.007  1.00  0.00    -0.222 A  
HETATM    4  H1  UNL     1      -8.687  14.511  65.560  1.00  0.00     0.000 HD 
HETATM    5  C   UNL     1      -7.193  16.986  67.289  1.00  0.00    -0.160 A  
HETATM    6  C   UNL     1      -6.486  17.258  68.463  1.00  0.00    -0.170 A  
HETATM    7 BR   UNL     1      -7.471  18.434  66.082  1.00  0.00    -0.256 Br 
HETATM    8  C   UNL     1      -6.244  16.224  69.357  1.00  0.00    -0.177 A  
HETATM    9  C   UNL     1      -6.672  14.931  69.076  1.00  0.00    -0.117 A  
HETATM   10 BR   UNL     1      -5.285  16.567  70.950  1.00  0.00    -0.092 Br 
HETATM   11  C   UNL     1      -7.385  14.642  67.892  1.00  0.00    -0.164 A  
ENDROOT
BRANCH  11  12
HETATM   12  C   UNL     1      -7.717  13.189  67.609  1.00  0.00    -0.168 C  
BRANCH  12  13
HETATM   13  N   UNL     1      -8.706  12.645  68.554  1.00  0.00    -0.354 NA 
HETATM   14  H   UNL     1      -9.643  12.993  68.351  1.00  0.00     0.000 HD 
BRANCH  13  15
HETATM   15  C   UNL     1      -8.676  11.168  68.591  1.00  0.00    -0.153 C  
HETATM   16  C   UNL     1     -10.092  10.614  68.847  1.00  0.00    -0.215 C  
HETATM   17  C   UNL     1     -11.049  10.827  67.669  1.00  0.00    -0.384 C  
HETATM   18  C   UNL     1     -10.465  10.344  66.340  1.00  0.00    -0.177 C  
HETATM   19  C   UNL     1      -9.051  10.871  66.100  1.00  0.00    -0.201 C  
HETATM   20  O   UNL     1     -10.415   8.916  66.334  1.00  0.00    -0.228 OA 
HETATM   21  C   UNL     1      -8.135  10.562  67.286  1.00  0.00    -0.115 C  
HETATM   22  H   UNL     1     -10.053   8.616  65.509  1.00  0.00     0.000 HD 
ENDBRANCH  13  15
ENDBRANCH  12  13
ENDBRANCH  11  12
TORSDOF 3
ENDMDL
MODEL      240
REMARK 921   NORMALIZED FREE ENERGY PREDICTED BY IDOCK:   -1.50 KCAL/MOL
REMARK 922        TOTAL FREE ENERGY PREDICTED BY IDOCK:   -2.42 KCAL/MOL
REMARK 923 INTER-LIGAND FREE ENERGY PREDICTED BY IDOCK:   -1.94 KCAL/MOL
REMARK 924 INTRA-LIGAND FREE ENERGY PREDICTED BY IDOCK:   -0.48 KCAL/MOL
REMARK 927      BINDING AFFINITY PREDICTED BY RF-SCORE:    0.00 PKD
ROOT
HETATM    1  N   UNL     1      -8.073   6.612  65.577  1.00  0.00    -0.119 NA 
HETATM    2  H2  UNL     1      -8.861   7.245  65.438  1.00  0.00     0.000 HD 
HETATM    3  C   UNL     1      -8.054   6.212  66.931  1.00  0.00    -0.109 A  
HETATM    4  H1  UNL     1      -7.243   7.034  65.159  1.00  0.00     0.000 HD 
HETATM    5  C   UNL     1      -9.203   5.628  67.510  1.00  0.00    -0.109 A  
HETATM    6  C   UNL     1      -9.262   5.309  68.869  1.00  0.00    -0.150 A  
HETATM    7 BR   UNL     1     -10.734   5.221  66.450  1.00  0.00    -0.171 Br 
HETATM    8  C   UNL     1      -8.175   5.610  69.678  1.00  0.00    -0.107 A  
HETATM    9  C   UNL     1      -7.056   6.246  69.152  1.00  0.00    -0.077 A  
HETATM   10 BR   UNL     1      -8.234   5.191  71.521  1.00  0.00    -0.117 Br 
HETATM   11  C   UNL     1      -6.985   6.576  67.781  1.00  0.00    -0.082 A  
ENDROOT
BRANCH  11  12
HETATM   12  C   UNL     1      -5.779   7.367  67.311  1.00  0.00    -0.030 C  
BRANCH  12  13
HETATM   13  N   UNL     1      -6.156   8.562  66.540  1.00  0.00    -0.055 NA 
HETATM   14  H   UNL     1      -7.091   8.468  66.143  1.00  0.00     0.000 HD 
BRANCH  13  15
HETATM   15  C   UNL     1      -6.036   9.797  67.345  1.00  0.00    -0.059 C  
HETATM   16  C   UNL     1      -6.493  11.015  66.519  1.00  0.00    -0.132 C  
HETATM   17  C   UNL     1      -8.000  11.031  66.242  1.00  0.00    -0.148 C  
HETATM   18  C   UNL     1      -8.835  10.838  67.510  1.00  0.00    -0.128 C  
HETATM   19  C   UNL     1      -8.365   9.646  68.341  1.00  0.00    -0.117 C  
HETATM   20  O   UNL     1      -8.745  12.010  68.321  1.00  0.00    -0.174 OA 
HETATM   21  C   UNL     1      -6.866   9.733  68.637  1.00  0.00    -0.051 C  
HETATM   22  H   UNL     1      -9.263  11.891  69.108  1.00  0.00     0.000 HD 
ENDBRANCH  13  15
ENDBRANCH  12  13
ENDBRANCH  11  12
TORSDOF 3
ENDMDL
MODEL      241
REMARK 921   NORMALIZED FREE ENERGY PREDICTED BY IDOCK:   -1.33 KCAL/MOL
REMARK 922        TOTAL FREE ENERGY PREDICTED BY IDOCK:   -2.22 KCAL/MOL
REMARK 923 INTER-LIGAND FREE ENERGY PREDICTED BY IDOCK:   -2.44 KCAL/MOL
REMARK 924 INTRA-LIGAND FREE ENERGY PREDICTED BY IDOCK:    0.22 KCAL/MOL
REMARK 927      BINDING AFFINITY PREDICTED BY RF-SCORE:    0.00 PKD
ROOT
HETATM    1  N   UNL     1      -6.635   9.439  68.639  1.00  0.00    -0.052 NA 
HETATM    2  H2  UNL     1      -7.121  10.084  68.016  1.00  0.00     0.000 HD 
HETATM    3  C   UNL     1      -6.547   8.182  68.002  1.00  0.00    -0.057 A  
HETATM    4  H1  UNL     1      -7.052   9.511  69.568  1.00  0.00     0.000 HD 
HETATM    5  C   UNL     1      -5.969   8.082  66.716  1.00  0.00    -0.052 A  
HETATM    6  C   UNL     1      -5.952   6.879  66.008  1.00  0.00    -0.035 A  
HETATM    7 BR   UNL     1      -5.156   9.595  65.888  1.00  0.00    -0.035 Br 
HETATM    8  C   UNL     1      -6.553   5.760  66.568  1.00  0.00    -0.056 A  
HETATM    9  C   UNL     1      -7.189   5.842  67.802  1.00  0.00    -0.076 A  
HETATM   10 BR   UNL     1      -6.546   4.121  65.625  1.00  0.00    -0.045 Br 
HETATM   11  C   UNL     1      -7.217   7.054  68.526  1.00  0.00    -0.091 A  
ENDROOT
BRANCH  11  12
HETATM   12  C   UNL     1      -8.026   7.086  69.809  1.00  0.00    -0.124 C  
BRANCH  12  13
HETATM   13  N   UNL     1      -8.762   5.833  70.041  1.00  0.00    -0.130 NA 
HETATM   14  H   UNL     1      -8.212   5.176  70.595  1.00  0.00     0.000 HD 
BRANCH  13  15
HETATM   15  C   UNL     1     -10.085   6.077  70.653  1.00  0.00    -0.194 C  
HETATM   16  C   UNL     1     -10.330   5.080  71.803  1.00  0.00    -0.268 C  
HETATM   17  C   UNL     1      -9.430   5.323  73.020  1.00  0.00    -0.150 C  
HETATM   18  C   UNL     1      -9.458   6.778  73.493  1.00  0.00    -0.163 C  
HETATM   19  C   UNL     1      -9.242   7.766  72.348  1.00  0.00    -0.218 C  
HETATM   20  O   UNL     1     -10.724   7.059  74.091  1.00  0.00    -0.496 OA 
HETATM   21  C   UNL     1     -10.219   7.508  71.200  1.00  0.00    -0.199 C  
HETATM   22  H   UNL     1     -10.741   7.962  74.385  1.00  0.00     0.000 HD 
ENDBRANCH  13  15
ENDBRANCH  12  13
ENDBRANCH  11  12
TORSDOF 3
ENDMDL
MODEL      242
REMARK 921   NORMALIZED FREE ENERGY PREDICTED BY IDOCK:   -1.31 KCAL/MOL
REMARK 922        TOTAL FREE ENERGY PREDICTED BY IDOCK:   -2.20 KCAL/MOL
REMARK 923 INTER-LIGAND FREE ENERGY PREDICTED BY IDOCK:   -2.26 KCAL/MOL
REMARK 924 INTRA-LIGAND FREE ENERGY PREDICTED BY IDOCK:    0.06 KCAL/MOL
REMARK 927      BINDING AFFINITY PREDICTED BY RF-SCORE:    0.00 PKD
ROOT
HETATM    1  N   UNL     1      -6.956  10.103  68.190  1.00  0.00    -0.074 NA 
HETATM    2  H2  UNL     1      -7.237  10.994  67.781  1.00  0.00     0.000 HD 
HETATM    3  C   UNL     1      -7.128   9.092  67.219  1.00  0.00    -0.079 A  
HETATM    4  H1  UNL     1      -7.401  10.012  69.103  1.00  0.00     0.000 HD 
HETATM    5  C   UNL     1      -6.512   9.218  65.953  1.00  0.00    -0.071 A  
HETATM    6  C   UNL     1      -6.735   8.293  64.930  1.00  0.00    -0.067 A  
HETATM    7 BR   UNL     1      -5.316  10.656  65.584  1.00  0.00    -0.134 Br 
HETATM    8  C   UNL     1      -7.616   7.243  65.153  1.00  0.00    -0.105 A  
HETATM    9  C   UNL     1      -8.289   7.130  66.364  1.00  0.00    -0.125 A  
HETATM   10 BR   UNL     1      -7.937   5.981  63.782  1.00  0.00    -0.087 Br 
HETATM   11  C   UNL     1      -8.075   8.060  67.405  1.00  0.00    -0.122 A  
ENDROOT
BRANCH  11  12
HETATM   12  C   UNL     1      -8.931   7.929  68.651  1.00  0.00    -0.134 C  
BRANCH  12  13
HETATM   13  N   UNL     1      -8.165   8.162  69.886  1.00  0.00    -0.116 NA 
HETATM   14  H   UNL     1      -8.661   8.790  70.517  1.00  0.00     0.000 HD 
BRANCH  13  15
HETATM   15  C   UNL     1      -7.809   6.894  70.558  1.00  0.00    -0.105 C  
HETATM   16  C   UNL     1      -8.085   7.000  72.071  1.00  0.00    -0.097 C  
HETATM   17  C   UNL     1      -9.578   7.067  72.413  1.00  0.00    -0.163 C  
HETATM   18  C   UNL     1     -10.385   5.949  71.749  1.00  0.00    -0.216 C  
HETATM   19  C   UNL     1     -10.091   5.827  70.255  1.00  0.00    -0.273 C  
HETATM   20  O   UNL     1     -10.069   4.702  72.369  1.00  0.00    -0.169 OA 
HETATM   21  C   UNL     1      -8.588   5.695  69.994  1.00  0.00    -0.122 C  
HETATM   22  H   UNL     1     -10.570   4.008  71.957  1.00  0.00     0.000 HD 
ENDBRANCH  13  15
ENDBRANCH  12  13
ENDBRANCH  11  12
TORSDOF 3
ENDMDL
MODEL      243
REMARK 921   NORMALIZED FREE ENERGY PREDICTED BY IDOCK:   -1.16 KCAL/MOL
REMARK 922        TOTAL FREE ENERGY PREDICTED BY IDOCK:   -2.03 KCAL/MOL
REMARK 923 INTER-LIGAND FREE ENERGY PREDICTED BY IDOCK:   -1.90 KCAL/MOL
REMARK 924 INTRA-LIGAND FREE ENERGY PREDICTED BY IDOCK:   -0.12 KCAL/MOL
REMARK 927      BINDING AFFINITY PREDICTED BY RF-SCORE:    0.00 PKD
ROOT
HETATM    1  N   UNL     1      -7.186   8.898  67.428  1.00  0.00    -0.080 NA 
HETATM    2  H2  UNL     1      -8.053   9.432  67.373  1.00  0.00     0.000 HD 
HETATM    3  C   UNL     1      -7.366   7.679  66.737  1.00  0.00    -0.089 A  
HETATM    4  H1  UNL     1      -6.872   8.890  68.399  1.00  0.00     0.000 HD 
HETATM    5  C   UNL     1      -7.801   7.689  65.392  1.00  0.00    -0.115 A  
HETATM    6  C   UNL     1      -8.088   6.509  64.703  1.00  0.00    -0.092 A  
HETATM    7 BR   UNL     1      -7.996   9.328  64.438  1.00  0.00    -0.143 Br 
HETATM    8  C   UNL     1      -7.980   5.297  65.370  1.00  0.00    -0.108 A  
HETATM    9  C   UNL     1      -7.620   5.258  66.712  1.00  0.00    -0.088 A  
HETATM   10 BR   UNL     1      -8.368   3.686  64.458  1.00  0.00    -0.093 Br 
HETATM   11  C   UNL     1      -7.330   6.444  67.422  1.00  0.00    -0.087 A  
ENDROOT
BRANCH  11  12
HETATM   12  C   UNL     1      -7.054   6.323  68.909  1.00  0.00    -0.082 C  
BRANCH  12  13
HETATM   13  N   UNL     1      -6.872   4.926  69.334  1.00  0.00    -0.051 NA 
HETATM   14  H   UNL     1      -5.915   4.612  69.178  1.00  0.00     0.000 HD 
BRANCH  13  15
HETATM   15  C   UNL     1      -7.283   4.721  70.740  1.00  0.00    -0.049 C  
HETATM   16  C   UNL     1      -8.145   5.906  71.219  1.00  0.00    -0.118 C  
HETATM   17  C   UNL     1      -9.522   5.965  70.550  1.00  0.00    -0.196 C  
HETATM   18  C   UNL     1     -10.271   4.633  70.622  1.00  0.00    -0.141 C  
HETATM   19  C   UNL     1      -9.408   3.455  70.173  1.00  0.00    -0.244 C  
HETATM   20  O   UNL     1     -10.685   4.393  71.968  1.00  0.00    -0.056 OA 
HETATM   21  C   UNL     1      -8.079   3.419  70.931  1.00  0.00    -0.068 C  
HETATM   22  H   UNL     1     -11.150   3.566  72.014  1.00  0.00     0.000 HD 
ENDBRANCH  13  15
ENDBRANCH  12  13
ENDBRANCH  11  12
TORSDOF 3
ENDMDL
MODEL      244
REMARK 921   NORMALIZED FREE ENERGY PREDICTED BY IDOCK:    0.65 KCAL/MOL
REMARK 922        TOTAL FREE ENERGY PREDICTED BY IDOCK:    0.10 KCAL/MOL
REMARK 923 INTER-LIGAND FREE ENERGY PREDICTED BY IDOCK:    0.50 KCAL/MOL
REMARK 924 INTRA-LIGAND FREE ENERGY PREDICTED BY IDOCK:   -0.41 KCAL/MOL
REMARK 927      BINDING AFFINITY PREDICTED BY RF-SCORE:    0.00 PKD
ROOT
HETATM    1  N   UNL     1      -8.211  15.354  65.540  1.00  0.00     1.461 NA 
HETATM    2  H2  UNL     1      -7.553  15.704  64.845  1.00  0.00     0.000 HD 
HETATM    3  C   UNL     1      -7.649  15.539  66.822  1.00  0.00    -0.018 A  
HETATM    4  H1  UNL     1      -8.524  14.426  65.251  1.00  0.00     0.000 HD 
HETATM    5  C   UNL     1      -7.216  16.824  67.223  1.00  0.00    -0.172 A  
HETATM    6  C   UNL     1      -6.565  17.035  68.441  1.00  0.00    -0.157 A  
HETATM    7 BR   UNL     1      -7.526  18.349  66.123  1.00  0.00    -0.256 Br 
HETATM    8  C   UNL     1      -6.301  15.946  69.260  1.00  0.00    -0.153 A  
HETATM    9  C   UNL     1      -6.654  14.661  68.864  1.00  0.00    -0.093 A  
HETATM   10 BR   UNL     1      -5.416  16.207  70.911  1.00  0.00     0.074 Br 
HETATM   11  C   UNL     1      -7.310  14.434  67.634  1.00  0.00    -0.197 A  
ENDROOT
BRANCH  11  12
HETATM   12  C   UNL     1      -7.559  12.993  67.227  1.00  0.00    -0.089 C  
BRANCH  12  13
HETATM   13  N   UNL     1      -8.544  12.327  68.094  1.00  0.00    -0.176 NA 
HETATM   14  H   UNL     1      -9.492  12.643  67.891  1.00  0.00     0.000 HD 
BRANCH  13  15
HETATM   15  C   UNL     1      -8.440  10.854  68.013  1.00  0.00    -0.130 C  
HETATM   16  C   UNL     1      -7.535  10.323  69.143  1.00  0.00    -0.105 C  
HETATM   17  C   UNL     1      -8.157  10.465  70.536  1.00  0.00     0.991 C  
HETATM   18  C   UNL     1      -9.576   9.897  70.609  1.00  0.00     0.122 C  
HETATM   19  C   UNL     1     -10.464  10.403  69.474  1.00  0.00    -0.274 C  
HETATM   20  O   UNL     1      -9.522   8.472  70.532  1.00  0.00    -0.161 OA 
HETATM   21  C   UNL     1      -9.811  10.166  68.111  1.00  0.00    -0.164 C  
HETATM   22  H   UNL     1     -10.402   8.119  70.578  1.00  0.00     0.000 HD 
ENDBRANCH  13  15
ENDBRANCH  12  13
ENDBRANCH  11  12
TORSDOF 3
ENDMDL
MODEL      245
REMARK 921   NORMALIZED FREE ENERGY PREDICTED BY IDOCK:   19.54 KCAL/MOL
REMARK 922        TOTAL FREE ENERGY PREDICTED BY IDOCK:   22.31 KCAL/MOL
REMARK 923 INTER-LIGAND FREE ENERGY PREDICTED BY IDOCK:    4.98 KCAL/MOL
REMARK 924 INTRA-LIGAND FREE ENERGY PREDICTED BY IDOCK:   17.33 KCAL/MOL
REMARK 927      BINDING AFFINITY PREDICTED BY RF-SCORE:    0.00 PKD
ROOT
HETATM    1  N   UNL     1      -8.100  15.581  68.446  1.00  0.00    -0.132 NA 
HETATM    2  H2  UNL     1      -7.477  14.791  68.282  1.00  0.00     0.000 HD 
HETATM    3  C   UNL     1      -9.347  15.300  67.845  1.00  0.00    -0.189 A  
HETATM    4  H1  UNL     1      -7.603  16.440  68.207  1.00  0.00     0.000 HD 
HETATM    5  C   UNL     1     -10.036  14.110  68.175  1.00  0.00    -0.232 A  
HETATM    6  C   UNL     1     -11.221  13.743  67.533  1.00  0.00    -0.316 A  
HETATM    7 BR   UNL     1      -9.388  12.951  69.542  1.00  0.00     1.836 Br 
HETATM    8  C   UNL     1     -11.713  14.551  66.516  1.00  0.00    -0.368 A  
HETATM    9  C   UNL     1     -11.023  15.692  66.123  1.00  0.00    -0.206 A  
HETATM   10 BR   UNL     1     -13.313  14.071  65.630  1.00  0.00     0.881 Br 
HETATM   11  C   UNL     1      -9.822  16.072  66.762  1.00  0.00    -0.260 A  
ENDROOT
BRANCH  11  12
HETATM   12  C   UNL     1      -9.075  17.266  66.198  1.00  0.00    -0.160 C  
BRANCH  12  13
HETATM   13  N   UNL     1      -8.168  17.877  67.183  1.00  0.00    -0.212 NA 
HETATM   14  H   UNL     1      -8.123  18.890  67.068  1.00  0.00     0.000 HD 
BRANCH  13  15
HETATM   15  C   UNL     1      -8.532  17.509  68.568  1.00  0.00    -0.280 C  
HETATM   16  C   UNL     1      -8.630  18.773  69.445  1.00  0.00     0.294 C  
HETATM   17  C   UNL     1      -9.822  19.668  69.090  1.00  0.00    -0.408 C  
HETATM   18  C   UNL     1     -11.142  18.895  69.031  1.00  0.00     1.765 C  
HETATM   19  C   UNL     1     -11.037  17.629  68.183  1.00  0.00     0.075 C  
HETATM   20  O   UNL     1     -11.531  18.517  70.352  1.00  0.00     3.152 OA 
HETATM   21  C   UNL     1      -9.868  16.752  68.638  1.00  0.00    -0.261 C  
HETATM   22  H   UNL     1     -12.350  18.037  70.315  1.00  0.00     0.000 HD 
ENDBRANCH  13  15
ENDBRANCH  12  13
ENDBRANCH  11  12
TORSDOF 3
ENDMDL
